MODEL        1
REMARK 921   NORMALIZED FREE ENERGY PREDICTED BY IDOCK:   -7.62 KCAL/MOL
REMARK 922        TOTAL FREE ENERGY PREDICTED BY IDOCK:  -15.57 KCAL/MOL
REMARK 923 INTER-LIGAND FREE ENERGY PREDICTED BY IDOCK:  -12.52 KCAL/MOL
REMARK 924 INTRA-LIGAND FREE ENERGY PREDICTED BY IDOCK:   -3.06 KCAL/MOL
REMARK 927      BINDING AFFINITY PREDICTED BY RF-SCORE:    0.00 PKD
ROOT
HETATM    1  C   UNL     1      -6.912   4.618  70.308  1.00  0.00    -0.045 C  
HETATM    2  O   UNL     1      -6.846   5.483  69.170  1.00  0.00    -0.054 OA 
ENDROOT
BRANCH   2   3
HETATM    3  C   UNL     1      -6.738   6.816  69.467  1.00  0.00    -0.050 A  
HETATM    4  C   UNL     1      -7.720   7.668  68.941  1.00  0.00    -0.117 A  
HETATM    5  F   UNL     1      -8.700   7.154  68.178  1.00  0.00    -0.126 F  
HETATM    6  C   UNL     1      -7.702   9.044  69.209  1.00  0.00    -0.090 A  
HETATM    7  C   UNL     1      -6.664   9.570  69.991  1.00  0.00    -0.070 A  
HETATM    8  C   UNL     1      -5.698   7.358  70.230  1.00  0.00    -0.024 A  
HETATM    9  C   UNL     1      -5.667   8.728  70.493  1.00  0.00    -0.027 A  
BRANCH   6  10
HETATM   10  C   UNL     1      -8.787   9.925  68.730  1.00  0.00    -0.136 C  
HETATM   11  C   UNL     1      -7.511  10.627  66.683  1.00  0.00    -0.129 C  
HETATM   12  C   UNL     1      -8.721  10.656  67.595  1.00  0.00    -0.121 C  
HETATM   13  N   UNL     1      -9.816  11.436  67.205  1.00  0.00    -0.189 N  
HETATM   14  C   UNL     1     -11.078  11.273  67.782  1.00  0.00    -0.271 C  
HETATM   15  C   UNL     1     -10.000  10.067  69.591  1.00  0.00    -0.236 C  
HETATM   16  O   UNL     1     -12.110  11.653  67.221  1.00  0.00    -0.595 OA 
HETATM   17  O   UNL     1      -9.988   9.659  70.753  1.00  0.00    -0.270 OA 
HETATM   18  N   UNL     1     -11.105  10.656  69.015  1.00  0.00    -0.235 N  
BRANCH  13  19
HETATM   19  C   UNL     1      -9.758  12.368  66.072  1.00  0.00    -0.244 C  
BRANCH  19  20
HETATM   20  C   UNL     1      -9.805  13.858  66.389  1.00  0.00    -0.304 A  
HETATM   21  F   UNL     1     -13.239  14.205  65.738  1.00  0.00    -0.549 F  
HETATM   22  C   UNL     1     -12.036  14.308  65.110  1.00  0.00    -0.395 C  
HETATM   23  C   UNL     1     -10.916  14.676  66.066  1.00  0.00    -0.325 A  
HETATM   24  F   UNL     1      -7.687  13.730  67.475  1.00  0.00    -0.133 F  
HETATM   25  C   UNL     1     -11.019  15.962  66.654  1.00  0.00    -0.136 A  
HETATM   26  C   UNL     1      -8.799  14.422  67.198  1.00  0.00    -0.229 A  
HETATM   27  F   UNL     1     -12.201  15.263  64.150  1.00  0.00    -0.490 F  
HETATM   28  F   UNL     1     -11.872  13.149  64.425  1.00  0.00    -0.355 F  
HETATM   29  C   UNL     1      -8.900  15.704  67.738  1.00  0.00    -0.173 A  
HETATM   30  C   UNL     1     -10.029  16.466  67.493  1.00  0.00    -0.250 A  
ENDBRANCH  19  20
ENDBRANCH  13  19
BRANCH  18  31
HETATM   31  C   UNL     1     -12.370  10.650  69.760  1.00  0.00    -0.194 C  
BRANCH  31  32
HETATM   32  C   UNL     1     -12.291  11.222  71.213  1.00  0.00    -0.270 C  
BRANCH  32  33
HETATM   33  N   UNL     1     -13.141  10.500  72.199  1.00  0.00    -0.546 NA 
HETATM   34  H   UNL     1     -13.976  11.046  72.410  1.00  0.00     0.000 HD 
BRANCH  33  35
HETATM   35  C   UNL     1     -13.511   9.141  71.817  1.00  0.00    -0.416 C  
BRANCH  35  36
HETATM   36  C   UNL     1     -12.467   8.132  72.320  1.00  0.00    -0.345 C  
BRANCH  36  37
HETATM   37  C   UNL     1     -12.579   6.763  71.647  1.00  0.00    -0.380 C  
HETATM   38  O   UNL     1     -11.616   6.312  69.484  1.00  0.00    -0.423 OA 
HETATM   39  C   UNL     1     -11.455   6.497  70.681  1.00  0.00    -0.374 C  
HETATM   40  O   UNL     1     -10.240   6.425  71.267  1.00  0.00    -0.196 OA 
ENDBRANCH  36  37
ENDBRANCH  35  36
ENDBRANCH  33  35
ENDBRANCH  32  33
BRANCH  32  41
HETATM   41  C   UNL     1     -12.671  12.704  71.280  1.00  0.00    -0.354 A  
HETATM   42  C   UNL     1     -12.472  14.964  70.395  1.00  0.00    -0.403 A  
HETATM   43  C   UNL     1     -13.772  14.583  72.385  1.00  0.00    -0.583 A  
HETATM   44  C   UNL     1     -12.175  13.600  70.321  1.00  0.00    -0.423 A  
HETATM   45  C   UNL     1     -13.486  13.217  72.308  1.00  0.00    -0.665 A  
HETATM   46  C   UNL     1     -13.266  15.456  71.427  1.00  0.00    -0.578 A  
ENDBRANCH  32  41
ENDBRANCH  31  32
ENDBRANCH  18  31
ENDBRANCH   6  10
ENDBRANCH   2   3
TORSDOF 11
ENDMDL
MODEL        2
REMARK 921   NORMALIZED FREE ENERGY PREDICTED BY IDOCK:   -6.87 KCAL/MOL
REMARK 922        TOTAL FREE ENERGY PREDICTED BY IDOCK:  -14.34 KCAL/MOL
REMARK 923 INTER-LIGAND FREE ENERGY PREDICTED BY IDOCK:  -11.96 KCAL/MOL
REMARK 924 INTRA-LIGAND FREE ENERGY PREDICTED BY IDOCK:   -2.38 KCAL/MOL
REMARK 927      BINDING AFFINITY PREDICTED BY RF-SCORE:    0.00 PKD
ROOT
HETATM    1  C   UNL     1     -10.470  18.117  66.330  1.00  0.00    -0.361 C  
HETATM    2  O   UNL     1      -9.482  17.148  65.965  1.00  0.00    -0.450 OA 
ENDROOT
BRANCH   2   3
HETATM    3  C   UNL     1      -8.997  16.401  67.005  1.00  0.00    -0.212 A  
HETATM    4  C   UNL     1      -9.394  15.058  67.065  1.00  0.00    -0.224 A  
HETATM    5  F   UNL     1     -10.222  14.571  66.124  1.00  0.00    -0.267 F  
HETATM    6  C   UNL     1      -8.931  14.213  68.083  1.00  0.00    -0.188 A  
HETATM    7  C   UNL     1      -8.084  14.737  69.069  1.00  0.00    -0.145 A  
HETATM    8  C   UNL     1      -8.166  16.916  68.007  1.00  0.00    -0.203 A  
HETATM    9  C   UNL     1      -7.709  16.083  69.029  1.00  0.00    -0.216 A  
BRANCH   6  10
HETATM   10  C   UNL     1      -9.277  12.775  68.092  1.00  0.00    -0.212 C  
HETATM   11  C   UNL     1     -11.307  13.125  69.530  1.00  0.00    -0.227 C  
HETATM   12  C   UNL     1     -10.342  12.260  68.745  1.00  0.00    -0.135 C  
HETATM   13  N   UNL     1     -10.608  10.887  68.667  1.00  0.00    -0.183 N  
HETATM   14  C   UNL     1      -9.991  10.072  67.714  1.00  0.00    -0.170 C  
HETATM   15  C   UNL     1      -8.352  11.832  67.394  1.00  0.00    -0.159 C  
HETATM   16  O   UNL     1     -10.467   8.985  67.375  1.00  0.00    -0.249 OA 
HETATM   17  O   UNL     1      -7.234  12.208  67.039  1.00  0.00    -0.134 OA 
HETATM   18  N   UNL     1      -8.820  10.555  67.170  1.00  0.00    -0.136 N  
BRANCH  13  19
HETATM   19  C   UNL     1     -11.652  10.238  69.469  1.00  0.00    -0.168 C  
BRANCH  19  20
HETATM   20  C   UNL     1     -11.214   9.530  70.746  1.00  0.00    -0.383 A  
HETATM   21  F   UNL     1     -14.222   7.769  71.171  1.00  0.00    -0.420 F  
HETATM   22  C   UNL     1     -13.630   8.938  71.536  1.00  0.00    -0.336 C  
HETATM   23  C   UNL     1     -12.118   8.829  71.583  1.00  0.00    -0.401 A  
HETATM   24  F   UNL     1      -8.937  10.095  70.321  1.00  0.00    -0.205 F  
HETATM   25  C   UNL     1     -11.602   7.952  72.570  1.00  0.00    -0.443 A  
HETATM   26  C   UNL     1      -9.839   9.398  71.023  1.00  0.00    -0.247 A  
HETATM   27  F   UNL     1     -14.142   9.243  72.764  1.00  0.00    -0.459 F  
HETATM   28  F   UNL     1     -14.130   9.886  70.704  1.00  0.00    -0.225 F  
HETATM   29  C   UNL     1      -9.352   8.558  72.025  1.00  0.00    -0.353 A  
HETATM   30  C   UNL     1     -10.234   7.805  72.780  1.00  0.00    -0.360 A  
ENDBRANCH  19  20
ENDBRANCH  13  19
BRANCH  18  31
HETATM   31  C   UNL     1      -8.021   9.654  66.330  1.00  0.00    -0.108 C  
BRANCH  31  32
HETATM   32  C   UNL     1      -8.199   9.847  64.789  1.00  0.00    -0.151 C  
BRANCH  32  33
HETATM   33  N   UNL     1      -9.594   9.656  64.307  1.00  0.00    -0.392 NA 
HETATM   34  H   UNL     1     -10.242   9.653  65.095  1.00  0.00     0.000 HD 
BRANCH  33  35
HETATM   35  C   UNL     1     -10.034  10.614  63.297  1.00  0.00    -0.255 C  
BRANCH  35  36
HETATM   36  C   UNL     1     -10.283  11.993  63.927  1.00  0.00    -0.424 C  
BRANCH  36  37
HETATM   37  C   UNL     1     -11.340  11.969  65.032  1.00  0.00    -0.365 C  
HETATM   38  O   UNL     1     -13.083  13.627  65.176  1.00  0.00    -0.750 OA 
HETATM   39  C   UNL     1     -12.624  12.640  64.621  1.00  0.00    -0.440 C  
HETATM   40  O   UNL     1     -13.262  12.018  63.606  1.00  0.00    -0.737 OA 
ENDBRANCH  36  37
ENDBRANCH  35  36
ENDBRANCH  33  35
ENDBRANCH  32  33
BRANCH  32  41
HETATM   41  C   UNL     1      -7.302   8.908  63.976  1.00  0.00    -0.101 A  
HETATM   42  C   UNL     1      -5.379   8.584  62.518  1.00  0.00    -0.071 A  
HETATM   43  C   UNL     1      -6.792   6.708  63.049  1.00  0.00    -0.043 A  
HETATM   44  C   UNL     1      -6.180   9.416  63.304  1.00  0.00    -0.092 A  
HETATM   45  C   UNL     1      -7.588   7.536  63.845  1.00  0.00    -0.114 A  
HETATM   46  C   UNL     1      -5.685   7.232  62.386  1.00  0.00    -0.049 A  
ENDBRANCH  32  41
ENDBRANCH  31  32
ENDBRANCH  18  31
ENDBRANCH   6  10
ENDBRANCH   2   3
TORSDOF 11
ENDMDL
MODEL        3
REMARK 921   NORMALIZED FREE ENERGY PREDICTED BY IDOCK:   -6.70 KCAL/MOL
REMARK 922        TOTAL FREE ENERGY PREDICTED BY IDOCK:  -14.07 KCAL/MOL
REMARK 923 INTER-LIGAND FREE ENERGY PREDICTED BY IDOCK:  -11.71 KCAL/MOL
REMARK 924 INTRA-LIGAND FREE ENERGY PREDICTED BY IDOCK:   -2.36 KCAL/MOL
REMARK 927      BINDING AFFINITY PREDICTED BY RF-SCORE:    0.00 PKD
ROOT
HETATM    1  C   UNL     1     -11.457   3.926  73.481  1.00  0.00    -0.098 C  
HETATM    2  O   UNL     1     -11.990   5.120  72.900  1.00  0.00    -0.218 OA 
ENDROOT
BRANCH   2   3
HETATM    3  C   UNL     1     -11.090   6.143  72.760  1.00  0.00    -0.259 A  
HETATM    4  C   UNL     1     -11.207   6.943  71.614  1.00  0.00    -0.247 A  
HETATM    5  F   UNL     1     -12.173   6.675  70.718  1.00  0.00    -0.420 F  
HETATM    6  C   UNL     1     -10.344   8.025  71.397  1.00  0.00    -0.243 A  
HETATM    7  C   UNL     1      -9.329   8.283  72.330  1.00  0.00    -0.323 A  
HETATM    8  C   UNL     1     -10.062   6.401  73.673  1.00  0.00    -0.256 A  
HETATM    9  C   UNL     1      -9.191   7.470  73.458  1.00  0.00    -0.301 A  
BRANCH   6  10
HETATM   10  C   UNL     1     -10.527   8.922  70.236  1.00  0.00    -0.239 C  
HETATM   11  C   UNL     1      -9.109   7.498  68.728  1.00  0.00    -0.135 C  
HETATM   12  C   UNL     1      -9.973   8.708  69.022  1.00  0.00    -0.192 C  
HETATM   13  N   UNL     1     -10.233   9.597  67.972  1.00  0.00    -0.182 N  
HETATM   14  C   UNL     1     -11.265  10.536  68.043  1.00  0.00    -0.294 C  
HETATM   15  C   UNL     1     -11.315  10.174  70.442  1.00  0.00    -0.326 C  
HETATM   16  O   UNL     1     -11.753  11.051  67.032  1.00  0.00    -0.399 OA 
HETATM   17  O   UNL     1     -11.591  10.555  71.580  1.00  0.00    -0.110 OA 
HETATM   18  N   UNL     1     -11.712  10.851  69.308  1.00  0.00    -0.306 N  
BRANCH  13  19
HETATM   19  C   UNL     1      -9.547   9.511  66.677  1.00  0.00    -0.188 C  
BRANCH  19  20
HETATM   20  C   UNL     1      -8.087   9.948  66.628  1.00  0.00    -0.117 A  
HETATM   21  F   UNL     1      -7.566   8.910  63.314  1.00  0.00    -0.099 F  
HETATM   22  C   UNL     1      -7.454   8.447  64.589  1.00  0.00    -0.098 C  
HETATM   23  C   UNL     1      -7.206   9.561  65.587  1.00  0.00    -0.094 A  
HETATM   24  F   UNL     1      -8.380  11.272  68.588  1.00  0.00    -0.133 F  
HETATM   25  C   UNL     1      -5.971  10.242  65.444  1.00  0.00    -0.115 A  
HETATM   26  C   UNL     1      -7.628  10.920  67.538  1.00  0.00    -0.101 A  
HETATM   27  F   UNL     1      -6.417   7.560  64.570  1.00  0.00    -0.042 F  
HETATM   28  F   UNL     1      -8.557   7.690  64.809  1.00  0.00    -0.118 F  
HETATM   29  C   UNL     1      -6.392  11.552  67.402  1.00  0.00    -0.091 A  
HETATM   30  C   UNL     1      -5.573  11.237  66.332  1.00  0.00    -0.146 A  
ENDBRANCH  19  20
ENDBRANCH  13  19
BRANCH  18  31
HETATM   31  C   UNL     1     -12.639  11.980  69.455  1.00  0.00     0.372 C  
BRANCH  31  32
HETATM   32  C   UNL     1     -11.976  13.395  69.428  1.00  0.00    -0.315 C  
BRANCH  32  33
HETATM   33  N   UNL     1     -10.510  13.377  69.172  1.00  0.00    -0.433 NA 
HETATM   34  H   UNL     1     -10.149  12.427  69.255  1.00  0.00     0.000 HD 
BRANCH  33  35
HETATM   35  C   UNL     1     -10.100  13.961  67.898  1.00  0.00    -0.242 C  
BRANCH  35  36
HETATM   36  C   UNL     1     -11.232  14.809  67.299  1.00  0.00    -0.351 C  
BRANCH  36  37
HETATM   37  C   UNL     1     -11.129  14.967  65.781  1.00  0.00    -0.342 C  
HETATM   38  O   UNL     1     -11.537  13.135  64.270  1.00  0.00    -0.354 OA 
HETATM   39  C   UNL     1     -11.983  13.976  65.035  1.00  0.00    -0.401 C  
HETATM   40  O   UNL     1     -13.308  14.133  65.247  1.00  0.00    -0.715 OA 
ENDBRANCH  36  37
ENDBRANCH  35  36
ENDBRANCH  33  35
ENDBRANCH  32  33
BRANCH  32  41
HETATM   41  C   UNL     1     -12.202  14.172  70.729  1.00  0.00    -0.435 A  
HETATM   42  C   UNL     1     -13.393  14.433  72.838  1.00  0.00    -0.575 A  
HETATM   43  C   UNL     1     -11.785  16.097  72.172  1.00  0.00    -0.569 A  
HETATM   44  C   UNL     1     -13.138  13.712  71.668  1.00  0.00    -0.455 A  
HETATM   45  C   UNL     1     -11.520  15.371  71.007  1.00  0.00    -0.407 A  
HETATM   46  C   UNL     1     -12.720  15.626  73.089  1.00  0.00    -0.599 A  
ENDBRANCH  32  41
ENDBRANCH  31  32
ENDBRANCH  18  31
ENDBRANCH   6  10
ENDBRANCH   2   3
TORSDOF 11
ENDMDL
MODEL        4
REMARK 921   NORMALIZED FREE ENERGY PREDICTED BY IDOCK:   -6.64 KCAL/MOL
REMARK 922        TOTAL FREE ENERGY PREDICTED BY IDOCK:  -13.97 KCAL/MOL
REMARK 923 INTER-LIGAND FREE ENERGY PREDICTED BY IDOCK:  -11.12 KCAL/MOL
REMARK 924 INTRA-LIGAND FREE ENERGY PREDICTED BY IDOCK:   -2.85 KCAL/MOL
REMARK 927      BINDING AFFINITY PREDICTED BY RF-SCORE:    0.00 PKD
ROOT
HETATM    1  C   UNL     1      -8.781   3.641  72.262  1.00  0.00    -0.092 C  
HETATM    2  O   UNL     1      -9.077   4.896  72.883  1.00  0.00    -0.122 OA 
ENDROOT
BRANCH   2   3
HETATM    3  C   UNL     1     -10.138   5.570  72.341  1.00  0.00    -0.179 A  
HETATM    4  C   UNL     1      -9.854   6.503  71.333  1.00  0.00    -0.176 A  
HETATM    5  F   UNL     1      -8.578   6.697  70.954  1.00  0.00    -0.128 F  
HETATM    6  C   UNL     1     -10.879   7.225  70.706  1.00  0.00    -0.260 A  
HETATM    7  C   UNL     1     -12.203   7.026  71.123  1.00  0.00    -0.427 A  
HETATM    8  C   UNL     1     -11.462   5.397  72.760  1.00  0.00    -0.333 A  
HETATM    9  C   UNL     1     -12.487   6.119  72.147  1.00  0.00    -0.035 A  
BRANCH   6  10
HETATM   10  C   UNL     1     -10.586   8.138  69.582  1.00  0.00    -0.223 C  
HETATM   11  C   UNL     1     -10.553   6.281  67.891  1.00  0.00    -0.327 C  
HETATM   12  C   UNL     1     -10.427   7.734  68.302  1.00  0.00    -0.168 C  
HETATM   13  N   UNL     1     -10.186   8.679  67.298  1.00  0.00    -0.244 N  
HETATM   14  C   UNL     1     -10.385  10.046  67.512  1.00  0.00    -0.232 C  
HETATM   15  C   UNL     1     -10.385   9.586  69.895  1.00  0.00    -0.236 C  
HETATM   16  O   UNL     1     -10.550  10.838  66.580  1.00  0.00    -0.245 OA 
HETATM   17  O   UNL     1     -10.233   9.954  71.060  1.00  0.00    -0.168 OA 
HETATM   18  N   UNL     1     -10.393  10.458  68.828  1.00  0.00    -0.184 N  
BRANCH  13  19
HETATM   19  C   UNL     1      -9.854   8.300  65.919  1.00  0.00     0.190 C  
BRANCH  19  20
HETATM   20  C   UNL     1      -8.414   8.504  65.465  1.00  0.00    -0.183 A  
HETATM   21  F   UNL     1      -8.969  11.692  64.100  1.00  0.00    -0.003 F  
HETATM   22  C   UNL     1      -8.968  10.380  63.737  1.00  0.00    -0.229 C  
HETATM   23  C   UNL     1      -8.027   9.548  64.587  1.00  0.00    -0.128 A  
HETATM   24  F   UNL     1      -7.684   6.709  66.852  1.00  0.00    -0.097 F  
HETATM   25  C   UNL     1      -6.651   9.860  64.454  1.00  0.00    -0.125 A  
HETATM   26  C   UNL     1      -7.387   7.757  66.074  1.00  0.00    -0.074 A  
HETATM   27  F   UNL     1      -8.597  10.361  62.424  1.00  0.00    -0.149 F  
HETATM   28  F   UNL     1     -10.267   9.992  63.738  1.00  0.00    -0.204 F  
HETATM   29  C   UNL     1      -6.036   8.056  65.901  1.00  0.00    -0.038 A  
HETATM   30  C   UNL     1      -5.666   9.133  65.115  1.00  0.00    -0.054 A  
ENDBRANCH  19  20
ENDBRANCH  13  19
BRANCH  18  31
HETATM   31  C   UNL     1     -10.383  11.900  69.103  1.00  0.00     0.061 C  
BRANCH  31  32
HETATM   32  C   UNL     1     -11.741  12.635  68.857  1.00  0.00    -0.325 C  
BRANCH  32  33
HETATM   33  N   UNL     1     -11.682  13.696  67.816  1.00  0.00    -0.341 NA 
HETATM   34  H   UNL     1     -12.308  14.463  68.057  1.00  0.00     0.000 HD 
BRANCH  33  35
HETATM   35  C   UNL     1     -10.344  14.209  67.534  1.00  0.00    -0.248 C  
BRANCH  35  36
HETATM   36  C   UNL     1     -10.373  15.179  66.343  1.00  0.00    -0.292 C  
BRANCH  36  37
HETATM   37  C   UNL     1     -10.585  14.479  65.000  1.00  0.00    -0.458 C  
HETATM   38  O   UNL     1     -12.782  13.985  64.142  1.00  0.00    -0.662 OA 
HETATM   39  C   UNL     1     -11.914  14.812  64.374  1.00  0.00    -0.417 C  
HETATM   40  O   UNL     1     -12.046  16.113  64.039  1.00  0.00    -0.889 OA 
ENDBRANCH  36  37
ENDBRANCH  35  36
ENDBRANCH  33  35
ENDBRANCH  32  33
BRANCH  32  41
HETATM   41  C   UNL     1     -12.297  13.277  70.132  1.00  0.00    -0.306 A  
HETATM   42  C   UNL     1     -13.305  13.036  72.336  1.00  0.00    -0.563 A  
HETATM   43  C   UNL     1     -12.971  15.238  71.421  1.00  0.00    -0.503 A  
HETATM   44  C   UNL     1     -12.750  12.469  71.186  1.00  0.00    -0.340 A  
HETATM   45  C   UNL     1     -12.406  14.674  70.274  1.00  0.00    -0.406 A  
HETATM   46  C   UNL     1     -13.419  14.420  72.453  1.00  0.00    -0.557 A  
ENDBRANCH  32  41
ENDBRANCH  31  32
ENDBRANCH  18  31
ENDBRANCH   6  10
ENDBRANCH   2   3
TORSDOF 11
ENDMDL
MODEL        5
REMARK 921   NORMALIZED FREE ENERGY PREDICTED BY IDOCK:   -6.47 KCAL/MOL
REMARK 922        TOTAL FREE ENERGY PREDICTED BY IDOCK:  -13.69 KCAL/MOL
REMARK 923 INTER-LIGAND FREE ENERGY PREDICTED BY IDOCK:  -11.19 KCAL/MOL
REMARK 924 INTRA-LIGAND FREE ENERGY PREDICTED BY IDOCK:   -2.50 KCAL/MOL
REMARK 927      BINDING AFFINITY PREDICTED BY RF-SCORE:    0.00 PKD
ROOT
HETATM    1  C   UNL     1      -9.898   5.907  66.653  1.00  0.00    -0.163 C  
HETATM    2  O   UNL     1     -10.833   6.966  66.884  1.00  0.00    -0.351 OA 
ENDROOT
BRANCH   2   3
HETATM    3  C   UNL     1     -10.540   7.770  67.953  1.00  0.00    -0.156 A  
HETATM    4  C   UNL     1     -10.207   9.103  67.676  1.00  0.00    -0.236 A  
HETATM    5  F   UNL     1     -10.184   9.527  66.400  1.00  0.00    -0.302 F  
HETATM    6  C   UNL     1      -9.912  10.004  68.708  1.00  0.00    -0.181 A  
HETATM    7  C   UNL     1      -9.922   9.546  70.034  1.00  0.00    -0.274 A  
HETATM    8  C   UNL     1     -10.527   7.322  69.279  1.00  0.00    -0.221 A  
HETATM    9  C   UNL     1     -10.224   8.210  70.312  1.00  0.00    -0.200 A  
BRANCH   6  10
HETATM   10  C   UNL     1      -9.652  11.430  68.421  1.00  0.00    -0.197 C  
HETATM   11  C   UNL     1      -7.237  11.025  67.856  1.00  0.00    -0.086 C  
HETATM   12  C   UNL     1      -8.449  11.916  68.041  1.00  0.00    -0.162 C  
HETATM   13  N   UNL     1      -8.308  13.280  67.756  1.00  0.00    -0.157 N  
HETATM   14  C   UNL     1      -9.416  14.111  67.571  1.00  0.00    -0.210 C  
HETATM   15  C   UNL     1     -10.770  12.399  68.631  1.00  0.00    -0.232 C  
HETATM   16  O   UNL     1      -9.338  15.182  66.963  1.00  0.00    -0.213 OA 
HETATM   17  O   UNL     1     -11.781  12.055  69.244  1.00  0.00    -0.287 OA 
HETATM   18  N   UNL     1     -10.607  13.660  68.102  1.00  0.00    -0.241 N  
BRANCH  13  19
HETATM   19  C   UNL     1      -7.005  13.900  67.488  1.00  0.00    -0.144 C  
BRANCH  19  20
HETATM   20  C   UNL     1      -6.333  14.642  68.638  1.00  0.00    -0.082 A  
HETATM   21  F   UNL     1      -7.556  17.804  67.721  1.00  0.00    -0.198 F  
HETATM   22  C   UNL     1      -6.477  16.998  67.523  1.00  0.00    -0.144 C  
HETATM   23  C   UNL     1      -6.240  16.055  68.688  1.00  0.00    -0.115 A  
HETATM   24  F   UNL     1      -5.941  12.588  69.782  1.00  0.00    -0.091 F  
HETATM   25  C   UNL     1      -5.884  16.678  69.910  1.00  0.00    -0.217 A  
HETATM   26  C   UNL     1      -5.951  13.926  69.789  1.00  0.00    -0.124 A  
HETATM   27  F   UNL     1      -5.417  17.837  67.342  1.00  0.00    -0.121 F  
HETATM   28  F   UNL     1      -6.667  16.410  66.315  1.00  0.00    -0.146 F  
HETATM   29  C   UNL     1      -5.566  14.557  70.973  1.00  0.00    -0.168 A  
HETATM   30  C   UNL     1      -5.564  15.939  71.045  1.00  0.00     0.123 A  
ENDBRANCH  19  20
ENDBRANCH  13  19
BRANCH  18  31
HETATM   31  C   UNL     1     -11.749  14.583  68.124  1.00  0.00    -0.337 C  
BRANCH  31  32
HETATM   32  C   UNL     1     -11.642  15.751  69.157  1.00  0.00    -0.392 C  
BRANCH  32  33
HETATM   33  N   UNL     1     -10.263  16.281  69.338  1.00  0.00    -0.260 NA 
HETATM   34  H   UNL     1      -9.620  15.819  68.695  1.00  0.00     0.000 HD 
BRANCH  33  35
HETATM   35  C   UNL     1     -10.138  17.731  69.219  1.00  0.00    -0.135 C  
BRANCH  35  36
HETATM   36  C   UNL     1     -10.856  18.237  67.959  1.00  0.00    -0.178 C  
BRANCH  36  37
HETATM   37  C   UNL     1     -10.347  19.597  67.480  1.00  0.00    -0.578 C  
HETATM   38  O   UNL     1      -8.857  19.821  65.599  1.00  0.00    -0.330 OA 
HETATM   39  C   UNL     1      -9.983  19.599  66.019  1.00  0.00    -0.422 C  
HETATM   40  O   UNL     1     -11.032  19.384  65.196  1.00  0.00    -0.430 OA 
ENDBRANCH  36  37
ENDBRANCH  35  36
ENDBRANCH  33  35
ENDBRANCH  32  33
BRANCH  32  41
HETATM   41  C   UNL     1     -12.165  15.357  70.542  1.00  0.00    -0.436 A  
HETATM   42  C   UNL     1     -13.925  14.398  71.925  1.00  0.00    -0.574 A  
HETATM   43  C   UNL     1     -11.970  15.334  72.975  1.00  0.00    -0.517 A  
HETATM   44  C   UNL     1     -13.409  14.721  70.667  1.00  0.00    -0.216 A  
HETATM   45  C   UNL     1     -11.448  15.648  71.718  1.00  0.00    -0.505 A  
HETATM   46  C   UNL     1     -13.208  14.707  73.079  1.00  0.00    -0.587 A  
ENDBRANCH  32  41
ENDBRANCH  31  32
ENDBRANCH  18  31
ENDBRANCH   6  10
ENDBRANCH   2   3
TORSDOF 11
ENDMDL
MODEL        6
REMARK 921   NORMALIZED FREE ENERGY PREDICTED BY IDOCK:   -6.47 KCAL/MOL
REMARK 922        TOTAL FREE ENERGY PREDICTED BY IDOCK:  -13.69 KCAL/MOL
REMARK 923 INTER-LIGAND FREE ENERGY PREDICTED BY IDOCK:  -11.64 KCAL/MOL
REMARK 924 INTRA-LIGAND FREE ENERGY PREDICTED BY IDOCK:   -2.05 KCAL/MOL
REMARK 927      BINDING AFFINITY PREDICTED BY RF-SCORE:    0.00 PKD
ROOT
HETATM    1  C   UNL     1      -6.651   3.583  63.729  1.00  0.00    -0.035 C  
HETATM    2  O   UNL     1      -7.231   4.887  63.846  1.00  0.00    -0.048 OA 
ENDROOT
BRANCH   2   3
HETATM    3  C   UNL     1      -8.312   4.962  64.683  1.00  0.00    -0.134 A  
HETATM    4  C   UNL     1      -8.229   5.865  65.753  1.00  0.00    -0.130 A  
HETATM    5  F   UNL     1      -7.113   6.599  65.912  1.00  0.00    -0.056 F  
HETATM    6  C   UNL     1      -9.294   6.025  66.649  1.00  0.00    -0.156 A  
HETATM    7  C   UNL     1     -10.445   5.242  66.483  1.00  0.00    -0.354 A  
HETATM    8  C   UNL     1      -9.459   4.174  64.541  1.00  0.00    -0.165 A  
HETATM    9  C   UNL     1     -10.521   4.319  65.435  1.00  0.00    -0.192 A  
BRANCH   6  10
HETATM   10  C   UNL     1      -9.240   7.042  67.720  1.00  0.00    -0.124 C  
HETATM   11  C   UNL     1      -8.408   5.404  69.433  1.00  0.00    -0.096 C  
HETATM   12  C   UNL     1      -8.850   6.783  68.987  1.00  0.00    -0.129 C  
HETATM   13  N   UNL     1      -8.798   7.822  69.926  1.00  0.00    -0.142 N  
HETATM   14  C   UNL     1      -8.857   9.164  69.540  1.00  0.00    -0.149 C  
HETATM   15  C   UNL     1      -9.713   8.422  67.394  1.00  0.00    -0.170 C  
HETATM   16  O   UNL     1      -8.443  10.073  70.265  1.00  0.00    -0.128 OA 
HETATM   17  O   UNL     1     -10.340   8.634  66.356  1.00  0.00    -0.262 OA 
HETATM   18  N   UNL     1      -9.401   9.415  68.298  1.00  0.00    -0.134 N  
BRANCH  13  19
HETATM   19  C   UNL     1      -8.532   7.587  71.350  1.00  0.00    -0.112 C  
BRANCH  19  20
HETATM   20  C   UNL     1      -9.447   6.613  72.081  1.00  0.00    -0.146 A  
HETATM   21  F   UNL     1     -12.422   7.943  70.772  1.00  0.00    -0.241 F  
HETATM   22  C   UNL     1     -11.596   8.075  71.845  1.00  0.00    -0.298 C  
HETATM   23  C   UNL     1     -10.851   6.793  72.161  1.00  0.00    -0.257 A  
HETATM   24  F   UNL     1      -7.602   5.184  72.564  1.00  0.00    -0.087 F  
HETATM   25  C   UNL     1     -11.661   5.709  72.584  1.00  0.00    -0.307 A  
HETATM   26  C   UNL     1      -8.924   5.387  72.539  1.00  0.00    -0.133 A  
HETATM   27  F   UNL     1     -12.397   8.451  72.884  1.00  0.00    -0.429 F  
HETATM   28  F   UNL     1     -10.824   9.161  71.590  1.00  0.00    -0.351 F  
HETATM   29  C   UNL     1      -9.735   4.345  72.987  1.00  0.00    -0.167 A  
HETATM   30  C   UNL     1     -11.111   4.492  72.978  1.00  0.00    -0.298 A  
ENDBRANCH  19  20
ENDBRANCH  13  19
BRANCH  18  31
HETATM   31  C   UNL     1      -9.683  10.808  67.933  1.00  0.00    -0.167 C  
BRANCH  31  32
HETATM   32  C   UNL     1     -11.199  11.173  67.815  1.00  0.00    -0.294 C  
BRANCH  32  33
HETATM   33  N   UNL     1     -11.543  11.966  66.604  1.00  0.00    -0.528 NA 
HETATM   34  H   UNL     1     -11.797  12.918  66.866  1.00  0.00     0.000 HD 
BRANCH  33  35
HETATM   35  C   UNL     1     -10.514  11.988  65.568  1.00  0.00    -0.269 C  
BRANCH  35  36
HETATM   36  C   UNL     1     -10.671  13.225  64.671  1.00  0.00    -0.415 C  
BRANCH  36  37
HETATM   37  C   UNL     1     -11.197  14.450  65.420  1.00  0.00    -0.335 C  
HETATM   38  O   UNL     1     -11.322  16.627  64.394  1.00  0.00    -1.023 OA 
HETATM   39  C   UNL     1     -11.768  15.495  64.497  1.00  0.00    -0.253 C  
HETATM   40  O   UNL     1     -12.864  15.084  63.823  1.00  0.00    -0.651 OA 
ENDBRANCH  36  37
ENDBRANCH  35  36
ENDBRANCH  33  35
ENDBRANCH  32  33
BRANCH  32  41
HETATM   41  C   UNL     1     -11.709  11.951  69.031  1.00  0.00    -0.391 A  
HETATM   42  C   UNL     1     -12.897  11.980  71.157  1.00  0.00    -0.331 A  
HETATM   43  C   UNL     1     -12.084  14.047  70.226  1.00  0.00    -0.425 A  
HETATM   44  C   UNL     1     -12.381  11.279  70.063  1.00  0.00    -0.330 A  
HETATM   45  C   UNL     1     -11.558  13.347  69.137  1.00  0.00    -0.365 A  
HETATM   46  C   UNL     1     -12.752  13.363  71.238  1.00  0.00    -0.424 A  
ENDBRANCH  32  41
ENDBRANCH  31  32
ENDBRANCH  18  31
ENDBRANCH   6  10
ENDBRANCH   2   3
TORSDOF 11
ENDMDL
MODEL        7
REMARK 921   NORMALIZED FREE ENERGY PREDICTED BY IDOCK:   -6.46 KCAL/MOL
REMARK 922        TOTAL FREE ENERGY PREDICTED BY IDOCK:  -13.67 KCAL/MOL
REMARK 923 INTER-LIGAND FREE ENERGY PREDICTED BY IDOCK:  -11.70 KCAL/MOL
REMARK 924 INTRA-LIGAND FREE ENERGY PREDICTED BY IDOCK:   -1.97 KCAL/MOL
REMARK 927      BINDING AFFINITY PREDICTED BY RF-SCORE:    0.00 PKD
ROOT
HETATM    1  C   UNL     1     -11.102   3.362  73.864  1.00  0.00    -0.140 C  
HETATM    2  O   UNL     1     -11.648   4.535  73.252  1.00  0.00    -0.291 OA 
ENDROOT
BRANCH   2   3
HETATM    3  C   UNL     1     -10.825   5.629  73.269  1.00  0.00    -0.282 A  
HETATM    4  C   UNL     1     -10.694   6.348  72.072  1.00  0.00    -0.227 A  
HETATM    5  F   UNL     1     -11.363   5.938  70.980  1.00  0.00    -0.348 F  
HETATM    6  C   UNL     1      -9.889   7.492  72.000  1.00  0.00    -0.200 A  
HETATM    7  C   UNL     1      -9.183   7.899  73.141  1.00  0.00    -0.331 A  
HETATM    8  C   UNL     1     -10.099   6.036  74.394  1.00  0.00    -0.316 A  
HETATM    9  C   UNL     1      -9.287   7.169  74.328  1.00  0.00    -0.246 A  
BRANCH   6  10
HETATM   10  C   UNL     1      -9.826   8.300  70.764  1.00  0.00    -0.205 C  
HETATM   11  C   UNL     1      -7.792   7.097  69.910  1.00  0.00    -0.113 C  
HETATM   12  C   UNL     1      -8.882   8.144  69.808  1.00  0.00    -0.143 C  
HETATM   13  N   UNL     1      -8.925   8.934  68.653  1.00  0.00    -0.137 N  
HETATM   14  C   UNL     1     -10.058   9.677  68.312  1.00  0.00    -0.177 C  
HETATM   15  C   UNL     1     -10.824   9.399  70.598  1.00  0.00    -0.283 C  
HETATM   16  O   UNL     1     -10.268  10.060  67.157  1.00  0.00    -0.203 OA 
HETATM   17  O   UNL     1     -11.508   9.766  71.553  1.00  0.00    -0.378 OA 
HETATM   18  N   UNL     1     -10.934   9.953  69.340  1.00  0.00    -0.236 N  
BRANCH  13  19
HETATM   19  C   UNL     1      -7.853   8.925  67.650  1.00  0.00    -0.101 C  
BRANCH  19  20
HETATM   20  C   UNL     1      -8.118   8.175  66.350  1.00  0.00    -0.106 A  
HETATM   21  F   UNL     1      -6.308  10.407  64.331  1.00  0.00    -0.126 F  
HETATM   22  C   UNL     1      -7.572  10.194  64.789  1.00  0.00    -0.139 C  
HETATM   23  C   UNL     1      -7.843   8.730  65.075  1.00  0.00    -0.111 A  
HETATM   24  F   UNL     1      -8.820   6.247  67.563  1.00  0.00    -0.108 F  
HETATM   25  C   UNL     1      -7.825   7.877  63.943  1.00  0.00    -0.141 A  
HETATM   26  C   UNL     1      -8.472   6.812  66.401  1.00  0.00    -0.126 A  
HETATM   27  F   UNL     1      -8.402  10.671  63.817  1.00  0.00    -0.170 F  
HETATM   28  F   UNL     1      -7.737  11.042  65.835  1.00  0.00    -0.151 F  
HETATM   29  C   UNL     1      -8.486   5.997  65.269  1.00  0.00    -0.131 A  
HETATM   30  C   UNL     1      -8.128   6.522  64.040  1.00  0.00    -0.029 A  
ENDBRANCH  19  20
ENDBRANCH  13  19
BRANCH  18  31
HETATM   31  C   UNL     1     -12.024  10.904  69.087  1.00  0.00    -0.288 C  
BRANCH  31  32
HETATM   32  C   UNL     1     -11.608  12.411  69.090  1.00  0.00    -0.314 C  
BRANCH  32  33
HETATM   33  N   UNL     1     -10.139  12.638  69.174  1.00  0.00    -0.379 NA 
HETATM   34  H   UNL     1      -9.661  11.768  69.405  1.00  0.00     0.000 HD 
BRANCH  33  35
HETATM   35  C   UNL     1      -9.540  13.243  67.989  1.00  0.00    -0.220 C  
BRANCH  35  36
HETATM   36  C   UNL     1     -10.615  13.906  67.114  1.00  0.00    -0.277 C  
BRANCH  36  37
HETATM   37  C   UNL     1     -10.708  13.301  65.712  1.00  0.00    -0.286 C  
HETATM   38  O   UNL     1     -12.555  11.910  65.034  1.00  0.00    -0.289 OA 
HETATM   39  C   UNL     1     -12.128  13.025  65.292  1.00  0.00    -0.441 C  
HETATM   40  O   UNL     1     -12.886  14.136  65.172  1.00  0.00    -0.686 OA 
ENDBRANCH  36  37
ENDBRANCH  35  36
ENDBRANCH  33  35
ENDBRANCH  32  33
BRANCH  32  41
HETATM   41  C   UNL     1     -12.257  13.194  70.236  1.00  0.00    -0.376 A  
HETATM   42  C   UNL     1     -13.542  13.208  72.305  1.00  0.00    -0.677 A  
HETATM   43  C   UNL     1     -12.914  15.298  71.286  1.00  0.00    -0.511 A  
HETATM   44  C   UNL     1     -12.902  12.510  71.277  1.00  0.00    -0.337 A  
HETATM   45  C   UNL     1     -12.263  14.602  70.264  1.00  0.00    -0.389 A  
HETATM   46  C   UNL     1     -13.552  14.601  72.308  1.00  0.00    -0.536 A  
ENDBRANCH  32  41
ENDBRANCH  31  32
ENDBRANCH  18  31
ENDBRANCH   6  10
ENDBRANCH   2   3
TORSDOF 11
ENDMDL
MODEL        8
REMARK 921   NORMALIZED FREE ENERGY PREDICTED BY IDOCK:   -6.41 KCAL/MOL
REMARK 922        TOTAL FREE ENERGY PREDICTED BY IDOCK:  -13.59 KCAL/MOL
REMARK 923 INTER-LIGAND FREE ENERGY PREDICTED BY IDOCK:  -10.74 KCAL/MOL
REMARK 924 INTRA-LIGAND FREE ENERGY PREDICTED BY IDOCK:   -2.85 KCAL/MOL
REMARK 927      BINDING AFFINITY PREDICTED BY RF-SCORE:    0.00 PKD
ROOT
HETATM    1  C   UNL     1      -8.646  18.828  67.309  1.00  0.00    -0.274 C  
HETATM    2  O   UNL     1      -9.607  17.933  67.878  1.00  0.00    -0.272 OA 
ENDROOT
BRANCH   2   3
HETATM    3  C   UNL     1      -9.887  16.829  67.117  1.00  0.00    -0.259 A  
HETATM    4  C   UNL     1      -9.723  15.576  67.724  1.00  0.00    -0.211 A  
HETATM    5  F   UNL     1      -9.300  15.512  68.999  1.00  0.00    -0.176 F  
HETATM    6  C   UNL     1     -10.005  14.393  67.029  1.00  0.00    -0.257 A  
HETATM    7  C   UNL     1     -10.428  14.473  65.694  1.00  0.00    -0.351 A  
HETATM    8  C   UNL     1     -10.291  16.894  65.778  1.00  0.00    -0.298 A  
HETATM    9  C   UNL     1     -10.565  15.720  65.076  1.00  0.00    -0.397 A  
BRANCH   6  10
HETATM   10  C   UNL     1      -9.919  13.079  67.700  1.00  0.00    -0.215 C  
HETATM   11  C   UNL     1      -7.472  12.818  67.193  1.00  0.00    -0.037 C  
HETATM   12  C   UNL     1      -8.787  12.345  67.780  1.00  0.00    -0.176 C  
HETATM   13  N   UNL     1      -8.796  11.125  68.468  1.00  0.00    -0.157 N  
HETATM   14  C   UNL     1      -9.847  10.768  69.317  1.00  0.00    -0.138 C  
HETATM   15  C   UNL     1     -11.178  12.500  68.260  1.00  0.00    -0.266 C  
HETATM   16  O   UNL     1      -9.715   9.916  70.201  1.00  0.00    -0.247 OA 
HETATM   17  O   UNL     1     -12.270  12.984  67.962  1.00  0.00    -0.240 OA 
HETATM   18  N   UNL     1     -11.041  11.427  69.115  1.00  0.00    -0.242 N  
BRANCH  13  19
HETATM   19  C   UNL     1      -7.649  10.209  68.466  1.00  0.00    -0.088 C  
BRANCH  19  20
HETATM   20  C   UNL     1      -7.822   8.875  67.748  1.00  0.00    -0.102 A  
HETATM   21  F   UNL     1      -8.440   7.030  70.672  1.00  0.00    -0.130 F  
HETATM   22  C   UNL     1      -7.410   7.406  69.866  1.00  0.00    -0.083 C  
HETATM   23  C   UNL     1      -7.852   7.635  68.433  1.00  0.00    -0.121 A  
HETATM   24  F   UNL     1      -8.067   9.990  65.656  1.00  0.00    -0.119 F  
HETATM   25  C   UNL     1      -8.315   6.482  67.750  1.00  0.00    -0.119 A  
HETATM   26  C   UNL     1      -8.151   8.867  66.379  1.00  0.00    -0.110 A  
HETATM   27  F   UNL     1      -6.492   6.400  69.946  1.00  0.00    -0.039 F  
HETATM   28  F   UNL     1      -6.822   8.463  70.480  1.00  0.00    -0.036 F  
HETATM   29  C   UNL     1      -8.569   7.714  65.713  1.00  0.00    -0.156 A  
HETATM   30  C   UNL     1      -8.685   6.523  66.409  1.00  0.00    -0.142 A  
ENDBRANCH  19  20
ENDBRANCH  13  19
BRANCH  18  31
HETATM   31  C   UNL     1     -12.229  10.945  69.829  1.00  0.00    -0.311 C  
BRANCH  31  32
HETATM   32  C   UNL     1     -12.325  11.373  71.329  1.00  0.00    -0.239 C  
BRANCH  32  33
HETATM   33  N   UNL     1     -13.281  10.565  72.134  1.00  0.00    -0.573 NA 
HETATM   34  H   UNL     1     -13.919  11.177  72.642  1.00  0.00     0.000 HD 
BRANCH  33  35
HETATM   35  C   UNL     1     -14.035   9.568  71.379  1.00  0.00    -0.066 C  
BRANCH  35  36
HETATM   36  C   UNL     1     -14.245   8.297  72.215  1.00  0.00    -0.393 C  
BRANCH  36  37
HETATM   37  C   UNL     1     -13.463   7.093  71.688  1.00  0.00    -0.397 C  
HETATM   38  O   UNL     1     -11.591   7.334  70.190  1.00  0.00    -0.219 OA 
HETATM   39  C   UNL     1     -12.044   7.439  71.319  1.00  0.00    -0.328 C  
HETATM   40  O   UNL     1     -11.289   7.829  72.369  1.00  0.00    -0.295 OA 
ENDBRANCH  36  37
ENDBRANCH  35  36
ENDBRANCH  33  35
ENDBRANCH  32  33
BRANCH  32  41
HETATM   41  C   UNL     1     -12.719  12.844  71.494  1.00  0.00    -0.339 A  
HETATM   42  C   UNL     1     -12.190  15.203  71.203  1.00  0.00    -0.392 A  
HETATM   43  C   UNL     1     -14.217  14.576  72.341  1.00  0.00    -0.470 A  
HETATM   44  C   UNL     1     -11.870  13.855  71.019  1.00  0.00    -0.135 A  
HETATM   45  C   UNL     1     -13.905  13.227  72.148  1.00  0.00    -0.555 A  
HETATM   46  C   UNL     1     -13.360  15.564  71.867  1.00  0.00    -0.569 A  
ENDBRANCH  32  41
ENDBRANCH  31  32
ENDBRANCH  18  31
ENDBRANCH   6  10
ENDBRANCH   2   3
TORSDOF 11
ENDMDL
MODEL        9
REMARK 921   NORMALIZED FREE ENERGY PREDICTED BY IDOCK:   -6.39 KCAL/MOL
REMARK 922        TOTAL FREE ENERGY PREDICTED BY IDOCK:  -13.55 KCAL/MOL
REMARK 923 INTER-LIGAND FREE ENERGY PREDICTED BY IDOCK:  -10.93 KCAL/MOL
REMARK 924 INTRA-LIGAND FREE ENERGY PREDICTED BY IDOCK:   -2.62 KCAL/MOL
REMARK 927      BINDING AFFINITY PREDICTED BY RF-SCORE:    0.00 PKD
ROOT
HETATM    1  C   UNL     1     -10.248   2.601  63.465  1.00  0.00    -0.165 C  
HETATM    2  O   UNL     1     -10.498   3.507  64.544  1.00  0.00    -0.157 OA 
ENDROOT
BRANCH   2   3
HETATM    3  C   UNL     1      -9.546   4.477  64.713  1.00  0.00    -0.095 A  
HETATM    4  C   UNL     1      -9.767   5.418  65.729  1.00  0.00    -0.016 A  
HETATM    5  F   UNL     1     -10.883   5.334  66.475  1.00  0.00    -0.316 F  
HETATM    6  C   UNL     1      -8.837   6.434  65.988  1.00  0.00    -0.160 A  
HETATM    7  C   UNL     1      -7.687   6.522  65.191  1.00  0.00    -0.097 A  
HETATM    8  C   UNL     1      -8.403   4.588  63.913  1.00  0.00    -0.112 A  
HETATM    9  C   UNL     1      -7.477   5.604  64.158  1.00  0.00    -0.070 A  
BRANCH   6  10
HETATM   10  C   UNL     1      -9.027   7.367  67.118  1.00  0.00    -0.134 C  
HETATM   11  C   UNL     1      -8.330   5.665  68.829  1.00  0.00    -0.103 C  
HETATM   12  C   UNL     1      -8.811   7.040  68.411  1.00  0.00    -0.123 C  
HETATM   13  N   UNL     1      -8.985   8.004  69.412  1.00  0.00    -0.148 N  
HETATM   14  C   UNL     1      -9.094   9.364  69.111  1.00  0.00    -0.148 C  
HETATM   15  C   UNL     1      -9.556   8.731  66.814  1.00  0.00    -0.206 C  
HETATM   16  O   UNL     1      -8.869  10.241  69.949  1.00  0.00    -0.126 OA 
HETATM   17  O   UNL     1     -10.036   8.978  65.707  1.00  0.00    -0.241 OA 
HETATM   18  N   UNL     1      -9.465   9.671  67.818  1.00  0.00    -0.127 N  
BRANCH  13  19
HETATM   19  C   UNL     1      -8.917   7.680  70.842  1.00  0.00    -0.148 C  
BRANCH  19  20
HETATM   20  C   UNL     1      -9.999   6.765  71.404  1.00  0.00    -0.191 A  
HETATM   21  F   UNL     1      -8.021   5.522  74.026  1.00  0.00    -0.104 F  
HETATM   22  C   UNL     1      -8.356   5.237  72.738  1.00  0.00    -0.113 C  
HETATM   23  C   UNL     1      -9.730   5.764  72.370  1.00  0.00    -0.178 A  
HETATM   24  F   UNL     1     -11.670   7.910  70.148  1.00  0.00    -0.182 F  
HETATM   25  C   UNL     1     -10.814   5.168  73.063  1.00  0.00    -0.336 A  
HETATM   26  C   UNL     1     -11.350   7.033  71.106  1.00  0.00    -0.282 A  
HETATM   27  F   UNL     1      -8.303   3.878  72.634  1.00  0.00    -0.090 F  
HETATM   28  F   UNL     1      -7.327   5.686  71.976  1.00  0.00    -0.083 F  
HETATM   29  C   UNL     1     -12.404   6.409  71.773  1.00  0.00    -0.259 A  
HETATM   30  C   UNL     1     -12.137   5.497  72.779  1.00  0.00    -0.006 A  
ENDBRANCH  19  20
ENDBRANCH  13  19
BRANCH  18  31
HETATM   31  C   UNL     1      -9.801  11.065  67.505  1.00  0.00    -0.169 C  
BRANCH  31  32
HETATM   32  C   UNL     1     -11.330  11.392  67.476  1.00  0.00    -0.292 C  
BRANCH  32  33
HETATM   33  N   UNL     1     -11.734  12.322  66.387  1.00  0.00    -0.526 NA 
HETATM   34  H   UNL     1     -11.887  13.258  66.762  1.00  0.00     0.000 HD 
BRANCH  33  35
HETATM   35  C   UNL     1     -10.817  12.379  65.252  1.00  0.00    -0.289 C  
BRANCH  35  36
HETATM   36  C   UNL     1     -10.869  13.759  64.579  1.00  0.00    -0.399 C  
BRANCH  36  37
HETATM   37  C   UNL     1     -11.295  14.878  65.530  1.00  0.00    -0.339 C  
HETATM   38  O   UNL     1     -10.192  17.020  65.569  1.00  0.00    -0.589 OA 
HETATM   39  C   UNL     1     -10.952  16.248  65.006  1.00  0.00    -0.298 C  
HETATM   40  O   UNL     1     -11.608  16.575  63.872  1.00  0.00    -1.175 OA 
ENDBRANCH  36  37
ENDBRANCH  35  36
ENDBRANCH  33  35
ENDBRANCH  32  33
BRANCH  32  41
HETATM   41  C   UNL     1     -11.825  11.990  68.796  1.00  0.00    -0.358 A  
HETATM   42  C   UNL     1     -12.247  13.944  70.187  1.00  0.00    -0.425 A  
HETATM   43  C   UNL     1     -12.627  11.744  71.089  1.00  0.00    -0.412 A  
HETATM   44  C   UNL     1     -11.845  13.382  68.972  1.00  0.00    -0.378 A  
HETATM   45  C   UNL     1     -12.235  11.180  69.872  1.00  0.00    -0.385 A  
HETATM   46  C   UNL     1     -12.634  13.127  71.246  1.00  0.00    -0.382 A  
ENDBRANCH  32  41
ENDBRANCH  31  32
ENDBRANCH  18  31
ENDBRANCH   6  10
ENDBRANCH   2   3
TORSDOF 11
ENDMDL
MODEL       10
REMARK 921   NORMALIZED FREE ENERGY PREDICTED BY IDOCK:   -6.38 KCAL/MOL
REMARK 922        TOTAL FREE ENERGY PREDICTED BY IDOCK:  -13.53 KCAL/MOL
REMARK 923 INTER-LIGAND FREE ENERGY PREDICTED BY IDOCK:  -12.39 KCAL/MOL
REMARK 924 INTRA-LIGAND FREE ENERGY PREDICTED BY IDOCK:   -1.14 KCAL/MOL
REMARK 927      BINDING AFFINITY PREDICTED BY RF-SCORE:    0.00 PKD
ROOT
HETATM    1  C   UNL     1      -5.593  18.838  64.788  1.00  0.00    -0.236 C  
HETATM    2  O   UNL     1      -6.944  18.542  65.155  1.00  0.00    -0.516 OA 
ENDROOT
BRANCH   2   3
HETATM    3  C   UNL     1      -7.105  18.090  66.438  1.00  0.00    -0.247 A  
HETATM    4  C   UNL     1      -7.896  16.946  66.617  1.00  0.00    -0.263 A  
HETATM    5  F   UNL     1      -8.457  16.358  65.545  1.00  0.00    -0.135 F  
HETATM    6  C   UNL     1      -8.100  16.400  67.891  1.00  0.00    -0.164 A  
HETATM    7  C   UNL     1      -7.525  17.033  69.002  1.00  0.00    -0.211 A  
HETATM    8  C   UNL     1      -6.553  18.722  67.558  1.00  0.00    -0.202 A  
HETATM    9  C   UNL     1      -6.759  18.190  68.831  1.00  0.00    -0.256 A  
BRANCH   6  10
HETATM   10  C   UNL     1      -8.857  15.142  68.066  1.00  0.00    -0.170 C  
HETATM   11  C   UNL     1     -11.068  16.326  68.225  1.00  0.00    -0.346 C  
HETATM   12  C   UNL     1     -10.198  15.085  68.226  1.00  0.00    -0.222 C  
HETATM   13  N   UNL     1     -10.832  13.843  68.350  1.00  0.00    -0.247 N  
HETATM   14  C   UNL     1     -10.179  12.649  68.031  1.00  0.00    -0.230 C  
HETATM   15  C   UNL     1      -8.082  13.867  68.140  1.00  0.00    -0.150 C  
HETATM   16  O   UNL     1     -10.797  11.614  67.767  1.00  0.00    -0.197 OA 
HETATM   17  O   UNL     1      -6.860  13.891  68.289  1.00  0.00    -0.086 OA 
HETATM   18  N   UNL     1      -8.801  12.696  68.022  1.00  0.00    -0.188 N  
BRANCH  13  19
HETATM   19  C   UNL     1     -12.257  13.712  68.678  1.00  0.00    -0.154 C  
BRANCH  19  20
HETATM   20  C   UNL     1     -12.651  13.827  70.146  1.00  0.00    -0.253 A  
HETATM   21  F   UNL     1     -11.415  10.665  71.045  1.00  0.00    -0.385 F  
HETATM   22  C   UNL     1     -12.563  11.262  70.621  1.00  0.00    -0.288 C  
HETATM   23  C   UNL     1     -12.639  12.721  71.031  1.00  0.00    -0.362 A  
HETATM   24  F   UNL     1     -12.957  16.180  69.917  1.00  0.00    -0.033 F  
HETATM   25  C   UNL     1     -12.718  12.956  72.427  1.00  0.00     0.101 A  
HETATM   26  C   UNL     1     -12.857  15.103  70.706  1.00  0.00    -0.416 A  
HETATM   27  F   UNL     1     -13.580  10.540  71.173  1.00  0.00    -0.350 F  
HETATM   28  F   UNL     1     -12.642  11.016  69.290  1.00  0.00    -0.365 F  
HETATM   29  C   UNL     1     -12.970  15.311  72.080  1.00  0.00    -0.452 A  
HETATM   30  C   UNL     1     -12.867  14.238  72.948  1.00  0.00    -0.482 A  
ENDBRANCH  19  20
ENDBRANCH  13  19
BRANCH  18  31
HETATM   31  C   UNL     1      -8.064  11.432  67.905  1.00  0.00    -0.126 C  
BRANCH  31  32
HETATM   32  C   UNL     1      -7.924  10.874  66.451  1.00  0.00    -0.157 C  
BRANCH  32  33
HETATM   33  N   UNL     1      -8.663  11.657  65.423  1.00  0.00    -0.389 NA 
HETATM   34  H   UNL     1      -8.036  12.319  64.966  1.00  0.00     0.000 HD 
BRANCH  33  35
HETATM   35  C   UNL     1      -9.364  10.856  64.424  1.00  0.00    -0.224 C  
BRANCH  35  36
HETATM   36  C   UNL     1     -10.457  11.686  63.732  1.00  0.00    -0.454 C  
BRANCH  36  37
HETATM   37  C   UNL     1     -10.742  13.013  64.435  1.00  0.00    -0.414 C  
HETATM   38  O   UNL     1     -12.444  14.535  63.664  1.00  0.00    -0.782 OA 
HETATM   39  C   UNL     1     -12.156  13.489  64.225  1.00  0.00    -0.431 C  
HETATM   40  O   UNL     1     -13.089  12.677  64.766  1.00  0.00    -0.852 OA 
ENDBRANCH  36  37
ENDBRANCH  35  36
ENDBRANCH  33  35
ENDBRANCH  32  33
BRANCH  32  41
HETATM   41  C   UNL     1      -8.387   9.418  66.336  1.00  0.00    -0.116 A  
HETATM   42  C   UNL     1     -10.045   7.700  66.813  1.00  0.00    -0.325 A  
HETATM   43  C   UNL     1      -7.997   7.093  65.701  1.00  0.00    -0.126 A  
HETATM   44  C   UNL     1      -9.628   9.033  66.865  1.00  0.00    -0.242 A  
HETATM   45  C   UNL     1      -7.583   8.427  65.742  1.00  0.00    -0.085 A  
HETATM   46  C   UNL     1      -9.230   6.729  66.235  1.00  0.00    -0.161 A  
ENDBRANCH  32  41
ENDBRANCH  31  32
ENDBRANCH  18  31
ENDBRANCH   6  10
ENDBRANCH   2   3
TORSDOF 11
ENDMDL
MODEL       11
REMARK 921   NORMALIZED FREE ENERGY PREDICTED BY IDOCK:   -6.37 KCAL/MOL
REMARK 922        TOTAL FREE ENERGY PREDICTED BY IDOCK:  -13.53 KCAL/MOL
REMARK 923 INTER-LIGAND FREE ENERGY PREDICTED BY IDOCK:  -10.83 KCAL/MOL
REMARK 924 INTRA-LIGAND FREE ENERGY PREDICTED BY IDOCK:   -2.70 KCAL/MOL
REMARK 927      BINDING AFFINITY PREDICTED BY RF-SCORE:    0.00 PKD
ROOT
HETATM    1  C   UNL     1     -10.769   3.712  63.721  1.00  0.00    -0.261 C  
HETATM    2  O   UNL     1     -10.796   4.264  65.041  1.00  0.00    -0.253 OA 
ENDROOT
BRANCH   2   3
HETATM    3  C   UNL     1      -9.590   4.727  65.495  1.00  0.00    -0.161 A  
HETATM    4  C   UNL     1      -9.606   5.896  66.270  1.00  0.00    -0.119 A  
HETATM    5  F   UNL     1     -10.778   6.503  66.524  1.00  0.00    -0.300 F  
HETATM    6  C   UNL     1      -8.422   6.431  66.795  1.00  0.00    -0.112 A  
HETATM    7  C   UNL     1      -7.204   5.798  66.509  1.00  0.00    -0.074 A  
HETATM    8  C   UNL     1      -8.365   4.117  65.201  1.00  0.00    -0.109 A  
HETATM    9  C   UNL     1      -7.181   4.650  65.712  1.00  0.00    -0.076 A  
BRANCH   6  10
HETATM   10  C   UNL     1      -8.451   7.609  67.687  1.00  0.00    -0.117 C  
HETATM   11  C   UNL     1      -9.095   6.250  69.700  1.00  0.00    -0.142 C  
HETATM   12  C   UNL     1      -8.760   7.553  69.002  1.00  0.00    -0.136 C  
HETATM   13  N   UNL     1      -8.727   8.720  69.775  1.00  0.00    -0.129 N  
HETATM   14  C   UNL     1      -8.115   9.889  69.316  1.00  0.00    -0.128 C  
HETATM   15  C   UNL     1      -8.192   8.950  67.080  1.00  0.00    -0.106 C  
HETATM   16  O   UNL     1      -7.741  10.779  70.085  1.00  0.00     0.052 OA 
HETATM   17  O   UNL     1      -8.194   9.088  65.856  1.00  0.00    -0.111 OA 
HETATM   18  N   UNL     1      -7.947   9.989  67.951  1.00  0.00    -0.104 N  
BRANCH  13  19
HETATM   19  C   UNL     1      -9.195   8.759  71.166  1.00  0.00    -0.237 C  
BRANCH  19  20
HETATM   20  C   UNL     1     -10.699   8.857  71.395  1.00  0.00    -0.382 A  
HETATM   21  F   UNL     1     -10.714   6.785  74.230  1.00  0.00    -0.344 F  
HETATM   22  C   UNL     1     -10.857   6.715  72.879  1.00  0.00    -0.262 C  
HETATM   23  C   UNL     1     -11.395   8.005  72.289  1.00  0.00    -0.413 A  
HETATM   24  F   UNL     1     -10.835  10.742  69.942  1.00  0.00    -0.276 F  
HETATM   25  C   UNL     1     -12.714   8.347  72.678  1.00  0.00    -0.197 A  
HETATM   26  C   UNL     1     -11.409   9.945  70.852  1.00  0.00    -0.370 A  
HETATM   27  F   UNL     1     -11.709   5.674  72.650  1.00  0.00    -0.329 F  
HETATM   28  F   UNL     1      -9.660   6.298  72.397  1.00  0.00    -0.152 F  
HETATM   29  C   UNL     1     -12.722  10.244  71.218  1.00  0.00    -0.523 A  
HETATM   30  C   UNL     1     -13.367   9.462  72.160  1.00  0.00    -0.545 A  
ENDBRANCH  19  20
ENDBRANCH  13  19
BRANCH  18  31
HETATM   31  C   UNL     1      -7.509  11.277  67.399  1.00  0.00    -0.116 C  
BRANCH  31  32
HETATM   32  C   UNL     1      -8.654  12.296  67.092  1.00  0.00    -0.187 C  
BRANCH  32  33
HETATM   33  N   UNL     1      -9.083  12.320  65.667  1.00  0.00    -0.423 NA 
HETATM   34  H   UNL     1      -8.423  11.799  65.091  1.00  0.00     0.000 HD 
BRANCH  33  35
HETATM   35  C   UNL     1     -10.444  11.851  65.424  1.00  0.00    -0.270 C  
BRANCH  35  36
HETATM   36  C   UNL     1     -11.332  12.097  66.654  1.00  0.00    -0.405 C  
BRANCH  36  37
HETATM   37  C   UNL     1     -12.042  13.452  66.623  1.00  0.00    -0.429 C  
HETATM   38  O   UNL     1     -11.769  15.002  64.798  1.00  0.00    -0.396 OA 
HETATM   39  C   UNL     1     -12.253  13.964  65.222  1.00  0.00    -0.433 C  
HETATM   40  O   UNL     1     -13.079  13.195  64.481  1.00  0.00    -0.638 OA 
ENDBRANCH  36  37
ENDBRANCH  35  36
ENDBRANCH  33  35
ENDBRANCH  32  33
BRANCH  32  41
HETATM   41  C   UNL     1      -8.281  13.730  67.482  1.00  0.00    -0.194 A  
HETATM   42  C   UNL     1      -7.238  15.274  69.049  1.00  0.00    -0.151 A  
HETATM   43  C   UNL     1      -8.389  16.142  67.120  1.00  0.00    -0.225 A  
HETATM   44  C   UNL     1      -7.546  13.970  68.652  1.00  0.00    -0.130 A  
HETATM   45  C   UNL     1      -8.688  14.838  66.715  1.00  0.00    -0.255 A  
HETATM   46  C   UNL     1      -7.662  16.360  68.286  1.00  0.00    -0.162 A  
ENDBRANCH  32  41
ENDBRANCH  31  32
ENDBRANCH  18  31
ENDBRANCH   6  10
ENDBRANCH   2   3
TORSDOF 11
ENDMDL
MODEL       12
REMARK 921   NORMALIZED FREE ENERGY PREDICTED BY IDOCK:   -6.37 KCAL/MOL
REMARK 922        TOTAL FREE ENERGY PREDICTED BY IDOCK:  -13.52 KCAL/MOL
REMARK 923 INTER-LIGAND FREE ENERGY PREDICTED BY IDOCK:  -11.45 KCAL/MOL
REMARK 924 INTRA-LIGAND FREE ENERGY PREDICTED BY IDOCK:   -2.07 KCAL/MOL
REMARK 927      BINDING AFFINITY PREDICTED BY RF-SCORE:    0.00 PKD
ROOT
HETATM    1  C   UNL     1     -10.140  19.886  68.300  1.00  0.00    -0.447 C  
HETATM    2  O   UNL     1     -10.363  18.531  68.706  1.00  0.00    -0.338 OA 
ENDROOT
BRANCH   2   3
HETATM    3  C   UNL     1     -10.315  17.612  67.692  1.00  0.00    -0.368 A  
HETATM    4  C   UNL     1     -10.028  16.286  68.045  1.00  0.00    -0.240 A  
HETATM    5  F   UNL     1      -9.809  15.980  69.336  1.00  0.00    -0.213 F  
HETATM    6  C   UNL     1      -9.979  15.274  67.077  1.00  0.00    -0.235 A  
HETATM    7  C   UNL     1     -10.191  15.610  65.732  1.00  0.00    -0.391 A  
HETATM    8  C   UNL     1     -10.506  17.936  66.343  1.00  0.00    -0.318 A  
HETATM    9  C   UNL     1     -10.449  16.935  65.372  1.00  0.00    -0.172 A  
BRANCH   6  10
HETATM   10  C   UNL     1      -9.767  13.863  67.463  1.00  0.00    -0.232 C  
HETATM   11  C   UNL     1      -7.265  14.061  67.367  1.00  0.00    -0.117 C  
HETATM   12  C   UNL     1      -8.550  13.291  67.593  1.00  0.00    -0.196 C  
HETATM   13  N   UNL     1      -8.449  11.954  67.998  1.00  0.00    -0.154 N  
HETATM   14  C   UNL     1      -9.536  11.269  68.548  1.00  0.00    -0.191 C  
HETATM   15  C   UNL     1     -10.975  13.004  67.652  1.00  0.00    -0.254 C  
HETATM   16  O   UNL     1      -9.389  10.260  69.244  1.00  0.00    -0.193 OA 
HETATM   17  O   UNL     1     -12.079  13.393  67.268  1.00  0.00    -0.361 OA 
HETATM   18  N   UNL     1     -10.783  11.790  68.275  1.00  0.00    -0.204 N  
BRANCH  13  19
HETATM   19  C   UNL     1      -7.174  11.227  68.013  1.00  0.00    -0.079 C  
BRANCH  19  20
HETATM   20  C   UNL     1      -7.105   9.919  67.234  1.00  0.00    -0.085 A  
HETATM   21  F   UNL     1      -7.359   7.861  70.069  1.00  0.00    -0.064 F  
HETATM   22  C   UNL     1      -6.419   8.454  69.283  1.00  0.00    -0.039 C  
HETATM   23  C   UNL     1      -6.905   8.664  67.862  1.00  0.00    -0.067 A  
HETATM   24  F   UNL     1      -7.563  11.065  65.195  1.00  0.00    -0.016 F  
HETATM   25  C   UNL     1      -7.156   7.479  67.125  1.00  0.00    -0.085 A  
HETATM   26  C   UNL     1      -7.437   9.913  65.865  1.00  0.00    -0.108 A  
HETATM   27  F   UNL     1      -5.333   7.629  69.318  1.00  0.00    -0.015 F  
HETATM   28  F   UNL     1      -6.030   9.572  69.946  1.00  0.00    -0.034 F  
HETATM   29  C   UNL     1      -7.643   8.735  65.147  1.00  0.00    -0.096 A  
HETATM   30  C   UNL     1      -7.535   7.513  65.786  1.00  0.00    -0.079 A  
ENDBRANCH  19  20
ENDBRANCH  13  19
BRANCH  18  31
HETATM   31  C   UNL     1     -11.962  10.997  68.644  1.00  0.00    -0.177 C  
BRANCH  31  32
HETATM   32  C   UNL     1     -12.525  11.268  70.077  1.00  0.00    -0.182 C  
BRANCH  32  33
HETATM   33  N   UNL     1     -11.917  12.443  70.759  1.00  0.00    -0.458 NA 
HETATM   34  H   UNL     1     -11.011  12.662  70.345  1.00  0.00     0.000 HD 
BRANCH  33  35
HETATM   35  C   UNL     1     -12.756  13.638  70.794  1.00  0.00    -0.268 C  
BRANCH  35  36
HETATM   36  C   UNL     1     -13.494  13.744  72.137  1.00  0.00    -0.596 C  
BRANCH  36  37
HETATM   37  C   UNL     1     -13.895  15.177  72.493  1.00  0.00    -0.602 C  
HETATM   38  O   UNL     1     -12.922  16.357  74.355  1.00  0.00    -0.637 OA 
HETATM   39  C   UNL     1     -12.806  15.921  73.220  1.00  0.00    -0.556 C  
HETATM   40  O   UNL     1     -11.692  16.114  72.481  1.00  0.00    -0.483 OA 
ENDBRANCH  36  37
ENDBRANCH  35  36
ENDBRANCH  33  35
ENDBRANCH  32  33
BRANCH  32  41
HETATM   41  C   UNL     1     -12.357  10.063  71.008  1.00  0.00    -0.458 A  
HETATM   42  C   UNL     1     -10.902   8.563  72.258  1.00  0.00    -0.418 A  
HETATM   43  C   UNL     1     -13.274   8.150  72.217  1.00  0.00    -0.189 A  
HETATM   44  C   UNL     1     -11.079   9.688  71.448  1.00  0.00    -0.397 A  
HETATM   45  C   UNL     1     -13.455   9.282  71.417  1.00  0.00    -0.384 A  
HETATM   46  C   UNL     1     -11.998   7.791  72.640  1.00  0.00    -0.257 A  
ENDBRANCH  32  41
ENDBRANCH  31  32
ENDBRANCH  18  31
ENDBRANCH   6  10
ENDBRANCH   2   3
TORSDOF 11
ENDMDL
MODEL       13
REMARK 921   NORMALIZED FREE ENERGY PREDICTED BY IDOCK:   -6.37 KCAL/MOL
REMARK 922        TOTAL FREE ENERGY PREDICTED BY IDOCK:  -13.52 KCAL/MOL
REMARK 923 INTER-LIGAND FREE ENERGY PREDICTED BY IDOCK:  -11.51 KCAL/MOL
REMARK 924 INTRA-LIGAND FREE ENERGY PREDICTED BY IDOCK:   -2.01 KCAL/MOL
REMARK 927      BINDING AFFINITY PREDICTED BY RF-SCORE:    0.00 PKD
ROOT
HETATM    1  C   UNL     1      -8.116   3.418  65.526  1.00  0.00    -0.093 C  
HETATM    2  O   UNL     1      -7.761   3.707  66.882  1.00  0.00    -0.079 OA 
ENDROOT
BRANCH   2   3
HETATM    3  C   UNL     1      -7.420   5.011  67.122  1.00  0.00    -0.087 A  
HETATM    4  C   UNL     1      -8.366   5.806  67.786  1.00  0.00    -0.104 A  
HETATM    5  F   UNL     1      -9.544   5.267  68.146  1.00  0.00    -0.119 F  
HETATM    6  C   UNL     1      -8.096   7.146  68.092  1.00  0.00    -0.124 A  
HETATM    7  C   UNL     1      -6.871   7.701  67.696  1.00  0.00    -0.069 A  
HETATM    8  C   UNL     1      -6.209   5.583  66.716  1.00  0.00    -0.035 A  
HETATM    9  C   UNL     1      -5.937   6.920  67.008  1.00  0.00    -0.022 A  
BRANCH   6  10
HETATM   10  C   UNL     1      -9.056   7.955  68.873  1.00  0.00    -0.141 C  
HETATM   11  C   UNL     1      -8.181   7.129  71.078  1.00  0.00    -0.109 C  
HETATM   12  C   UNL     1      -9.118   7.957  70.223  1.00  0.00    -0.152 C  
HETATM   13  N   UNL     1     -10.040   8.785  70.876  1.00  0.00    -0.203 N  
HETATM   14  C   UNL     1     -10.703   9.818  70.207  1.00  0.00    -0.302 C  
HETATM   15  C   UNL     1     -10.062   8.762  68.118  1.00  0.00    -0.190 C  
HETATM   16  O   UNL     1     -11.206  10.771  70.809  1.00  0.00    -0.174 OA 
HETATM   17  O   UNL     1     -10.234   8.572  66.914  1.00  0.00    -0.261 OA 
HETATM   18  N   UNL     1     -10.757   9.714  68.833  1.00  0.00    -0.219 N  
BRANCH  13  19
HETATM   19  C   UNL     1     -10.266   8.726  72.325  1.00  0.00    -0.240 C  
BRANCH  19  20
HETATM   20  C   UNL     1     -10.598   7.366  72.927  1.00  0.00    -0.370 A  
HETATM   21  F   UNL     1     -12.743   6.392  70.323  1.00  0.00    -0.153 F  
HETATM   22  C   UNL     1     -12.777   7.010  71.535  1.00  0.00    -0.381 C  
HETATM   23  C   UNL     1     -11.654   6.553  72.447  1.00  0.00    -0.292 A  
HETATM   24  F   UNL     1      -8.748   7.535  74.421  1.00  0.00    -0.225 F  
HETATM   25  C   UNL     1     -11.710   5.193  72.843  1.00  0.00    -0.220 A  
HETATM   26  C   UNL     1      -9.719   6.797  73.870  1.00  0.00    -0.258 A  
HETATM   27  F   UNL     1     -13.998   6.715  72.067  1.00  0.00    -0.387 F  
HETATM   28  F   UNL     1     -12.822   8.341  71.274  1.00  0.00    -0.309 F  
HETATM   29  C   UNL     1      -9.812   5.466  74.276  1.00  0.00    -0.209 A  
HETATM   30  C   UNL     1     -10.791   4.650  73.736  1.00  0.00    -0.378 A  
ENDBRANCH  19  20
ENDBRANCH  13  19
BRANCH  18  31
HETATM   31  C   UNL     1     -11.618  10.650  68.101  1.00  0.00    -0.136 C  
BRANCH  31  32
HETATM   32  C   UNL     1     -10.894  11.909  67.521  1.00  0.00    -0.238 C  
BRANCH  32  33
HETATM   33  N   UNL     1     -11.553  13.200  67.856  1.00  0.00    -0.314 NA 
HETATM   34  H   UNL     1     -12.217  13.069  68.619  1.00  0.00     0.000 HD 
BRANCH  33  35
HETATM   35  C   UNL     1     -10.640  14.297  68.165  1.00  0.00    -0.245 C  
BRANCH  35  36
HETATM   36  C   UNL     1     -11.001  15.550  67.352  1.00  0.00    -0.306 C  
BRANCH  36  37
HETATM   37  C   UNL     1     -10.433  15.531  65.932  1.00  0.00    -0.356 C  
HETATM   38  O   UNL     1     -11.620  16.482  64.063  1.00  0.00    -1.154 OA 
HETATM   39  C   UNL     1     -10.965  16.653  65.079  1.00  0.00    -0.162 C  
HETATM   40  O   UNL     1     -10.606  17.881  65.511  1.00  0.00    -0.638 OA 
ENDBRANCH  36  37
ENDBRANCH  35  36
ENDBRANCH  33  35
ENDBRANCH  32  33
BRANCH  32  41
HETATM   41  C   UNL     1     -10.750  11.850  65.997  1.00  0.00    -0.326 A  
HETATM   42  C   UNL     1     -11.736  12.107  63.785  1.00  0.00    -0.576 A  
HETATM   43  C   UNL     1      -9.472  11.311  63.988  1.00  0.00    -0.202 A  
HETATM   44  C   UNL     1     -11.833  12.201  65.176  1.00  0.00    -0.356 A  
HETATM   45  C   UNL     1      -9.563  11.415  65.379  1.00  0.00    -0.255 A  
HETATM   46  C   UNL     1     -10.559  11.659  63.191  1.00  0.00    -0.341 A  
ENDBRANCH  32  41
ENDBRANCH  31  32
ENDBRANCH  18  31
ENDBRANCH   6  10
ENDBRANCH   2   3
TORSDOF 11
ENDMDL
MODEL       14
REMARK 921   NORMALIZED FREE ENERGY PREDICTED BY IDOCK:   -6.34 KCAL/MOL
REMARK 922        TOTAL FREE ENERGY PREDICTED BY IDOCK:  -13.48 KCAL/MOL
REMARK 923 INTER-LIGAND FREE ENERGY PREDICTED BY IDOCK:  -11.19 KCAL/MOL
REMARK 924 INTRA-LIGAND FREE ENERGY PREDICTED BY IDOCK:   -2.28 KCAL/MOL
REMARK 927      BINDING AFFINITY PREDICTED BY RF-SCORE:    0.00 PKD
ROOT
HETATM    1  C   UNL     1      -6.912   5.371  63.033  1.00  0.00    -0.037 C  
HETATM    2  O   UNL     1      -8.101   6.156  63.174  1.00  0.00    -0.118 OA 
ENDROOT
BRANCH   2   3
HETATM    3  C   UNL     1      -7.929   7.345  63.832  1.00  0.00    -0.082 A  
HETATM    4  C   UNL     1      -8.484   7.449  65.116  1.00  0.00    -0.022 A  
HETATM    5  F   UNL     1      -9.151   6.403  65.634  1.00  0.00    -0.159 F  
HETATM    6  C   UNL     1      -8.341   8.620  65.872  1.00  0.00    -0.140 A  
HETATM    7  C   UNL     1      -7.658   9.711  65.315  1.00  0.00    -0.113 A  
HETATM    8  C   UNL     1      -7.267   8.448  63.281  1.00  0.00    -0.093 A  
HETATM    9  C   UNL     1      -7.130   9.621  64.024  1.00  0.00    -0.116 A  
BRANCH   6  10
HETATM   10  C   UNL     1      -8.846   8.695  67.259  1.00  0.00    -0.141 C  
HETATM   11  C   UNL     1      -6.830   7.534  68.209  1.00  0.00    -0.063 C  
HETATM   12  C   UNL     1      -8.184   8.204  68.331  1.00  0.00    -0.129 C  
HETATM   13  N   UNL     1      -8.727   8.353  69.613  1.00  0.00    -0.132 N  
HETATM   14  C   UNL     1      -9.781   9.235  69.866  1.00  0.00    -0.201 C  
HETATM   15  C   UNL     1     -10.201   9.287  67.477  1.00  0.00    -0.242 C  
HETATM   16  O   UNL     1     -10.019   9.663  70.999  1.00  0.00    -0.247 OA 
HETATM   17  O   UNL     1     -10.954   9.479  66.522  1.00  0.00     0.069 OA 
HETATM   18  N   UNL     1     -10.538   9.604  68.775  1.00  0.00    -0.215 N  
BRANCH  13  19
HETATM   19  C   UNL     1      -8.141   7.715  70.798  1.00  0.00    -0.103 C  
BRANCH  19  20
HETATM   20  C   UNL     1      -8.730   6.379  71.236  1.00  0.00    -0.135 A  
HETATM   21  F   UNL     1     -11.412   7.792  73.009  1.00  0.00    -0.410 F  
HETATM   22  C   UNL     1     -10.134   7.367  73.203  1.00  0.00    -0.291 C  
HETATM   23  C   UNL     1      -9.736   6.274  72.229  1.00  0.00    -0.165 A  
HETATM   24  F   UNL     1      -7.419   5.227  69.614  1.00  0.00    -0.059 F  
HETATM   25  C   UNL     1     -10.444   5.053  72.365  1.00  0.00    -0.275 A  
HETATM   26  C   UNL     1      -8.412   5.215  70.510  1.00  0.00    -0.111 A  
HETATM   27  F   UNL     1     -10.083   6.924  74.492  1.00  0.00    -0.346 F  
HETATM   28  F   UNL     1      -9.363   8.484  73.186  1.00  0.00    -0.308 F  
HETATM   29  C   UNL     1      -9.095   4.011  70.684  1.00  0.00    -0.179 A  
HETATM   30  C   UNL     1     -10.138   3.938  71.591  1.00  0.00    -0.167 A  
ENDBRANCH  19  20
ENDBRANCH  13  19
BRANCH  18  31
HETATM   31  C   UNL     1     -11.779  10.353  69.012  1.00  0.00    -0.096 C  
BRANCH  31  32
HETATM   32  C   UNL     1     -11.639  11.909  68.963  1.00  0.00    -0.317 C  
BRANCH  32  33
HETATM   33  N   UNL     1     -10.235  12.392  68.855  1.00  0.00    -0.423 NA 
HETATM   34  H   UNL     1      -9.592  11.601  68.821  1.00  0.00     0.000 HD 
BRANCH  33  35
HETATM   35  C   UNL     1      -9.979  13.298  67.740  1.00  0.00    -0.223 C  
BRANCH  35  36
HETATM   36  C   UNL     1     -10.817  12.903  66.514  1.00  0.00    -0.290 C  
BRANCH  36  37
HETATM   37  C   UNL     1     -12.009  13.831  66.275  1.00  0.00    -0.462 C  
HETATM   38  O   UNL     1     -12.584  14.641  64.079  1.00  0.00    -0.819 OA 
HETATM   39  C   UNL     1     -12.561  13.717  64.878  1.00  0.00    -0.341 C  
HETATM   40  O   UNL     1     -13.086  12.505  64.599  1.00  0.00    -0.845 OA 
ENDBRANCH  36  37
ENDBRANCH  35  36
ENDBRANCH  33  35
ENDBRANCH  32  33
BRANCH  32  41
HETATM   41  C   UNL     1     -12.264  12.591  70.185  1.00  0.00    -0.307 A  
HETATM   42  C   UNL     1     -13.441  12.421  72.309  1.00  0.00    -0.428 A  
HETATM   43  C   UNL     1     -12.959  14.595  71.393  1.00  0.00    -0.404 A  
HETATM   44  C   UNL     1     -12.824  11.816  71.211  1.00  0.00    -0.409 A  
HETATM   45  C   UNL     1     -12.331  13.992  70.300  1.00  0.00    -0.425 A  
HETATM   46  C   UNL     1     -13.513  13.809  72.399  1.00  0.00    -0.672 A  
ENDBRANCH  32  41
ENDBRANCH  31  32
ENDBRANCH  18  31
ENDBRANCH   6  10
ENDBRANCH   2   3
TORSDOF 11
ENDMDL
MODEL       15
REMARK 921   NORMALIZED FREE ENERGY PREDICTED BY IDOCK:   -6.32 KCAL/MOL
REMARK 922        TOTAL FREE ENERGY PREDICTED BY IDOCK:  -13.44 KCAL/MOL
REMARK 923 INTER-LIGAND FREE ENERGY PREDICTED BY IDOCK:  -11.14 KCAL/MOL
REMARK 924 INTRA-LIGAND FREE ENERGY PREDICTED BY IDOCK:   -2.30 KCAL/MOL
REMARK 927      BINDING AFFINITY PREDICTED BY RF-SCORE:    0.00 PKD
ROOT
HETATM    1  C   UNL     1      -8.523   3.631  74.297  1.00  0.00    -0.088 C  
HETATM    2  O   UNL     1      -8.409   4.949  73.752  1.00  0.00    -0.105 OA 
ENDROOT
BRANCH   2   3
HETATM    3  C   UNL     1      -9.527   5.402  73.103  1.00  0.00    -0.142 A  
HETATM    4  C   UNL     1      -9.329   6.128  71.920  1.00  0.00    -0.150 A  
HETATM    5  F   UNL     1      -8.076   6.350  71.485  1.00  0.00    -0.107 F  
HETATM    6  C   UNL     1     -10.414   6.613  71.179  1.00  0.00    -0.247 A  
HETATM    7  C   UNL     1     -11.715   6.390  71.653  1.00  0.00    -0.367 A  
HETATM    8  C   UNL     1     -10.830   5.204  73.575  1.00  0.00    -0.360 A  
HETATM    9  C   UNL     1     -11.916   5.692  72.848  1.00  0.00    -0.010 A  
BRANCH   6  10
HETATM   10  C   UNL     1     -10.206   7.298  69.886  1.00  0.00    -0.210 C  
HETATM   11  C   UNL     1     -10.042   5.142  68.607  1.00  0.00    -0.220 C  
HETATM   12  C   UNL     1     -10.028   6.653  68.711  1.00  0.00    -0.144 C  
HETATM   13  N   UNL     1      -9.873   7.390  67.530  1.00  0.00    -0.149 N  
HETATM   14  C   UNL     1     -10.177   8.752  67.468  1.00  0.00    -0.246 C  
HETATM   15  C   UNL     1     -10.117   8.789  69.894  1.00  0.00    -0.191 C  
HETATM   16  O   UNL     1     -10.413   9.323  66.399  1.00  0.00    -0.208 OA 
HETATM   17  O   UNL     1      -9.983   9.398  70.956  1.00  0.00    -0.285 OA 
HETATM   18  N   UNL     1     -10.204   9.423  68.673  1.00  0.00    -0.194 N  
BRANCH  13  19
HETATM   19  C   UNL     1      -9.525   6.763  66.249  1.00  0.00    -0.067 C  
BRANCH  19  20
HETATM   20  C   UNL     1      -8.238   5.949  66.195  1.00  0.00    -0.116 A  
HETATM   21  F   UNL     1      -9.404   3.690  63.771  1.00  0.00    -0.111 F  
HETATM   22  C   UNL     1      -9.333   3.836  65.122  1.00  0.00    -0.157 C  
HETATM   23  C   UNL     1      -8.154   4.690  65.550  1.00  0.00    -0.107 A  
HETATM   24  F   UNL     1      -7.050   7.684  67.316  1.00  0.00    -0.075 F  
HETATM   25  C   UNL     1      -6.877   4.140  65.276  1.00  0.00    -0.053 A  
HETATM   26  C   UNL     1      -7.034   6.534  66.632  1.00  0.00    -0.067 A  
HETATM   27  F   UNL     1      -9.237   2.572  65.626  1.00  0.00    -0.143 F  
HETATM   28  F   UNL     1     -10.555   4.275  65.515  1.00  0.00    -0.254 F  
HETATM   29  C   UNL     1      -5.786   5.960  66.386  1.00  0.00    -0.017 A  
HETATM   30  C   UNL     1      -5.704   4.775  65.676  1.00  0.00    -0.018 A  
ENDBRANCH  19  20
ENDBRANCH  13  19
BRANCH  18  31
HETATM   31  C   UNL     1     -10.306  10.887  68.649  1.00  0.00    -0.191 C  
BRANCH  31  32
HETATM   32  C   UNL     1     -11.762  11.453  68.585  1.00  0.00    -0.329 C  
BRANCH  32  33
HETATM   33  N   UNL     1     -12.007  12.378  67.445  1.00  0.00    -0.520 NA 
HETATM   34  H   UNL     1     -12.548  13.184  67.756  1.00  0.00     0.000 HD 
BRANCH  33  35
HETATM   35  C   UNL     1     -10.808  12.818  66.739  1.00  0.00    -0.264 C  
BRANCH  35  36
HETATM   36  C   UNL     1     -10.824  14.341  66.537  1.00  0.00    -0.304 C  
BRANCH  36  37
HETATM   37  C   UNL     1     -10.445  14.765  65.118  1.00  0.00    -0.443 C  
HETATM   38  O   UNL     1     -11.650  16.478  63.925  1.00  0.00    -1.175 OA 
HETATM   39  C   UNL     1     -10.857  16.180  64.805  1.00  0.00    -0.262 C  
HETATM   40  O   UNL     1     -10.225  17.108  65.556  1.00  0.00    -0.592 OA 
ENDBRANCH  36  37
ENDBRANCH  35  36
ENDBRANCH  33  35
ENDBRANCH  32  33
BRANCH  32  41
HETATM   41  C   UNL     1     -12.158  12.193  69.867  1.00  0.00    -0.324 A  
HETATM   42  C   UNL     1     -13.189  12.165  72.073  1.00  0.00    -0.496 A  
HETATM   43  C   UNL     1     -12.375  14.245  71.173  1.00  0.00    -0.440 A  
HETATM   44  C   UNL     1     -12.777  11.497  70.916  1.00  0.00    -0.372 A  
HETATM   45  C   UNL     1     -11.952  13.577  70.020  1.00  0.00    -0.410 A  
HETATM   46  C   UNL     1     -12.992  13.538  72.200  1.00  0.00    -0.410 A  
ENDBRANCH  32  41
ENDBRANCH  31  32
ENDBRANCH  18  31
ENDBRANCH   6  10
ENDBRANCH   2   3
TORSDOF 11
ENDMDL
MODEL       16
REMARK 921   NORMALIZED FREE ENERGY PREDICTED BY IDOCK:   -6.32 KCAL/MOL
REMARK 922        TOTAL FREE ENERGY PREDICTED BY IDOCK:  -13.44 KCAL/MOL
REMARK 923 INTER-LIGAND FREE ENERGY PREDICTED BY IDOCK:  -11.67 KCAL/MOL
REMARK 924 INTRA-LIGAND FREE ENERGY PREDICTED BY IDOCK:   -1.77 KCAL/MOL
REMARK 927      BINDING AFFINITY PREDICTED BY RF-SCORE:    0.00 PKD
ROOT
HETATM    1  C   UNL     1      -8.029   3.256  65.418  1.00  0.00    -0.086 C  
HETATM    2  O   UNL     1      -8.475   3.842  66.646  1.00  0.00    -0.103 OA 
ENDROOT
BRANCH   2   3
HETATM    3  C   UNL     1      -8.069   5.134  66.847  1.00  0.00    -0.108 A  
HETATM    4  C   UNL     1      -8.925   5.964  67.585  1.00  0.00    -0.107 A  
HETATM    5  F   UNL     1     -10.086   5.468  68.049  1.00  0.00    -0.155 F  
HETATM    6  C   UNL     1      -8.584   7.295  67.858  1.00  0.00    -0.120 A  
HETATM    7  C   UNL     1      -7.380   7.805  67.353  1.00  0.00    -0.092 A  
HETATM    8  C   UNL     1      -6.880   5.662  66.333  1.00  0.00    -0.059 A  
HETATM    9  C   UNL     1      -6.537   6.990  66.591  1.00  0.00    -0.052 A  
BRANCH   6  10
HETATM   10  C   UNL     1      -9.444   8.140  68.713  1.00  0.00    -0.148 C  
HETATM   11  C   UNL     1      -8.456   7.241  70.842  1.00  0.00    -0.128 C  
HETATM   12  C   UNL     1      -9.409   8.127  70.065  1.00  0.00    -0.159 C  
HETATM   13  N   UNL     1     -10.239   8.990  70.790  1.00  0.00    -0.223 N  
HETATM   14  C   UNL     1     -10.895  10.064  70.182  1.00  0.00    -0.311 C  
HETATM   15  C   UNL     1     -10.459   9.006  68.042  1.00  0.00    -0.216 C  
HETATM   16  O   UNL     1     -11.306  11.032  70.827  1.00  0.00    -0.108 OA 
HETATM   17  O   UNL     1     -10.726   8.841  66.851  1.00  0.00    -0.240 OA 
HETATM   18  N   UNL     1     -11.053   9.981  68.814  1.00  0.00    -0.206 N  
BRANCH  13  19
HETATM   19  C   UNL     1     -10.363   8.923  72.252  1.00  0.00    -0.134 C  
BRANCH  19  20
HETATM   20  C   UNL     1     -10.654   7.560  72.867  1.00  0.00    -0.390 A  
HETATM   21  F   UNL     1     -12.737   6.479  70.255  1.00  0.00    -0.251 F  
HETATM   22  C   UNL     1     -12.805   7.111  71.458  1.00  0.00    -0.391 C  
HETATM   23  C   UNL     1     -11.676   6.704  72.387  1.00  0.00    -0.260 A  
HETATM   24  F   UNL     1      -8.826   7.811  74.377  1.00  0.00    -0.274 F  
HETATM   25  C   UNL     1     -11.688   5.348  72.799  1.00  0.00    -0.235 A  
HETATM   26  C   UNL     1      -9.765   7.033  73.825  1.00  0.00    -0.274 A  
HETATM   27  F   UNL     1     -14.020   6.780  71.982  1.00  0.00    -0.400 F  
HETATM   28  F   UNL     1     -12.894   8.436  71.180  1.00  0.00    -0.298 F  
HETATM   29  C   UNL     1      -9.816   5.705  74.247  1.00  0.00    -0.214 A  
HETATM   30  C   UNL     1     -10.760   4.848  73.708  1.00  0.00    -0.361 A  
ENDBRANCH  19  20
ENDBRANCH  13  19
BRANCH  18  31
HETATM   31  C   UNL     1     -11.916  10.969  68.155  1.00  0.00     0.017 C  
BRANCH  31  32
HETATM   32  C   UNL     1     -11.172  12.197  67.536  1.00  0.00    -0.297 C  
BRANCH  32  33
HETATM   33  N   UNL     1     -11.798  13.510  67.848  1.00  0.00    -0.358 NA 
HETATM   34  H   UNL     1     -12.814  13.437  67.794  1.00  0.00     0.000 HD 
BRANCH  33  35
HETATM   35  C   UNL     1     -11.402  14.094  69.126  1.00  0.00    -0.279 C  
BRANCH  35  36
HETATM   36  C   UNL     1     -12.612  14.220  70.065  1.00  0.00    -0.277 C  
BRANCH  36  37
HETATM   37  C   UNL     1     -12.224  14.282  71.542  1.00  0.00    -0.378 C  
HETATM   38  O   UNL     1     -13.607  15.372  73.188  1.00  0.00    -0.477 OA 
HETATM   39  C   UNL     1     -13.418  14.416  72.451  1.00  0.00    -0.462 C  
HETATM   40  O   UNL     1     -14.246  13.350  72.420  1.00  0.00    -0.637 OA 
ENDBRANCH  36  37
ENDBRANCH  35  36
ENDBRANCH  33  35
ENDBRANCH  32  33
BRANCH  32  41
HETATM   41  C   UNL     1     -11.050  12.099  66.012  1.00  0.00    -0.354 A  
HETATM   42  C   UNL     1     -12.070  12.292  63.809  1.00  0.00    -0.624 A  
HETATM   43  C   UNL     1      -9.799  11.514  63.998  1.00  0.00    -0.306 A  
HETATM   44  C   UNL     1     -12.147  12.422  65.198  1.00  0.00    -0.464 A  
HETATM   45  C   UNL     1      -9.870  11.654  65.387  1.00  0.00    -0.268 A  
HETATM   46  C   UNL     1     -10.899  11.835  63.209  1.00  0.00    -0.400 A  
ENDBRANCH  32  41
ENDBRANCH  31  32
ENDBRANCH  18  31
ENDBRANCH   6  10
ENDBRANCH   2   3
TORSDOF 11
ENDMDL
MODEL       17
REMARK 921   NORMALIZED FREE ENERGY PREDICTED BY IDOCK:   -6.31 KCAL/MOL
REMARK 922        TOTAL FREE ENERGY PREDICTED BY IDOCK:  -13.42 KCAL/MOL
REMARK 923 INTER-LIGAND FREE ENERGY PREDICTED BY IDOCK:  -11.21 KCAL/MOL
REMARK 924 INTRA-LIGAND FREE ENERGY PREDICTED BY IDOCK:   -2.21 KCAL/MOL
REMARK 927      BINDING AFFINITY PREDICTED BY RF-SCORE:    0.00 PKD
ROOT
HETATM    1  C   UNL     1     -11.340   3.534  73.282  1.00  0.00    -0.044 C  
HETATM    2  O   UNL     1     -11.947   4.824  73.163  1.00  0.00    -0.204 OA 
ENDROOT
BRANCH   2   3
HETATM    3  C   UNL     1     -11.066   5.868  73.065  1.00  0.00    -0.254 A  
HETATM    4  C   UNL     1     -10.927   6.469  71.806  1.00  0.00    -0.247 A  
HETATM    5  F   UNL     1     -11.644   6.002  70.768  1.00  0.00    -0.379 F  
HETATM    6  C   UNL     1     -10.064   7.557  71.615  1.00  0.00    -0.204 A  
HETATM    7  C   UNL     1      -9.309   8.023  72.701  1.00  0.00    -0.314 A  
HETATM    8  C   UNL     1     -10.292   6.331  74.134  1.00  0.00    -0.319 A  
HETATM    9  C   UNL     1      -9.423   7.408  73.951  1.00  0.00    -0.312 A  
BRANCH   6  10
HETATM   10  C   UNL     1      -9.988   8.247  70.310  1.00  0.00    -0.188 C  
HETATM   11  C   UNL     1      -8.530   6.471  69.293  1.00  0.00    -0.127 C  
HETATM   12  C   UNL     1      -9.295   7.779  69.249  1.00  0.00    -0.148 C  
HETATM   13  N   UNL     1      -9.311   8.487  68.040  1.00  0.00    -0.136 N  
HETATM   14  C   UNL     1     -10.239   9.503  67.796  1.00  0.00    -0.216 C  
HETATM   15  C   UNL     1     -10.662   9.574  70.184  1.00  0.00    -0.257 C  
HETATM   16  O   UNL     1     -10.523   9.869  66.652  1.00  0.00    -0.221 OA 
HETATM   17  O   UNL     1     -11.053  10.170  71.189  1.00  0.00    -0.291 OA 
HETATM   18  N   UNL     1     -10.824  10.070  68.908  1.00  0.00    -0.219 N  
BRANCH  13  19
HETATM   19  C   UNL     1      -8.463   8.121  66.899  1.00  0.00    -0.119 C  
BRANCH  19  20
HETATM   20  C   UNL     1      -7.234   8.984  66.635  1.00  0.00    -0.085 A  
HETATM   21  F   UNL     1      -8.838  11.112  64.348  1.00  0.00    -0.156 F  
HETATM   22  C   UNL     1      -8.107   9.964  64.379  1.00  0.00    -0.157 C  
HETATM   23  C   UNL     1      -7.166   9.912  65.567  1.00  0.00    -0.122 A  
HETATM   24  F   UNL     1      -6.158   8.108  68.573  1.00  0.00    -0.037 F  
HETATM   25  C   UNL     1      -6.133  10.883  65.566  1.00  0.00     0.004 A  
HETATM   26  C   UNL     1      -6.194   9.009  67.585  1.00  0.00    -0.055 A  
HETATM   27  F   UNL     1      -7.420   9.931  63.201  1.00  0.00    -0.115 F  
HETATM   28  F   UNL     1      -9.003   8.949  64.290  1.00  0.00    -0.192 F  
HETATM   29  C   UNL     1      -5.164   9.949  67.545  1.00  0.00    -0.035 A  
HETATM   30  C   UNL     1      -5.150  10.912  66.551  1.00  0.00    -0.081 A  
ENDBRANCH  19  20
ENDBRANCH  13  19
BRANCH  18  31
HETATM   31  C   UNL     1     -11.639  11.277  68.724  1.00  0.00    -0.316 C  
BRANCH  31  32
HETATM   32  C   UNL     1     -10.833  12.602  68.526  1.00  0.00    -0.252 C  
BRANCH  32  33
HETATM   33  N   UNL     1     -11.116  13.646  69.548  1.00  0.00    -0.436 NA 
HETATM   34  H   UNL     1     -10.270  14.177  69.753  1.00  0.00     0.000 HD 
BRANCH  33  35
HETATM   35  C   UNL     1     -12.211  14.552  69.217  1.00  0.00    -0.229 C  
BRANCH  35  36
HETATM   36  C   UNL     1     -12.731  15.260  70.477  1.00  0.00    -0.440 C  
BRANCH  36  37
HETATM   37  C   UNL     1     -12.106  14.730  71.768  1.00  0.00    -0.417 C  
HETATM   38  O   UNL     1     -12.849  15.448  73.945  1.00  0.00    -0.530 OA 
HETATM   39  C   UNL     1     -13.052  14.787  72.938  1.00  0.00    -0.499 C  
HETATM   40  O   UNL     1     -14.135  13.991  72.801  1.00  0.00    -0.636 OA 
ENDBRANCH  36  37
ENDBRANCH  35  36
ENDBRANCH  33  35
ENDBRANCH  32  33
BRANCH  32  41
HETATM   41  C   UNL     1     -11.073  13.232  67.150  1.00  0.00    -0.308 A  
HETATM   42  C   UNL     1     -10.361  14.749  65.384  1.00  0.00    -0.410 A  
HETATM   43  C   UNL     1     -12.467  13.600  65.180  1.00  0.00    -0.488 A  
HETATM   44  C   UNL     1     -10.135  14.128  66.615  1.00  0.00    -0.275 A  
HETATM   45  C   UNL     1     -12.238  12.968  66.406  1.00  0.00    -0.350 A  
HETATM   46  C   UNL     1     -11.527  14.489  64.668  1.00  0.00    -0.389 A  
ENDBRANCH  32  41
ENDBRANCH  31  32
ENDBRANCH  18  31
ENDBRANCH   6  10
ENDBRANCH   2   3
TORSDOF 11
ENDMDL
MODEL       18
REMARK 921   NORMALIZED FREE ENERGY PREDICTED BY IDOCK:   -6.25 KCAL/MOL
REMARK 922        TOTAL FREE ENERGY PREDICTED BY IDOCK:  -13.33 KCAL/MOL
REMARK 923 INTER-LIGAND FREE ENERGY PREDICTED BY IDOCK:  -10.87 KCAL/MOL
REMARK 924 INTRA-LIGAND FREE ENERGY PREDICTED BY IDOCK:   -2.46 KCAL/MOL
REMARK 927      BINDING AFFINITY PREDICTED BY RF-SCORE:    0.00 PKD
ROOT
HETATM    1  C   UNL     1     -10.814   6.118  73.370  1.00  0.00    -0.221 C  
HETATM    2  O   UNL     1     -10.864   7.530  73.599  1.00  0.00    -0.329 OA 
ENDROOT
BRANCH   2   3
HETATM    3  C   UNL     1     -11.616   8.233  72.695  1.00  0.00    -0.349 A  
HETATM    4  C   UNL     1     -10.923   8.999  71.747  1.00  0.00    -0.372 A  
HETATM    5  F   UNL     1      -9.579   9.017  71.768  1.00  0.00    -0.326 F  
HETATM    6  C   UNL     1     -11.609   9.734  70.771  1.00  0.00    -0.417 A  
HETATM    7  C   UNL     1     -13.011   9.722  70.771  1.00  0.00    -0.215 A  
HETATM    8  C   UNL     1     -13.015   8.245  72.695  1.00  0.00    -0.071 A  
HETATM    9  C   UNL     1     -13.706   8.983  71.733  1.00  0.00    -0.474 A  
BRANCH   6  10
HETATM   10  C   UNL     1     -10.876  10.466  69.717  1.00  0.00    -0.342 C  
HETATM   11  C   UNL     1     -11.792  12.696  70.425  1.00  0.00    -0.238 C  
HETATM   12  C   UNL     1     -10.949  11.804  69.537  1.00  0.00    -0.064 C  
HETATM   13  N   UNL     1     -10.189  12.413  68.531  1.00  0.00    -0.225 N  
HETATM   14  C   UNL     1      -9.143  11.742  67.891  1.00  0.00    -0.181 C  
HETATM   15  C   UNL     1     -10.061   9.667  68.752  1.00  0.00    -0.179 C  
HETATM   16  O   UNL     1      -8.241  12.345  67.302  1.00  0.00    -0.169 OA 
HETATM   17  O   UNL     1     -10.191   8.444  68.694  1.00  0.00    -0.194 OA 
HETATM   18  N   UNL     1      -9.173  10.365  67.962  1.00  0.00    -0.138 N  
BRANCH  13  19
HETATM   19  C   UNL     1     -10.334  13.832  68.181  1.00  0.00    -0.252 C  
BRANCH  19  20
HETATM   20  C   UNL     1     -11.032  14.160  66.867  1.00  0.00    -0.302 A  
HETATM   21  F   UNL     1      -8.483  16.265  65.681  1.00  0.00    -0.271 F  
HETATM   22  C   UNL     1      -9.645  16.319  66.388  1.00  0.00    -0.291 C  
HETATM   23  C   UNL     1     -10.602  15.204  66.010  1.00  0.00    -0.329 A  
HETATM   24  F   UNL     1     -12.530  12.330  67.163  1.00  0.00    -0.101 F  
HETATM   25  C   UNL     1     -11.098  15.254  64.683  1.00  0.00    -0.346 A  
HETATM   26  C   UNL     1     -12.025  13.289  66.378  1.00  0.00    -0.410 A  
HETATM   27  F   UNL     1     -10.183  17.544  66.123  1.00  0.00    -0.315 F  
HETATM   28  F   UNL     1      -9.284  16.371  67.695  1.00  0.00    -0.196 F  
HETATM   29  C   UNL     1     -12.529  13.376  65.080  1.00  0.00    -0.479 A  
HETATM   30  C   UNL     1     -12.040  14.342  64.217  1.00  0.00    -0.467 A  
ENDBRANCH  19  20
ENDBRANCH  13  19
BRANCH  18  31
HETATM   31  C   UNL     1      -8.227   9.608  67.134  1.00  0.00    -0.120 C  
BRANCH  31  32
HETATM   32  C   UNL     1      -8.870   8.781  65.974  1.00  0.00    -0.175 C  
BRANCH  32  33
HETATM   33  N   UNL     1      -8.126   7.540  65.624  1.00  0.00    -0.121 NA 
HETATM   34  H   UNL     1      -7.486   7.719  64.851  1.00  0.00     0.000 HD 
BRANCH  33  35
HETATM   35  C   UNL     1      -7.413   6.915  66.734  1.00  0.00    -0.082 C  
BRANCH  35  36
HETATM   36  C   UNL     1      -8.259   5.797  67.363  1.00  0.00    -0.102 C  
BRANCH  36  37
HETATM   37  C   UNL     1      -7.475   4.927  68.345  1.00  0.00    -0.074 C  
HETATM   38  O   UNL     1      -6.855   5.708  70.539  1.00  0.00    -0.048 OA 
HETATM   39  C   UNL     1      -7.724   5.305  69.782  1.00  0.00    -0.073 C  
HETATM   40  O   UNL     1      -8.998   5.105  70.183  1.00  0.00    -0.115 OA 
ENDBRANCH  36  37
ENDBRANCH  35  36
ENDBRANCH  33  35
ENDBRANCH  32  33
BRANCH  32  41
HETATM   41  C   UNL     1      -9.023   9.599  64.688  1.00  0.00    -0.274 A  
HETATM   42  C   UNL     1      -8.185  10.234  62.491  1.00  0.00    -0.176 A  
HETATM   43  C   UNL     1     -10.153  11.312  63.364  1.00  0.00    -0.445 A  
HETATM   44  C   UNL     1      -8.088   9.460  63.651  1.00  0.00    -0.154 A  
HETATM   45  C   UNL     1     -10.066  10.531  64.520  1.00  0.00    -0.402 A  
HETATM   46  C   UNL     1      -9.213  11.162  62.349  1.00  0.00    -0.244 A  
ENDBRANCH  32  41
ENDBRANCH  31  32
ENDBRANCH  18  31
ENDBRANCH   6  10
ENDBRANCH   2   3
TORSDOF 11
ENDMDL
MODEL       19
REMARK 921   NORMALIZED FREE ENERGY PREDICTED BY IDOCK:   -6.23 KCAL/MOL
REMARK 922        TOTAL FREE ENERGY PREDICTED BY IDOCK:  -13.30 KCAL/MOL
REMARK 923 INTER-LIGAND FREE ENERGY PREDICTED BY IDOCK:  -11.94 KCAL/MOL
REMARK 924 INTRA-LIGAND FREE ENERGY PREDICTED BY IDOCK:   -1.37 KCAL/MOL
REMARK 927      BINDING AFFINITY PREDICTED BY RF-SCORE:    0.00 PKD
ROOT
HETATM    1  C   UNL     1      -6.056   5.667  69.468  1.00  0.00    -0.025 C  
HETATM    2  O   UNL     1      -6.123   6.213  68.147  1.00  0.00    -0.022 OA 
ENDROOT
BRANCH   2   3
HETATM    3  C   UNL     1      -7.384   6.289  67.619  1.00  0.00    -0.084 A  
HETATM    4  C   UNL     1      -8.009   7.544  67.637  1.00  0.00    -0.117 A  
HETATM    5  F   UNL     1      -7.360   8.596  68.168  1.00  0.00    -0.084 F  
HETATM    6  C   UNL     1      -9.291   7.722  67.101  1.00  0.00    -0.185 A  
HETATM    7  C   UNL     1      -9.964   6.613  66.567  1.00  0.00    -0.148 A  
HETATM    8  C   UNL     1      -8.075   5.188  67.100  1.00  0.00    -0.104 A  
HETATM    9  C   UNL     1      -9.356   5.354  66.573  1.00  0.00    -0.150 A  
BRANCH   6  10
HETATM   10  C   UNL     1      -9.909   9.063  67.039  1.00  0.00    -0.270 C  
HETATM   11  C   UNL     1      -8.853   9.606  64.824  1.00  0.00    -0.242 C  
HETATM   12  C   UNL     1      -9.720   9.934  66.023  1.00  0.00    -0.247 C  
HETATM   13  N   UNL     1     -10.378  11.171  66.036  1.00  0.00    -0.248 N  
HETATM   14  C   UNL     1     -11.441  11.429  66.905  1.00  0.00    -0.119 C  
HETATM   15  C   UNL     1     -10.736   9.503  68.203  1.00  0.00    -0.197 C  
HETATM   16  O   UNL     1     -12.260  12.326  66.690  1.00  0.00    -0.574 OA 
HETATM   17  O   UNL     1     -10.702   8.875  69.261  1.00  0.00    -0.224 OA 
HETATM   18  N   UNL     1     -11.524  10.619  68.018  1.00  0.00    -0.283 N  
BRANCH  13  19
HETATM   19  C   UNL     1     -10.102  12.222  65.049  1.00  0.00    -0.253 C  
BRANCH  19  20
HETATM   20  C   UNL     1     -10.244  13.668  65.509  1.00  0.00    -0.316 A  
HETATM   21  F   UNL     1      -7.144  13.773  67.156  1.00  0.00    -0.173 F  
HETATM   22  C   UNL     1      -8.454  13.497  67.401  1.00  0.00    -0.200 C  
HETATM   23  C   UNL     1      -9.386  14.253  66.474  1.00  0.00    -0.292 A  
HETATM   24  F   UNL     1     -12.023  14.024  63.963  1.00  0.00    -0.438 F  
HETATM   25  C   UNL     1      -9.380  15.662  66.625  1.00  0.00    -0.291 A  
HETATM   26  C   UNL     1     -11.133  14.524  64.829  1.00  0.00    -0.391 A  
HETATM   27  F   UNL     1      -8.667  13.840  68.704  1.00  0.00    -0.170 F  
HETATM   28  F   UNL     1      -8.561  12.145  67.374  1.00  0.00    -0.146 F  
HETATM   29  C   UNL     1     -11.138  15.906  65.018  1.00  0.00    -0.370 A  
HETATM   30  C   UNL     1     -10.236  16.482  65.895  1.00  0.00    -0.368 A  
ENDBRANCH  19  20
ENDBRANCH  13  19
BRANCH  18  31
HETATM   31  C   UNL     1     -12.486  10.978  69.067  1.00  0.00     0.281 C  
BRANCH  31  32
HETATM   32  C   UNL     1     -11.855  11.498  70.400  1.00  0.00    -0.320 C  
BRANCH  32  33
HETATM   33  N   UNL     1     -12.071  10.601  71.567  1.00  0.00    -0.249 NA 
HETATM   34  H   UNL     1     -12.159  11.150  72.422  1.00  0.00     0.000 HD 
BRANCH  33  35
HETATM   35  C   UNL     1     -13.201   9.685  71.440  1.00  0.00    -0.389 C  
BRANCH  35  36
HETATM   36  C   UNL     1     -12.884   8.336  72.105  1.00  0.00    -0.348 C  
BRANCH  36  37
HETATM   37  C   UNL     1     -11.413   8.187  72.496  1.00  0.00    -0.470 C  
HETATM   38  O   UNL     1     -10.630   6.379  73.884  1.00  0.00    -0.295 OA 
HETATM   39  C   UNL     1     -11.034   6.761  72.796  1.00  0.00    -0.270 C  
HETATM   40  O   UNL     1     -11.128   5.938  71.729  1.00  0.00    -0.263 OA 
ENDBRANCH  36  37
ENDBRANCH  35  36
ENDBRANCH  33  35
ENDBRANCH  32  33
BRANCH  32  41
HETATM   41  C   UNL     1     -12.372  12.887  70.788  1.00  0.00    -0.385 A  
HETATM   42  C   UNL     1     -12.331  15.303  70.484  1.00  0.00    -0.434 A  
HETATM   43  C   UNL     1     -13.698  14.351  72.223  1.00  0.00    -0.569 A  
HETATM   44  C   UNL     1     -11.908  14.024  70.111  1.00  0.00    -0.377 A  
HETATM   45  C   UNL     1     -13.285  13.071  71.844  1.00  0.00    -0.527 A  
HETATM   46  C   UNL     1     -13.223  15.467  71.541  1.00  0.00    -0.589 A  
ENDBRANCH  32  41
ENDBRANCH  31  32
ENDBRANCH  18  31
ENDBRANCH   6  10
ENDBRANCH   2   3
TORSDOF 11
ENDMDL
MODEL       20
REMARK 921   NORMALIZED FREE ENERGY PREDICTED BY IDOCK:   -6.23 KCAL/MOL
REMARK 922        TOTAL FREE ENERGY PREDICTED BY IDOCK:  -13.29 KCAL/MOL
REMARK 923 INTER-LIGAND FREE ENERGY PREDICTED BY IDOCK:  -11.03 KCAL/MOL
REMARK 924 INTRA-LIGAND FREE ENERGY PREDICTED BY IDOCK:   -2.25 KCAL/MOL
REMARK 927      BINDING AFFINITY PREDICTED BY RF-SCORE:    0.00 PKD
ROOT
HETATM    1  C   UNL     1      -6.578   6.864  63.590  1.00  0.00    -0.043 C  
HETATM    2  O   UNL     1      -7.216   8.131  63.399  1.00  0.00    -0.084 OA 
ENDROOT
BRANCH   2   3
HETATM    3  C   UNL     1      -7.042   9.023  64.424  1.00  0.00    -0.090 A  
HETATM    4  C   UNL     1      -7.971   8.979  65.473  1.00  0.00    -0.106 A  
HETATM    5  F   UNL     1      -8.976   8.087  65.428  1.00  0.00    -0.177 F  
HETATM    6  C   UNL     1      -7.860   9.839  66.573  1.00  0.00    -0.109 A  
HETATM    7  C   UNL     1      -6.818  10.777  66.600  1.00  0.00    -0.125 A  
HETATM    8  C   UNL     1      -6.018   9.976  64.455  1.00  0.00    -0.121 A  
HETATM    9  C   UNL     1      -5.907  10.844  65.542  1.00  0.00    -0.051 A  
BRANCH   6  10
HETATM   10  C   UNL     1      -8.785   9.729  67.720  1.00  0.00    -0.129 C  
HETATM   11  C   UNL     1      -7.263   8.181  68.985  1.00  0.00    -0.074 C  
HETATM   12  C   UNL     1      -8.540   8.980  68.818  1.00  0.00    -0.132 C  
HETATM   13  N   UNL     1      -9.463   8.965  69.871  1.00  0.00    -0.165 N  
HETATM   14  C   UNL     1     -10.488   9.910  69.963  1.00  0.00    -0.284 C  
HETATM   15  C   UNL     1     -10.099  10.434  67.626  1.00  0.00    -0.188 C  
HETATM   16  O   UNL     1     -11.058  10.158  71.029  1.00  0.00    -0.323 OA 
HETATM   17  O   UNL     1     -10.487  10.882  66.546  1.00  0.00    -0.243 OA 
HETATM   18  N   UNL     1     -10.824  10.556  68.792  1.00  0.00    -0.215 N  
BRANCH  13  19
HETATM   19  C   UNL     1      -9.336   8.061  71.021  1.00  0.00    -0.149 C  
BRANCH  19  20
HETATM   20  C   UNL     1      -9.147   6.578  70.727  1.00  0.00    -0.154 A  
HETATM   21  F   UNL     1      -7.152   5.954  73.549  1.00  0.00    -0.080 F  
HETATM   22  C   UNL     1      -7.037   6.297  72.237  1.00  0.00    -0.083 C  
HETATM   23  C   UNL     1      -8.192   5.778  71.401  1.00  0.00    -0.126 A  
HETATM   24  F   UNL     1     -10.950   6.621  69.167  1.00  0.00    -0.243 F  
HETATM   25  C   UNL     1      -8.280   4.367  71.299  1.00  0.00    -0.084 A  
HETATM   26  C   UNL     1     -10.072   5.918  69.893  1.00  0.00    -0.198 A  
HETATM   27  F   UNL     1      -5.849   5.771  71.820  1.00  0.00    -0.022 F  
HETATM   28  F   UNL     1      -6.850   7.640  72.217  1.00  0.00    -0.053 F  
HETATM   29  C   UNL     1     -10.120   4.529  69.775  1.00  0.00    -0.177 A  
HETATM   30  C   UNL     1      -9.243   3.747  70.507  1.00  0.00    -0.210 A  
ENDBRANCH  19  20
ENDBRANCH  13  19
BRANCH  18  31
HETATM   31  C   UNL     1     -12.028  11.396  68.783  1.00  0.00    -0.287 C  
BRANCH  31  32
HETATM   32  C   UNL     1     -11.767  12.936  68.856  1.00  0.00    -0.327 C  
BRANCH  32  33
HETATM   33  N   UNL     1     -10.328  13.314  68.803  1.00  0.00    -0.388 NA 
HETATM   34  H   UNL     1      -9.745  12.478  68.779  1.00  0.00     0.000 HD 
BRANCH  33  35
HETATM   35  C   UNL     1      -9.967  14.212  67.710  1.00  0.00    -0.235 C  
BRANCH  35  36
HETATM   36  C   UNL     1     -11.128  14.352  66.714  1.00  0.00    -0.323 C  
BRANCH  36  37
HETATM   37  C   UNL     1     -10.665  14.633  65.284  1.00  0.00    -0.396 C  
HETATM   38  O   UNL     1     -11.674  16.345  63.921  1.00  0.00    -1.085 OA 
HETATM   39  C   UNL     1     -10.941  16.049  64.852  1.00  0.00    -0.384 C  
HETATM   40  O   UNL     1     -10.257  16.975  65.558  1.00  0.00    -0.589 OA 
ENDBRANCH  36  37
ENDBRANCH  35  36
ENDBRANCH  33  35
ENDBRANCH  32  33
BRANCH  32  41
HETATM   41  C   UNL     1     -12.360  13.570  70.119  1.00  0.00    -0.345 A  
HETATM   42  C   UNL     1     -13.559  13.328  72.224  1.00  0.00    -0.703 A  
HETATM   43  C   UNL     1     -12.946  15.526  71.457  1.00  0.00    -0.545 A  
HETATM   44  C   UNL     1     -12.970  12.762  71.090  1.00  0.00    -0.244 A  
HETATM   45  C   UNL     1     -12.346  14.962  70.327  1.00  0.00    -0.393 A  
HETATM   46  C   UNL     1     -13.551  14.709  72.406  1.00  0.00    -0.555 A  
ENDBRANCH  32  41
ENDBRANCH  31  32
ENDBRANCH  18  31
ENDBRANCH   6  10
ENDBRANCH   2   3
TORSDOF 11
ENDMDL
MODEL       21
REMARK 921   NORMALIZED FREE ENERGY PREDICTED BY IDOCK:   -6.20 KCAL/MOL
REMARK 922        TOTAL FREE ENERGY PREDICTED BY IDOCK:  -13.25 KCAL/MOL
REMARK 923 INTER-LIGAND FREE ENERGY PREDICTED BY IDOCK:  -10.37 KCAL/MOL
REMARK 924 INTRA-LIGAND FREE ENERGY PREDICTED BY IDOCK:   -2.87 KCAL/MOL
REMARK 927      BINDING AFFINITY PREDICTED BY RF-SCORE:    0.00 PKD
ROOT
HETATM    1  C   UNL     1     -12.427  13.172  63.332  1.00  0.00    -0.242 C  
HETATM    2  O   UNL     1     -11.153  12.530  63.456  1.00  0.00    -0.444 OA 
ENDROOT
BRANCH   2   3
HETATM    3  C   UNL     1     -10.518  12.738  64.651  1.00  0.00    -0.350 A  
HETATM    4  C   UNL     1     -10.309  11.617  65.467  1.00  0.00    -0.264 A  
HETATM    5  F   UNL     1     -10.739  10.411  65.053  1.00  0.00    -0.319 F  
HETATM    6  C   UNL     1      -9.650  11.731  66.698  1.00  0.00    -0.219 A  
HETATM    7  C   UNL     1      -9.223  12.996  67.126  1.00  0.00    -0.226 A  
HETATM    8  C   UNL     1     -10.103  13.998  65.100  1.00  0.00    -0.343 A  
HETATM    9  C   UNL     1      -9.455  14.121  66.329  1.00  0.00    -0.264 A  
BRANCH   6  10
HETATM   10  C   UNL     1      -9.350  10.534  67.512  1.00  0.00    -0.162 C  
HETATM   11  C   UNL     1      -7.592   9.711  65.918  1.00  0.00    -0.103 C  
HETATM   12  C   UNL     1      -8.430   9.604  67.176  1.00  0.00    -0.131 C  
HETATM   13  N   UNL     1      -8.191   8.520  68.031  1.00  0.00    -0.119 N  
HETATM   14  C   UNL     1      -8.655   8.508  69.349  1.00  0.00    -0.128 C  
HETATM   15  C   UNL     1     -10.166  10.308  68.744  1.00  0.00    -0.192 C  
HETATM   16  O   UNL     1      -8.157   7.780  70.212  1.00  0.00    -0.108 OA 
HETATM   17  O   UNL     1     -11.194  10.958  68.936  1.00  0.00    -0.224 OA 
HETATM   18  N   UNL     1      -9.701   9.361  69.631  1.00  0.00    -0.179 N  
BRANCH  13  19
HETATM   19  C   UNL     1      -7.320   7.398  67.659  1.00  0.00    -0.092 C  
BRANCH  19  20
HETATM   20  C   UNL     1      -7.995   6.090  67.265  1.00  0.00    -0.102 A  
HETATM   21  F   UNL     1      -7.760   4.647  70.458  1.00  0.00    -0.051 F  
HETATM   22  C   UNL     1      -7.072   4.722  69.287  1.00  0.00    -0.052 C  
HETATM   23  C   UNL     1      -7.983   4.941  68.095  1.00  0.00    -0.086 A  
HETATM   24  F   UNL     1      -8.823   7.079  65.260  1.00  0.00    -0.115 F  
HETATM   25  C   UNL     1      -8.876   3.877  67.809  1.00  0.00    -0.135 A  
HETATM   26  C   UNL     1      -8.824   6.058  66.126  1.00  0.00    -0.148 A  
HETATM   27  F   UNL     1      -6.393   3.543  69.181  1.00  0.00    -0.026 F  
HETATM   28  F   UNL     1      -6.111   5.661  69.478  1.00  0.00    -0.020 F  
HETATM   29  C   UNL     1      -9.668   4.985  65.841  1.00  0.00    -0.182 A  
HETATM   30  C   UNL     1      -9.720   3.904  66.703  1.00  0.00    -0.189 A  
ENDBRANCH  19  20
ENDBRANCH  13  19
BRANCH  18  31
HETATM   31  C   UNL     1     -10.365   9.237  70.934  1.00  0.00    -0.296 C  
BRANCH  31  32
HETATM   32  C   UNL     1     -11.394   8.065  71.048  1.00  0.00    -0.273 C  
BRANCH  32  33
HETATM   33  N   UNL     1     -12.798   8.506  71.273  1.00  0.00    -0.474 NA 
HETATM   34  H   UNL     1     -13.385   7.706  71.509  1.00  0.00     0.000 HD 
BRANCH  33  35
HETATM   35  C   UNL     1     -12.961   9.561  72.268  1.00  0.00    -0.384 C  
BRANCH  35  36
HETATM   36  C   UNL     1     -13.531  10.834  71.622  1.00  0.00    -0.246 C  
BRANCH  36  37
HETATM   37  C   UNL     1     -12.641  12.061  71.822  1.00  0.00    -0.142 C  
HETATM   38  O   UNL     1     -13.108  14.172  70.757  1.00  0.00    -0.321 OA 
HETATM   39  C   UNL     1     -13.385  13.356  71.622  1.00  0.00    -0.338 C  
HETATM   40  O   UNL     1     -14.364  13.566  72.529  1.00  0.00    -0.713 OA 
ENDBRANCH  36  37
ENDBRANCH  35  36
ENDBRANCH  33  35
ENDBRANCH  32  33
BRANCH  32  41
HETATM   41  C   UNL     1     -11.039   7.082  72.169  1.00  0.00    -0.279 A  
HETATM   42  C   UNL     1     -11.384   4.935  73.265  1.00  0.00    -0.408 A  
HETATM   43  C   UNL     1      -9.859   6.528  74.233  1.00  0.00    -0.337 A  
HETATM   44  C   UNL     1     -11.659   5.825  72.223  1.00  0.00    -0.300 A  
HETATM   45  C   UNL     1     -10.124   7.414  73.186  1.00  0.00    -0.342 A  
HETATM   46  C   UNL     1     -10.488   5.287  74.272  1.00  0.00    -0.304 A  
ENDBRANCH  32  41
ENDBRANCH  31  32
ENDBRANCH  18  31
ENDBRANCH   6  10
ENDBRANCH   2   3
TORSDOF 11
ENDMDL
MODEL       22
REMARK 921   NORMALIZED FREE ENERGY PREDICTED BY IDOCK:   -6.19 KCAL/MOL
REMARK 922        TOTAL FREE ENERGY PREDICTED BY IDOCK:  -13.22 KCAL/MOL
REMARK 923 INTER-LIGAND FREE ENERGY PREDICTED BY IDOCK:  -11.57 KCAL/MOL
REMARK 924 INTRA-LIGAND FREE ENERGY PREDICTED BY IDOCK:   -1.65 KCAL/MOL
REMARK 927      BINDING AFFINITY PREDICTED BY RF-SCORE:    0.00 PKD
ROOT
HETATM    1  C   UNL     1     -10.899   3.484  63.926  1.00  0.00    -0.171 C  
HETATM    2  O   UNL     1     -10.885   4.212  65.158  1.00  0.00    -0.193 OA 
ENDROOT
BRANCH   2   3
HETATM    3  C   UNL     1      -9.699   4.831  65.447  1.00  0.00    -0.123 A  
HETATM    4  C   UNL     1      -9.766   6.046  66.145  1.00  0.00    -0.017 A  
HETATM    5  F   UNL     1     -10.967   6.544  66.488  1.00  0.00    -0.346 F  
HETATM    6  C   UNL     1      -8.602   6.740  66.501  1.00  0.00    -0.128 A  
HETATM    7  C   UNL     1      -7.356   6.219  66.121  1.00  0.00    -0.080 A  
HETATM    8  C   UNL     1      -8.450   4.333  65.058  1.00  0.00    -0.117 A  
HETATM    9  C   UNL     1      -7.287   5.024  65.400  1.00  0.00    -0.072 A  
BRANCH   6  10
HETATM   10  C   UNL     1      -8.671   7.971  67.316  1.00  0.00    -0.132 C  
HETATM   11  C   UNL     1      -9.041   6.707  69.455  1.00  0.00    -0.144 C  
HETATM   12  C   UNL     1      -8.876   7.981  68.652  1.00  0.00    -0.134 C  
HETATM   13  N   UNL     1      -8.892   9.198  69.344  1.00  0.00    -0.141 N  
HETATM   14  C   UNL     1      -8.422  10.380  68.765  1.00  0.00    -0.132 C  
HETATM   15  C   UNL     1      -8.578   9.283  66.606  1.00  0.00    -0.127 C  
HETATM   16  O   UNL     1      -8.074  11.349  69.444  1.00  0.00     0.096 OA 
HETATM   17  O   UNL     1      -8.682   9.333  65.380  1.00  0.00    -0.156 OA 
HETATM   18  N   UNL     1      -8.364  10.398  67.387  1.00  0.00    -0.121 N  
BRANCH  13  19
HETATM   19  C   UNL     1      -9.258   9.295  70.763  1.00  0.00    -0.253 C  
BRANCH  19  20
HETATM   20  C   UNL     1     -10.743   9.262  71.105  1.00  0.00    -0.403 A  
HETATM   21  F   UNL     1     -10.340   7.384  74.045  1.00  0.00    -0.371 F  
HETATM   22  C   UNL     1     -10.574   7.215  72.715  1.00  0.00    -0.268 C  
HETATM   23  C   UNL     1     -11.281   8.406  72.098  1.00  0.00    -0.431 A  
HETATM   24  F   UNL     1     -11.175  11.028  69.563  1.00  0.00    -0.241 F  
HETATM   25  C   UNL     1     -12.597   8.643  72.571  1.00  0.00    -0.367 A  
HETATM   26  C   UNL     1     -11.598  10.240  70.559  1.00  0.00    -0.338 A  
HETATM   27  F   UNL     1     -11.331   6.084  72.614  1.00  0.00    -0.281 F  
HETATM   28  F   UNL     1      -9.380   6.885  72.164  1.00  0.00    -0.141 F  
HETATM   29  C   UNL     1     -12.903  10.434  71.011  1.00  0.00    -0.494 A  
HETATM   30  C   UNL     1     -13.395   9.655  72.044  1.00  0.00    -0.547 A  
ENDBRANCH  19  20
ENDBRANCH  13  19
BRANCH  18  31
HETATM   31  C   UNL     1      -8.085  11.676  66.721  1.00  0.00    -0.150 C  
BRANCH  31  32
HETATM   32  C   UNL     1      -9.254  12.713  66.752  1.00  0.00    -0.225 C  
BRANCH  32  33
HETATM   33  N   UNL     1      -9.976  12.780  68.051  1.00  0.00    -0.219 NA 
HETATM   34  H   UNL     1      -9.511  12.193  68.743  1.00  0.00     0.000 HD 
BRANCH  33  35
HETATM   35  C   UNL     1     -10.168  14.127  68.581  1.00  0.00    -0.238 C  
BRANCH  35  36
HETATM   36  C   UNL     1     -11.198  14.121  69.722  1.00  0.00    -0.205 C  
BRANCH  36  37
HETATM   37  C   UNL     1     -12.193  15.279  69.642  1.00  0.00    -0.304 C  
HETATM   38  O   UNL     1     -14.021  15.510  71.195  1.00  0.00    -0.547 OA 
HETATM   39  C   UNL     1     -12.823  15.595  70.973  1.00  0.00    -0.463 C  
HETATM   40  O   UNL     1     -11.946  16.040  71.898  1.00  0.00    -0.447 OA 
ENDBRANCH  36  37
ENDBRANCH  35  36
ENDBRANCH  33  35
ENDBRANCH  32  33
BRANCH  32  41
HETATM   41  C   UNL     1     -10.298  12.449  65.662  1.00  0.00    -0.284 A  
HETATM   42  C   UNL     1     -10.824  11.899  63.349  1.00  0.00    -0.469 A  
HETATM   43  C   UNL     1     -12.611  12.400  64.883  1.00  0.00    -0.372 A  
HETATM   44  C   UNL     1      -9.888  12.096  64.368  1.00  0.00    -0.154 A  
HETATM   45  C   UNL     1     -11.678  12.586  65.906  1.00  0.00    -0.480 A  
HETATM   46  C   UNL     1     -12.184  12.054  63.604  1.00  0.00    -0.642 A  
ENDBRANCH  32  41
ENDBRANCH  31  32
ENDBRANCH  18  31
ENDBRANCH   6  10
ENDBRANCH   2   3
TORSDOF 11
ENDMDL
MODEL       23
REMARK 921   NORMALIZED FREE ENERGY PREDICTED BY IDOCK:   -6.14 KCAL/MOL
REMARK 922        TOTAL FREE ENERGY PREDICTED BY IDOCK:  -13.15 KCAL/MOL
REMARK 923 INTER-LIGAND FREE ENERGY PREDICTED BY IDOCK:  -11.54 KCAL/MOL
REMARK 924 INTRA-LIGAND FREE ENERGY PREDICTED BY IDOCK:   -1.61 KCAL/MOL
REMARK 927      BINDING AFFINITY PREDICTED BY RF-SCORE:    0.00 PKD
ROOT
HETATM    1  C   UNL     1     -10.104   4.843  69.211  1.00  0.00    -0.178 C  
HETATM    2  O   UNL     1     -11.258   5.640  69.497  1.00  0.00    -0.249 OA 
ENDROOT
BRANCH   2   3
HETATM    3  C   UNL     1     -11.025   6.721  70.304  1.00  0.00    -0.291 A  
HETATM    4  C   UNL     1     -10.552   7.888  69.688  1.00  0.00    -0.234 A  
HETATM    5  F   UNL     1     -10.344   7.895  68.359  1.00  0.00    -0.201 F  
HETATM    6  C   UNL     1     -10.304   9.049  70.432  1.00  0.00    -0.253 A  
HETATM    7  C   UNL     1     -10.507   9.024  71.819  1.00  0.00    -0.418 A  
HETATM    8  C   UNL     1     -11.205   6.704  71.692  1.00  0.00    -0.306 A  
HETATM    9  C   UNL     1     -10.952   7.853  72.442  1.00  0.00    -0.386 A  
BRANCH   6  10
HETATM   10  C   UNL     1      -9.894  10.304  69.768  1.00  0.00    -0.201 C  
HETATM   11  C   UNL     1      -7.508   9.558  69.513  1.00  0.00    -0.092 C  
HETATM   12  C   UNL     1      -8.634  10.559  69.350  1.00  0.00    -0.086 C  
HETATM   13  N   UNL     1      -8.348  11.765  68.698  1.00  0.00    -0.121 N  
HETATM   14  C   UNL     1      -9.360  12.592  68.205  1.00  0.00    -0.195 C  
HETATM   15  C   UNL     1     -10.920  11.379  69.613  1.00  0.00    -0.110 C  
HETATM   16  O   UNL     1      -9.151  13.430  67.324  1.00  0.00    -0.203 OA 
HETATM   17  O   UNL     1     -11.986  11.311  70.226  1.00  0.00    -0.325 OA 
HETATM   18  N   UNL     1     -10.611  12.414  68.758  1.00  0.00    -0.214 N  
BRANCH  13  19
HETATM   19  C   UNL     1      -6.980  12.172  68.355  1.00  0.00    -0.078 C  
BRANCH  19  20
HETATM   20  C   UNL     1      -6.201  12.959  69.403  1.00  0.00    -0.114 A  
HETATM   21  F   UNL     1      -7.347  16.104  68.343  1.00  0.00    -0.127 F  
HETATM   22  C   UNL     1      -6.320  15.237  68.134  1.00  0.00    -0.128 C  
HETATM   23  C   UNL     1      -6.045  14.366  69.346  1.00  0.00    -0.107 A  
HETATM   24  F   UNL     1      -5.820  10.972  70.664  1.00  0.00    -0.105 F  
HETATM   25  C   UNL     1      -5.581  15.054  70.495  1.00  0.00    -0.140 A  
HETATM   26  C   UNL     1      -5.773  12.307  70.576  1.00  0.00    -0.161 A  
HETATM   27  F   UNL     1      -5.239  16.010  67.826  1.00  0.00    -0.103 F  
HETATM   28  F   UNL     1      -6.615  14.577  66.986  1.00  0.00    -0.039 F  
HETATM   29  C   UNL     1      -5.283  12.999  71.684  1.00  0.00    -0.126 A  
HETATM   30  C   UNL     1      -5.217  14.381  71.657  1.00  0.00    -0.170 A  
ENDBRANCH  19  20
ENDBRANCH  13  19
BRANCH  18  31
HETATM   31  C   UNL     1     -11.657  13.392  68.436  1.00  0.00    -0.332 C  
BRANCH  31  32
HETATM   32  C   UNL     1     -11.549  14.757  69.190  1.00  0.00    -0.303 C  
BRANCH  32  33
HETATM   33  N   UNL     1     -10.177  15.334  69.213  1.00  0.00    -0.238 NA 
HETATM   34  H   UNL     1      -9.529  14.722  68.719  1.00  0.00     0.000 HD 
BRANCH  33  35
HETATM   35  C   UNL     1     -10.072  16.697  68.701  1.00  0.00    -0.270 C  
BRANCH  35  36
HETATM   36  C   UNL     1     -10.742  16.813  67.323  1.00  0.00    -0.213 C  
BRANCH  36  37
HETATM   37  C   UNL     1      -9.880  16.262  66.186  1.00  0.00    -0.358 C  
HETATM   38  O   UNL     1     -10.714  14.635  64.616  1.00  0.00    -0.393 OA 
HETATM   39  C   UNL     1     -10.699  15.789  65.013  1.00  0.00    -0.421 C  
HETATM   40  O   UNL     1     -11.385  16.776  64.396  1.00  0.00    -1.089 OA 
ENDBRANCH  36  37
ENDBRANCH  35  36
ENDBRANCH  33  35
ENDBRANCH  32  33
BRANCH  32  41
HETATM   41  C   UNL     1     -12.030  14.663  70.641  1.00  0.00    -0.380 A  
HETATM   42  C   UNL     1     -13.746  14.024  72.246  1.00  0.00    -0.646 A  
HETATM   43  C   UNL     1     -11.760  15.143  73.020  1.00  0.00    -0.394 A  
HETATM   44  C   UNL     1     -13.270  14.075  70.933  1.00  0.00    -0.245 A  
HETATM   45  C   UNL     1     -11.276  15.185  71.709  1.00  0.00    -0.299 A  
HETATM   46  C   UNL     1     -12.994  14.560  73.289  1.00  0.00    -0.500 A  
ENDBRANCH  32  41
ENDBRANCH  31  32
ENDBRANCH  18  31
ENDBRANCH   6  10
ENDBRANCH   2   3
TORSDOF 11
ENDMDL
MODEL       24
REMARK 921   NORMALIZED FREE ENERGY PREDICTED BY IDOCK:   -6.13 KCAL/MOL
REMARK 922        TOTAL FREE ENERGY PREDICTED BY IDOCK:  -13.13 KCAL/MOL
REMARK 923 INTER-LIGAND FREE ENERGY PREDICTED BY IDOCK:  -12.01 KCAL/MOL
REMARK 924 INTRA-LIGAND FREE ENERGY PREDICTED BY IDOCK:   -1.12 KCAL/MOL
REMARK 927      BINDING AFFINITY PREDICTED BY RF-SCORE:    0.00 PKD
ROOT
HETATM    1  C   UNL     1      -6.537   4.204  69.301  1.00  0.00    -0.040 C  
HETATM    2  O   UNL     1      -7.694   4.942  69.710  1.00  0.00    -0.055 OA 
ENDROOT
BRANCH   2   3
HETATM    3  C   UNL     1      -7.469   6.269  69.964  1.00  0.00    -0.087 A  
HETATM    4  C   UNL     1      -8.287   7.194  69.299  1.00  0.00    -0.133 A  
HETATM    5  F   UNL     1      -9.234   6.749  68.453  1.00  0.00    -0.127 F  
HETATM    6  C   UNL     1      -8.143   8.571  69.512  1.00  0.00    -0.111 A  
HETATM    7  C   UNL     1      -7.141   9.023  70.382  1.00  0.00    -0.065 A  
HETATM    8  C   UNL     1      -6.460   6.735  70.814  1.00  0.00    -0.051 A  
HETATM    9  C   UNL     1      -6.304   8.106  71.024  1.00  0.00    -0.037 A  
BRANCH   6  10
HETATM   10  C   UNL     1      -9.067   9.538  68.882  1.00  0.00    -0.141 C  
HETATM   11  C   UNL     1      -7.608   9.831  66.857  1.00  0.00    -0.095 C  
HETATM   12  C   UNL     1      -8.842  10.126  67.686  1.00  0.00    -0.125 C  
HETATM   13  N   UNL     1      -9.794  11.004  67.153  1.00  0.00    -0.181 N  
HETATM   14  C   UNL     1     -11.092  11.081  67.665  1.00  0.00    -0.300 C  
HETATM   15  C   UNL     1     -10.285   9.938  69.648  1.00  0.00    -0.237 C  
HETATM   16  O   UNL     1     -12.031  11.537  67.006  1.00  0.00    -0.556 OA 
HETATM   17  O   UNL     1     -10.386   9.660  70.843  1.00  0.00    -0.300 OA 
HETATM   18  N   UNL     1     -11.265  10.610  68.949  1.00  0.00    -0.256 N  
BRANCH  13  19
HETATM   19  C   UNL     1      -9.549  11.792  65.938  1.00  0.00    -0.230 C  
BRANCH  19  20
HETATM   20  C   UNL     1     -10.062  13.227  65.920  1.00  0.00    -0.296 A  
HETATM   21  F   UNL     1      -7.279  14.570  67.587  1.00  0.00    -0.129 F  
HETATM   22  C   UNL     1      -8.514  14.062  67.848  1.00  0.00    -0.170 C  
HETATM   23  C   UNL     1      -9.475  14.260  66.692  1.00  0.00    -0.302 A  
HETATM   24  F   UNL     1     -11.682  12.666  64.263  1.00  0.00    -0.351 F  
HETATM   25  C   UNL     1      -9.801  15.608  66.398  1.00  0.00    -0.295 A  
HETATM   26  C   UNL     1     -11.033  13.599  64.969  1.00  0.00    -0.346 A  
HETATM   27  F   UNL     1      -8.949  14.705  68.969  1.00  0.00    -0.181 F  
HETATM   28  F   UNL     1      -8.314  12.778  68.238  1.00  0.00    -0.147 F  
HETATM   29  C   UNL     1     -11.368  14.930  64.720  1.00  0.00    -0.400 A  
HETATM   30  C   UNL     1     -10.726  15.942  65.413  1.00  0.00    -0.415 A  
ENDBRANCH  19  20
ENDBRANCH  13  19
BRANCH  18  31
HETATM   31  C   UNL     1     -12.551  10.860  69.612  1.00  0.00    -0.007 C  
BRANCH  31  32
HETATM   32  C   UNL     1     -12.454  11.333  71.099  1.00  0.00    -0.373 C  
BRANCH  32  33
HETATM   33  N   UNL     1     -13.407  10.654  72.018  1.00  0.00    -0.515 NA 
HETATM   34  H   UNL     1     -14.349  10.676  71.629  1.00  0.00     0.000 HD 
BRANCH  33  35
HETATM   35  C   UNL     1     -13.045   9.287  72.382  1.00  0.00    -0.406 C  
BRANCH  35  36
HETATM   36  C   UNL     1     -14.236   8.337  72.180  1.00  0.00    -0.460 C  
BRANCH  36  37
HETATM   37  C   UNL     1     -13.938   7.194  71.210  1.00  0.00    -0.295 C  
HETATM   38  O   UNL     1     -11.713   6.742  70.402  1.00  0.00    -0.361 OA 
HETATM   39  C   UNL     1     -12.520   6.695  71.317  1.00  0.00    -0.228 C  
HETATM   40  O   UNL     1     -12.231   6.135  72.511  1.00  0.00    -0.178 OA 
ENDBRANCH  36  37
ENDBRANCH  35  36
ENDBRANCH  33  35
ENDBRANCH  32  33
BRANCH  32  41
HETATM   41  C   UNL     1     -12.673  12.842  71.248  1.00  0.00    -0.364 A  
HETATM   42  C   UNL     1     -13.797  14.701  72.348  1.00  0.00    -0.580 A  
HETATM   43  C   UNL     1     -12.306  15.140  70.509  1.00  0.00    -0.408 A  
HETATM   44  C   UNL     1     -13.548  13.331  72.230  1.00  0.00    -0.703 A  
HETATM   45  C   UNL     1     -12.046  13.771  70.396  1.00  0.00    -0.421 A  
HETATM   46  C   UNL     1     -13.180  15.605  71.486  1.00  0.00    -0.555 A  
ENDBRANCH  32  41
ENDBRANCH  31  32
ENDBRANCH  18  31
ENDBRANCH   6  10
ENDBRANCH   2   3
TORSDOF 11
ENDMDL
MODEL       25
REMARK 921   NORMALIZED FREE ENERGY PREDICTED BY IDOCK:   -6.12 KCAL/MOL
REMARK 922        TOTAL FREE ENERGY PREDICTED BY IDOCK:  -13.11 KCAL/MOL
REMARK 923 INTER-LIGAND FREE ENERGY PREDICTED BY IDOCK:  -11.45 KCAL/MOL
REMARK 924 INTRA-LIGAND FREE ENERGY PREDICTED BY IDOCK:   -1.67 KCAL/MOL
REMARK 927      BINDING AFFINITY PREDICTED BY RF-SCORE:    0.00 PKD
ROOT
HETATM    1  C   UNL     1     -11.929  16.077  72.625  1.00  0.00    -0.541 C  
HETATM    2  O   UNL     1     -12.087  15.455  71.346  1.00  0.00    -0.307 OA 
ENDROOT
BRANCH   2   3
HETATM    3  C   UNL     1     -12.464  14.139  71.389  1.00  0.00    -0.359 A  
HETATM    4  C   UNL     1     -11.856  13.270  70.472  1.00  0.00    -0.134 A  
HETATM    5  F   UNL     1     -10.952  13.756  69.603  1.00  0.00    -0.238 F  
HETATM    6  C   UNL     1     -12.165  11.903  70.456  1.00  0.00    -0.426 A  
HETATM    7  C   UNL     1     -13.122  11.412  71.356  1.00  0.00    -0.377 A  
HETATM    8  C   UNL     1     -13.432  13.639  72.268  1.00  0.00    -0.652 A  
HETATM    9  C   UNL     1     -13.752  12.280  72.252  1.00  0.00    -0.193 A  
BRANCH   6  10
HETATM   10  C   UNL     1     -11.455  10.974  69.552  1.00  0.00    -0.370 C  
HETATM   11  C   UNL     1     -10.867   9.387  71.408  1.00  0.00    -0.430 C  
HETATM   12  C   UNL     1     -10.854   9.835  69.960  1.00  0.00    -0.278 C  
HETATM   13  N   UNL     1     -10.235   8.999  69.022  1.00  0.00    -0.200 N  
HETATM   14  C   UNL     1     -10.456   9.145  67.650  1.00  0.00    -0.261 C  
HETATM   15  C   UNL     1     -11.337  11.358  68.112  1.00  0.00    -0.304 C  
HETATM   16  O   UNL     1     -10.246   8.227  66.851  1.00  0.00    -0.268 OA 
HETATM   17  O   UNL     1     -11.608  12.504  67.751  1.00  0.00    -0.303 OA 
HETATM   18  N   UNL     1     -10.929  10.373  67.239  1.00  0.00    -0.274 N  
BRANCH  13  19
HETATM   19  C   UNL     1      -9.437   7.830  69.411  1.00  0.00    -0.156 C  
BRANCH  19  20
HETATM   20  C   UNL     1      -7.947   7.864  69.091  1.00  0.00    -0.118 A  
HETATM   21  F   UNL     1      -8.198   5.832  66.237  1.00  0.00    -0.103 F  
HETATM   22  C   UNL     1      -7.977   5.738  67.577  1.00  0.00    -0.102 C  
HETATM   23  C   UNL     1      -7.346   6.994  68.147  1.00  0.00    -0.097 A  
HETATM   24  F   UNL     1      -7.637   9.720  70.553  1.00  0.00    -0.136 F  
HETATM   25  C   UNL     1      -6.038   7.282  67.682  1.00  0.00    -0.042 A  
HETATM   26  C   UNL     1      -7.156   8.912  69.602  1.00  0.00    -0.054 A  
HETATM   27  F   UNL     1      -7.161   4.657  67.741  1.00  0.00    -0.059 F  
HETATM   28  F   UNL     1      -9.161   5.368  68.126  1.00  0.00    -0.109 F  
HETATM   29  C   UNL     1      -5.856   9.156  69.159  1.00  0.00    -0.036 A  
HETATM   30  C   UNL     1      -5.305   8.359  68.171  1.00  0.00    -0.034 A  
ENDBRANCH  19  20
ENDBRANCH  13  19
BRANCH  18  31
HETATM   31  C   UNL     1     -10.975  10.652  65.798  1.00  0.00     0.161 C  
BRANCH  31  32
HETATM   32  C   UNL     1      -9.724  11.390  65.221  1.00  0.00    -0.241 C  
BRANCH  32  33
HETATM   33  N   UNL     1     -10.025  12.309  64.090  1.00  0.00    -0.520 NA 
HETATM   34  H   UNL     1      -9.258  12.306  63.419  1.00  0.00     0.000 HD 
BRANCH  33  35
HETATM   35  C   UNL     1     -11.291  12.054  63.409  1.00  0.00    -0.397 C  
BRANCH  35  36
HETATM   36  C   UNL     1     -12.172  13.313  63.410  1.00  0.00    -0.476 C  
BRANCH  36  37
HETATM   37  C   UNL     1     -12.075  14.115  64.709  1.00  0.00    -0.454 C  
HETATM   38  O   UNL     1     -10.451  15.869  65.016  1.00  0.00    -0.518 OA 
HETATM   39  C   UNL     1     -11.491  15.488  64.501  1.00  0.00    -0.308 C  
HETATM   40  O   UNL     1     -12.253  16.292  63.728  1.00  0.00    -0.923 OA 
ENDBRANCH  36  37
ENDBRANCH  35  36
ENDBRANCH  33  35
ENDBRANCH  32  33
BRANCH  32  41
HETATM   41  C   UNL     1      -8.641  10.417  64.743  1.00  0.00    -0.190 A  
HETATM   42  C   UNL     1      -6.340   9.625  64.841  1.00  0.00    -0.090 A  
HETATM   43  C   UNL     1      -7.865   8.641  63.258  1.00  0.00    -0.151 A  
HETATM   44  C   UNL     1      -7.354  10.471  65.299  1.00  0.00    -0.059 A  
HETATM   45  C   UNL     1      -8.883   9.479  63.722  1.00  0.00    -0.238 A  
HETATM   46  C   UNL     1      -6.593   8.713  63.819  1.00  0.00    -0.084 A  
ENDBRANCH  32  41
ENDBRANCH  31  32
ENDBRANCH  18  31
ENDBRANCH   6  10
ENDBRANCH   2   3
TORSDOF 11
ENDMDL
MODEL       26
REMARK 921   NORMALIZED FREE ENERGY PREDICTED BY IDOCK:   -6.12 KCAL/MOL
REMARK 922        TOTAL FREE ENERGY PREDICTED BY IDOCK:  -13.11 KCAL/MOL
REMARK 923 INTER-LIGAND FREE ENERGY PREDICTED BY IDOCK:   -9.41 KCAL/MOL
REMARK 924 INTRA-LIGAND FREE ENERGY PREDICTED BY IDOCK:   -3.70 KCAL/MOL
REMARK 927      BINDING AFFINITY PREDICTED BY RF-SCORE:    0.00 PKD
ROOT
HETATM    1  C   UNL     1      -9.540  16.699  66.397  1.00  0.00    -0.285 C  
HETATM    2  O   UNL     1      -9.249  15.471  65.722  1.00  0.00    -0.317 OA 
ENDROOT
BRANCH   2   3
HETATM    3  C   UNL     1     -10.273  14.562  65.715  1.00  0.00    -0.335 A  
HETATM    4  C   UNL     1     -10.056  13.352  66.388  1.00  0.00    -0.292 A  
HETATM    5  F   UNL     1      -8.875  13.136  66.993  1.00  0.00    -0.195 F  
HETATM    6  C   UNL     1     -11.055  12.371  66.451  1.00  0.00    -0.343 A  
HETATM    7  C   UNL     1     -12.275  12.600  65.801  1.00  0.00    -0.427 A  
HETATM    8  C   UNL     1     -11.489  14.770  65.054  1.00  0.00    -0.389 A  
HETATM    9  C   UNL     1     -12.485  13.794  65.104  1.00  0.00    -0.483 A  
BRANCH   6  10
HETATM   10  C   UNL     1     -10.857  11.135  67.238  1.00  0.00    -0.326 C  
HETATM   11  C   UNL     1     -11.298  12.287  69.427  1.00  0.00    -0.294 C  
HETATM   12  C   UNL     1     -10.955  11.075  68.585  1.00  0.00    -0.224 C  
HETATM   13  N   UNL     1     -10.785   9.850  69.241  1.00  0.00    -0.216 N  
HETATM   14  C   UNL     1     -10.802   8.636  68.548  1.00  0.00     0.053 C  
HETATM   15  C   UNL     1     -10.457   9.897  66.503  1.00  0.00    -0.143 C  
HETATM   16  O   UNL     1     -11.034   7.563  69.111  1.00  0.00    -0.138 OA 
HETATM   17  O   UNL     1     -10.078   9.965  65.334  1.00  0.00    -0.313 OA 
HETATM   18  N   UNL     1     -10.549   8.708  67.194  1.00  0.00    -0.282 N  
BRANCH  13  19
HETATM   19  C   UNL     1     -10.726   9.738  70.704  1.00  0.00    -0.326 C  
BRANCH  19  20
HETATM   20  C   UNL     1      -9.530   9.006  71.302  1.00  0.00    -0.339 A  
HETATM   21  F   UNL     1     -11.378   6.215  72.365  1.00  0.00    -0.274 F  
HETATM   22  C   UNL     1     -10.948   7.424  72.818  1.00  0.00    -0.339 C  
HETATM   23  C   UNL     1      -9.667   7.872  72.141  1.00  0.00    -0.257 A  
HETATM   24  F   UNL     1      -8.023  10.440  70.137  1.00  0.00    -0.165 F  
HETATM   25  C   UNL     1      -8.528   7.071  72.406  1.00  0.00    -0.122 A  
HETATM   26  C   UNL     1      -8.232   9.337  70.867  1.00  0.00    -0.132 A  
HETATM   27  F   UNL     1     -10.771   7.273  74.162  1.00  0.00    -0.369 F  
HETATM   28  F   UNL     1     -12.006   8.265  72.698  1.00  0.00    -0.416 F  
HETATM   29  C   UNL     1      -7.116   8.557  71.170  1.00  0.00    -0.073 A  
HETATM   30  C   UNL     1      -7.268   7.400  71.914  1.00  0.00    -0.067 A  
ENDBRANCH  19  20
ENDBRANCH  13  19
BRANCH  18  31
HETATM   31  C   UNL     1     -10.344   7.454  66.460  1.00  0.00    -0.038 C  
BRANCH  31  32
HETATM   32  C   UNL     1      -8.881   6.902  66.478  1.00  0.00    -0.140 C  
BRANCH  32  33
HETATM   33  N   UNL     1      -8.382   6.453  65.149  1.00  0.00    -0.218 NA 
HETATM   34  H   UNL     1      -9.039   6.722  64.417  1.00  0.00     0.000 HD 
BRANCH  33  35
HETATM   35  C   UNL     1      -7.036   6.907  64.810  1.00  0.00    -0.060 C  
BRANCH  35  36
HETATM   36  C   UNL     1      -7.008   8.431  64.620  1.00  0.00    -0.073 C  
BRANCH  36  37
HETATM   37  C   UNL     1      -5.855   9.109  65.360  1.00  0.00    -0.054 C  
HETATM   38  O   UNL     1      -5.775  11.493  65.703  1.00  0.00    -0.062 OA 
HETATM   39  C   UNL     1      -6.260  10.412  65.998  1.00  0.00    -0.110 C  
HETATM   40  O   UNL     1      -7.181  10.274  66.976  1.00  0.00    -0.088 OA 
ENDBRANCH  36  37
ENDBRANCH  35  36
ENDBRANCH  33  35
ENDBRANCH  32  33
BRANCH  32  41
HETATM   41  C   UNL     1      -8.709   5.731  67.450  1.00  0.00    -0.107 A  
HETATM   42  C   UNL     1      -9.412   3.536  68.236  1.00  0.00    -0.210 A  
HETATM   43  C   UNL     1      -7.677   4.717  69.416  1.00  0.00    -0.063 A  
HETATM   44  C   UNL     1      -9.521   4.593  67.329  1.00  0.00    -0.173 A  
HETATM   45  C   UNL     1      -7.775   5.771  68.503  1.00  0.00    -0.093 A  
HETATM   46  C   UNL     1      -8.494   3.599  69.282  1.00  0.00    -0.096 A  
ENDBRANCH  32  41
ENDBRANCH  31  32
ENDBRANCH  18  31
ENDBRANCH   6  10
ENDBRANCH   2   3
TORSDOF 11
ENDMDL
MODEL       27
REMARK 921   NORMALIZED FREE ENERGY PREDICTED BY IDOCK:   -6.08 KCAL/MOL
REMARK 922        TOTAL FREE ENERGY PREDICTED BY IDOCK:  -13.04 KCAL/MOL
REMARK 923 INTER-LIGAND FREE ENERGY PREDICTED BY IDOCK:  -11.41 KCAL/MOL
REMARK 924 INTRA-LIGAND FREE ENERGY PREDICTED BY IDOCK:   -1.63 KCAL/MOL
REMARK 927      BINDING AFFINITY PREDICTED BY RF-SCORE:    0.00 PKD
ROOT
HETATM    1  C   UNL     1      -8.432   3.370  65.251  1.00  0.00    -0.100 C  
HETATM    2  O   UNL     1      -8.560   3.844  66.595  1.00  0.00    -0.107 OA 
ENDROOT
BRANCH   2   3
HETATM    3  C   UNL     1      -8.133   5.129  66.795  1.00  0.00    -0.108 A  
HETATM    4  C   UNL     1      -8.974   5.974  67.534  1.00  0.00    -0.111 A  
HETATM    5  F   UNL     1     -10.142   5.498  68.001  1.00  0.00    -0.155 F  
HETATM    6  C   UNL     1      -8.610   7.299  67.806  1.00  0.00    -0.120 A  
HETATM    7  C   UNL     1      -7.398   7.789  67.298  1.00  0.00    -0.092 A  
HETATM    8  C   UNL     1      -6.935   5.637  66.278  1.00  0.00    -0.060 A  
HETATM    9  C   UNL     1      -6.570   6.959  66.536  1.00  0.00    -0.052 A  
BRANCH   6  10
HETATM   10  C   UNL     1      -9.454   8.158  68.662  1.00  0.00    -0.147 C  
HETATM   11  C   UNL     1      -8.483   7.239  70.789  1.00  0.00    -0.132 C  
HETATM   12  C   UNL     1      -9.419   8.143  70.014  1.00  0.00    -0.167 C  
HETATM   13  N   UNL     1     -10.233   9.020  70.740  1.00  0.00    -0.223 N  
HETATM   14  C   UNL     1     -10.869  10.107  70.133  1.00  0.00    -0.311 C  
HETATM   15  C   UNL     1     -10.453   9.044  67.992  1.00  0.00    -0.216 C  
HETATM   16  O   UNL     1     -11.262  11.082  70.780  1.00  0.00     0.018 OA 
HETATM   17  O   UNL     1     -10.722   8.886  66.801  1.00  0.00    -0.198 OA 
HETATM   18  N   UNL     1     -11.028  10.029  68.766  1.00  0.00    -0.220 N  
BRANCH  13  19
HETATM   19  C   UNL     1     -10.359   8.954  72.202  1.00  0.00    -0.243 C  
BRANCH  19  20
HETATM   20  C   UNL     1     -10.688   7.597  72.814  1.00  0.00    -0.401 A  
HETATM   21  F   UNL     1     -12.710   6.536  70.146  1.00  0.00    -0.195 F  
HETATM   22  C   UNL     1     -12.803   7.174  71.345  1.00  0.00    -0.384 C  
HETATM   23  C   UNL     1     -11.709   6.755  72.308  1.00  0.00    -0.300 A  
HETATM   24  F   UNL     1      -8.902   7.829  74.375  1.00  0.00    -0.274 F  
HETATM   25  C   UNL     1     -11.754   5.401  72.725  1.00  0.00    -0.235 A  
HETATM   26  C   UNL     1      -9.836   7.062  73.800  1.00  0.00    -0.303 A  
HETATM   27  F   UNL     1     -14.038   6.864  71.834  1.00  0.00    -0.438 F  
HETATM   28  F   UNL     1     -12.864   8.499  71.059  1.00  0.00    -0.262 F  
HETATM   29  C   UNL     1      -9.919   5.737  74.226  1.00  0.00    -0.252 A  
HETATM   30  C   UNL     1     -10.860   4.892  73.663  1.00  0.00    -0.374 A  
ENDBRANCH  19  20
ENDBRANCH  13  19
BRANCH  18  31
HETATM   31  C   UNL     1     -11.872  11.034  68.107  1.00  0.00    -0.118 C  
BRANCH  31  32
HETATM   32  C   UNL     1     -11.099  12.172  67.366  1.00  0.00    -0.276 C  
BRANCH  32  33
HETATM   33  N   UNL     1      -9.719  11.802  66.951  1.00  0.00    -0.195 NA 
HETATM   34  H   UNL     1      -9.387  11.008  67.498  1.00  0.00     0.000 HD 
BRANCH  33  35
HETATM   35  C   UNL     1      -9.553  11.534  65.525  1.00  0.00    -0.227 C  
BRANCH  35  36
HETATM   36  C   UNL     1     -10.026  12.733  64.689  1.00  0.00    -0.158 C  
BRANCH  36  37
HETATM   37  C   UNL     1     -10.902  12.332  63.501  1.00  0.00    -0.508 C  
HETATM   38  O   UNL     1     -13.283  12.025  63.708  1.00  0.00    -0.723 OA 
HETATM   39  C   UNL     1     -12.330  12.786  63.654  1.00  0.00    -0.463 C  
HETATM   40  O   UNL     1     -12.474  14.129  63.671  1.00  0.00    -0.819 OA 
ENDBRANCH  36  37
ENDBRANCH  35  36
ENDBRANCH  33  35
ENDBRANCH  32  33
BRANCH  32  41
HETATM   41  C   UNL     1     -10.997  13.451  68.203  1.00  0.00    -0.277 A  
HETATM   42  C   UNL     1     -12.030  15.059  69.712  1.00  0.00    -0.366 A  
HETATM   43  C   UNL     1      -9.792  15.451  68.916  1.00  0.00    -0.216 A  
HETATM   44  C   UNL     1     -12.088  13.870  68.980  1.00  0.00    -0.365 A  
HETATM   45  C   UNL     1      -9.842  14.256  68.193  1.00  0.00    -0.226 A  
HETATM   46  C   UNL     1     -10.885  15.851  69.678  1.00  0.00    -0.314 A  
ENDBRANCH  32  41
ENDBRANCH  31  32
ENDBRANCH  18  31
ENDBRANCH   6  10
ENDBRANCH   2   3
TORSDOF 11
ENDMDL
MODEL       28
REMARK 921   NORMALIZED FREE ENERGY PREDICTED BY IDOCK:   -6.07 KCAL/MOL
REMARK 922        TOTAL FREE ENERGY PREDICTED BY IDOCK:  -13.03 KCAL/MOL
REMARK 923 INTER-LIGAND FREE ENERGY PREDICTED BY IDOCK:   -9.77 KCAL/MOL
REMARK 924 INTRA-LIGAND FREE ENERGY PREDICTED BY IDOCK:   -3.26 KCAL/MOL
REMARK 927      BINDING AFFINITY PREDICTED BY RF-SCORE:    0.00 PKD
ROOT
HETATM    1  C   UNL     1      -9.902  16.831  66.195  1.00  0.00    -0.309 C  
HETATM    2  O   UNL     1      -9.637  15.760  65.282  1.00  0.00    -0.331 OA 
ENDROOT
BRANCH   2   3
HETATM    3  C   UNL     1     -10.568  14.755  65.291  1.00  0.00    -0.395 A  
HETATM    4  C   UNL     1     -10.227  13.575  65.968  1.00  0.00    -0.305 A  
HETATM    5  F   UNL     1      -9.024  13.479  66.562  1.00  0.00    -0.230 F  
HETATM    6  C   UNL     1     -11.123  12.501  66.047  1.00  0.00    -0.329 A  
HETATM    7  C   UNL     1     -12.367  12.606  65.408  1.00  0.00    -0.499 A  
HETATM    8  C   UNL     1     -11.805  14.838  64.642  1.00  0.00    -0.442 A  
HETATM    9  C   UNL     1     -12.700  13.770  64.707  1.00  0.00    -0.259 A  
BRANCH   6  10
HETATM   10  C   UNL     1     -10.798  11.296  66.838  1.00  0.00    -0.333 C  
HETATM   11  C   UNL     1     -11.701  12.275  68.968  1.00  0.00    -0.376 C  
HETATM   12  C   UNL     1     -11.043  11.174  68.162  1.00  0.00    -0.264 C  
HETATM   13  N   UNL     1     -10.731   9.978  68.820  1.00  0.00    -0.215 N  
HETATM   14  C   UNL     1     -10.441   8.806  68.116  1.00  0.00    -0.191 C  
HETATM   15  C   UNL     1     -10.093  10.177  66.144  1.00  0.00    -0.246 C  
HETATM   16  O   UNL     1     -10.538   7.690  68.634  1.00  0.00    -0.195 OA 
HETATM   17  O   UNL     1      -9.595  10.351  65.032  1.00  0.00    -0.231 OA 
HETATM   18  N   UNL     1     -10.046   8.968  66.805  1.00  0.00    -0.256 N  
BRANCH  13  19
HETATM   19  C   UNL     1     -10.828   9.829  70.277  1.00  0.00    -0.301 C  
BRANCH  19  20
HETATM   20  C   UNL     1      -9.649   9.182  70.994  1.00  0.00    -0.350 A  
HETATM   21  F   UNL     1     -11.478   6.422  72.165  1.00  0.00    -0.278 F  
HETATM   22  C   UNL     1     -11.108   7.675  72.547  1.00  0.00    -0.336 C  
HETATM   23  C   UNL     1      -9.803   8.111  71.909  1.00  0.00    -0.276 A  
HETATM   24  F   UNL     1      -8.118  10.570  69.807  1.00  0.00    -0.164 F  
HETATM   25  C   UNL     1      -8.660   7.368  72.297  1.00  0.00    -0.135 A  
HETATM   26  C   UNL     1      -8.337   9.520  70.607  1.00  0.00    -0.112 A  
HETATM   27  F   UNL     1     -11.004   7.631  73.907  1.00  0.00    -0.294 F  
HETATM   28  F   UNL     1     -12.180   8.471  72.305  1.00  0.00    -0.358 F  
HETATM   29  C   UNL     1      -7.220   8.799  71.030  1.00  0.00    -0.088 A  
HETATM   30  C   UNL     1      -7.384   7.698  71.851  1.00  0.00    -0.070 A  
ENDBRANCH  19  20
ENDBRANCH  13  19
BRANCH  18  31
HETATM   31  C   UNL     1      -9.527   7.797  66.087  1.00  0.00    -0.065 C  
BRANCH  31  32
HETATM   32  C   UNL     1      -8.036   7.437  66.388  1.00  0.00    -0.118 C  
BRANCH  32  33
HETATM   33  N   UNL     1      -7.765   7.105  67.814  1.00  0.00    -0.110 NA 
HETATM   34  H   UNL     1      -8.627   7.150  68.356  1.00  0.00     0.000 HD 
BRANCH  33  35
HETATM   35  C   UNL     1      -7.099   5.824  68.033  1.00  0.00    -0.071 C  
BRANCH  35  36
HETATM   36  C   UNL     1      -7.728   5.081  69.222  1.00  0.00    -0.075 C  
BRANCH  36  37
HETATM   37  C   UNL     1      -9.156   4.607  68.950  1.00  0.00    -0.163 C  
HETATM   38  O   UNL     1      -9.958   4.162  66.722  1.00  0.00    -0.218 OA 
HETATM   39  C   UNL     1      -9.273   3.818  67.672  1.00  0.00    -0.174 C  
HETATM   40  O   UNL     1      -8.587   2.655  67.687  1.00  0.00    -0.086 OA 
ENDBRANCH  36  37
ENDBRANCH  35  36
ENDBRANCH  33  35
ENDBRANCH  32  33
BRANCH  32  41
HETATM   41  C   UNL     1      -7.072   8.558  65.989  1.00  0.00    -0.076 A  
HETATM   42  C   UNL     1      -5.863  10.591  66.568  1.00  0.00    -0.075 A  
HETATM   43  C   UNL     1      -5.731   9.734  64.322  1.00  0.00    -0.090 A  
HETATM   44  C   UNL     1      -6.703   9.534  66.928  1.00  0.00    -0.072 A  
HETATM   45  C   UNL     1      -6.562   8.669  64.682  1.00  0.00    -0.066 A  
HETATM   46  C   UNL     1      -5.380  10.694  65.265  1.00  0.00    -0.145 A  
ENDBRANCH  32  41
ENDBRANCH  31  32
ENDBRANCH  18  31
ENDBRANCH   6  10
ENDBRANCH   2   3
TORSDOF 11
ENDMDL
MODEL       29
REMARK 921   NORMALIZED FREE ENERGY PREDICTED BY IDOCK:   -6.06 KCAL/MOL
REMARK 922        TOTAL FREE ENERGY PREDICTED BY IDOCK:  -13.01 KCAL/MOL
REMARK 923 INTER-LIGAND FREE ENERGY PREDICTED BY IDOCK:  -10.89 KCAL/MOL
REMARK 924 INTRA-LIGAND FREE ENERGY PREDICTED BY IDOCK:   -2.12 KCAL/MOL
REMARK 927      BINDING AFFINITY PREDICTED BY RF-SCORE:    0.00 PKD
ROOT
HETATM    1  C   UNL     1     -12.332  13.689  63.366  1.00  0.00    -0.101 C  
HETATM    2  O   UNL     1     -12.428  12.269  63.514  1.00  0.00    -0.583 OA 
ENDROOT
BRANCH   2   3
HETATM    3  C   UNL     1     -11.243  11.639  63.786  1.00  0.00    -0.414 A  
HETATM    4  C   UNL     1     -10.770  11.709  65.105  1.00  0.00    -0.296 A  
HETATM    5  F   UNL     1     -11.481  12.384  66.025  1.00  0.00    -0.341 F  
HETATM    6  C   UNL     1      -9.577  11.077  65.480  1.00  0.00    -0.263 A  
HETATM    7  C   UNL     1      -8.836  10.392  64.506  1.00  0.00    -0.225 A  
HETATM    8  C   UNL     1     -10.483  10.968  62.821  1.00  0.00     0.188 A  
HETATM    9  C   UNL     1      -9.288  10.344  63.185  1.00  0.00    -0.340 A  
BRANCH   6  10
HETATM   10  C   UNL     1      -9.129  11.075  66.888  1.00  0.00    -0.165 C  
HETATM   11  C   UNL     1     -10.317   8.924  67.414  1.00  0.00    -0.337 C  
HETATM   12  C   UNL     1      -9.457  10.116  67.783  1.00  0.00    -0.144 C  
HETATM   13  N   UNL     1      -8.954  10.182  69.088  1.00  0.00    -0.165 N  
HETATM   14  C   UNL     1      -7.902  11.036  69.429  1.00  0.00     0.010 C  
HETATM   15  C   UNL     1      -8.324  12.240  67.365  1.00  0.00    -0.177 C  
HETATM   16  O   UNL     1      -7.205  10.851  70.431  1.00  0.00    -0.051 OA 
HETATM   17  O   UNL     1      -8.246  13.261  66.681  1.00  0.00     0.071 OA 
HETATM   18  N   UNL     1      -7.683  12.098  68.577  1.00  0.00    -0.126 N  
BRANCH  13  19
HETATM   19  C   UNL     1      -9.389   9.264  70.149  1.00  0.00    -0.228 C  
BRANCH  19  20
HETATM   20  C   UNL     1     -10.839   9.363  70.608  1.00  0.00    -0.346 A  
HETATM   21  F   UNL     1     -10.788   6.362  72.432  1.00  0.00    -0.224 F  
HETATM   22  C   UNL     1     -11.081   6.829  71.188  1.00  0.00    -0.270 C  
HETATM   23  C   UNL     1     -11.528   8.279  71.206  1.00  0.00    -0.314 A  
HETATM   24  F   UNL     1     -10.913  11.667  70.002  1.00  0.00    -0.193 F  
HETATM   25  C   UNL     1     -12.752   8.528  71.877  1.00  0.00    -0.401 A  
HETATM   26  C   UNL     1     -11.474  10.620  70.618  1.00  0.00    -0.281 A  
HETATM   27  F   UNL     1     -12.065   6.014  70.709  1.00  0.00    -0.229 F  
HETATM   28  F   UNL     1      -9.996   6.554  70.421  1.00  0.00    -0.181 F  
HETATM   29  C   UNL     1     -12.698  10.838  71.252  1.00  0.00    -0.546 A  
HETATM   30  C   UNL     1     -13.324   9.796  71.913  1.00  0.00    -0.530 A  
ENDBRANCH  19  20
ENDBRANCH  13  19
BRANCH  18  31
HETATM   31  C   UNL     1      -6.738  13.140  68.996  1.00  0.00    -0.103 C  
BRANCH  31  32
HETATM   32  C   UNL     1      -7.390  14.482  69.464  1.00  0.00    -0.063 C  
BRANCH  32  33
HETATM   33  N   UNL     1      -8.816  14.637  69.070  1.00  0.00    -0.332 NA 
HETATM   34  H   UNL     1      -9.351  13.815  69.351  1.00  0.00     0.000 HD 
BRANCH  33  35
HETATM   35  C   UNL     1      -9.463  15.850  69.561  1.00  0.00    -0.219 C  
BRANCH  35  36
HETATM   36  C   UNL     1      -9.981  16.702  68.392  1.00  0.00    -0.255 C  
BRANCH  36  37
HETATM   37  C   UNL     1     -10.525  15.867  67.233  1.00  0.00    -0.310 C  
HETATM   38  O   UNL     1     -10.971  16.818  65.064  1.00  0.00    -0.584 OA 
HETATM   39  C   UNL     1     -10.155  16.432  65.886  1.00  0.00    -0.347 C  
HETATM   40  O   UNL     1      -8.827  16.425  65.640  1.00  0.00    -0.406 OA 
ENDBRANCH  36  37
ENDBRANCH  35  36
ENDBRANCH  33  35
ENDBRANCH  32  33
BRANCH  32  41
HETATM   41  C   UNL     1      -6.636  15.710  68.944  1.00  0.00    -0.116 A  
HETATM   42  C   UNL     1      -5.626  17.886  69.364  1.00  0.00    -0.209 A  
HETATM   43  C   UNL     1      -5.689  17.023  67.116  1.00  0.00    -0.194 A  
HETATM   44  C   UNL     1      -6.270  16.736  69.828  1.00  0.00    -0.206 A  
HETATM   45  C   UNL     1      -6.323  15.868  67.580  1.00  0.00    -0.189 A  
HETATM   46  C   UNL     1      -5.338  18.032  68.009  1.00  0.00    -0.152 A  
ENDBRANCH  32  41
ENDBRANCH  31  32
ENDBRANCH  18  31
ENDBRANCH   6  10
ENDBRANCH   2   3
TORSDOF 11
ENDMDL
MODEL       30
REMARK 921   NORMALIZED FREE ENERGY PREDICTED BY IDOCK:   -5.94 KCAL/MOL
REMARK 922        TOTAL FREE ENERGY PREDICTED BY IDOCK:  -12.82 KCAL/MOL
REMARK 923 INTER-LIGAND FREE ENERGY PREDICTED BY IDOCK:  -10.40 KCAL/MOL
REMARK 924 INTRA-LIGAND FREE ENERGY PREDICTED BY IDOCK:   -2.41 KCAL/MOL
REMARK 927      BINDING AFFINITY PREDICTED BY RF-SCORE:    0.00 PKD
ROOT
HETATM    1  C   UNL     1      -5.399   6.515  68.615  1.00  0.00    -0.015 C  
HETATM    2  O   UNL     1      -5.743   6.074  67.297  1.00  0.00    -0.015 OA 
ENDROOT
BRANCH   2   3
HETATM    3  C   UNL     1      -7.084   6.082  67.019  1.00  0.00    -0.070 A  
HETATM    4  C   UNL     1      -7.760   7.301  67.174  1.00  0.00    -0.112 A  
HETATM    5  F   UNL     1      -7.081   8.385  67.587  1.00  0.00    -0.076 F  
HETATM    6  C   UNL     1      -9.129   7.408  66.893  1.00  0.00    -0.164 A  
HETATM    7  C   UNL     1      -9.830   6.266  66.481  1.00  0.00    -0.176 A  
HETATM    8  C   UNL     1      -7.800   4.946  66.625  1.00  0.00    -0.099 A  
HETATM    9  C   UNL     1      -9.165   5.043  66.353  1.00  0.00    -0.139 A  
BRANCH   6  10
HETATM   10  C   UNL     1      -9.819   8.713  66.969  1.00  0.00    -0.284 C  
HETATM   11  C   UNL     1      -8.919   9.481  64.753  1.00  0.00    -0.263 C  
HETATM   12  C   UNL     1      -9.733   9.668  66.017  1.00  0.00    -0.264 C  
HETATM   13  N   UNL     1     -10.453  10.861  66.161  1.00  0.00    -0.246 N  
HETATM   14  C   UNL     1     -11.478  10.992  67.102  1.00  0.00    -0.015 C  
HETATM   15  C   UNL     1     -10.601   9.016  68.206  1.00  0.00    -0.163 C  
HETATM   16  O   UNL     1     -12.354  11.855  67.001  1.00  0.00    -0.245 OA 
HETATM   17  O   UNL     1     -10.475   8.313  69.208  1.00  0.00    -0.217 OA 
HETATM   18  N   UNL     1     -11.457  10.096  68.150  1.00  0.00    -0.100 N  
BRANCH  13  19
HETATM   19  C   UNL     1     -10.289  11.998  65.247  1.00  0.00    -0.275 C  
BRANCH  19  20
HETATM   20  C   UNL     1     -10.006  13.360  65.870  1.00  0.00    -0.287 A  
HETATM   21  F   UNL     1     -13.276  14.572  65.460  1.00  0.00    -0.417 F  
HETATM   22  C   UNL     1     -12.079  14.544  64.814  1.00  0.00    -0.445 C  
HETATM   23  C   UNL     1     -10.908  14.449  65.774  1.00  0.00    -0.308 A  
HETATM   24  F   UNL     1      -7.971  12.549  66.809  1.00  0.00    -0.148 F  
HETATM   25  C   UNL     1     -10.725  15.571  66.621  1.00  0.00    -0.306 A  
HETATM   26  C   UNL     1      -8.902  13.507  66.732  1.00  0.00    -0.131 A  
HETATM   27  F   UNL     1     -12.026  15.695  64.083  1.00  0.00    -0.461 F  
HETATM   28  F   UNL     1     -12.173  13.551  63.896  1.00  0.00    -0.451 F  
HETATM   29  C   UNL     1      -8.718  14.636  67.531  1.00  0.00    -0.194 A  
HETATM   30  C   UNL     1      -9.650  15.658  67.502  1.00  0.00    -0.224 A  
ENDBRANCH  19  20
ENDBRANCH  13  19
BRANCH  18  31
HETATM   31  C   UNL     1     -12.375  10.320  69.273  1.00  0.00     0.423 C  
BRANCH  31  32
HETATM   32  C   UNL     1     -11.750  11.037  70.514  1.00  0.00    -0.318 C  
BRANCH  32  33
HETATM   33  N   UNL     1     -11.921  10.300  71.795  1.00  0.00    -0.160 NA 
HETATM   34  H   UNL     1     -12.673  10.716  72.343  1.00  0.00     0.000 HD 
BRANCH  33  35
HETATM   35  C   UNL     1     -12.135   8.862  71.655  1.00  0.00    -0.346 C  
BRANCH  35  36
HETATM   36  C   UNL     1     -11.547   8.106  72.856  1.00  0.00    -0.239 C  
BRANCH  36  37
HETATM   37  C   UNL     1     -10.411   7.156  72.473  1.00  0.00    -0.254 C  
HETATM   38  O   UNL     1      -8.434   7.918  71.326  1.00  0.00    -0.111 OA 
HETATM   39  C   UNL     1      -9.083   7.857  72.358  1.00  0.00    -0.172 C  
HETATM   40  O   UNL     1      -8.638   8.373  73.524  1.00  0.00    -0.304 OA 
ENDBRANCH  36  37
ENDBRANCH  35  36
ENDBRANCH  33  35
ENDBRANCH  32  33
BRANCH  32  41
HETATM   41  C   UNL     1     -12.313  12.447  70.719  1.00  0.00    -0.377 A  
HETATM   42  C   UNL     1     -12.443  14.777  70.023  1.00  0.00    -0.327 A  
HETATM   43  C   UNL     1     -13.595  14.070  72.016  1.00  0.00    -0.552 A  
HETATM   44  C   UNL     1     -11.978  13.474  69.824  1.00  0.00    -0.405 A  
HETATM   45  C   UNL     1     -13.141  12.764  71.813  1.00  0.00    -0.455 A  
HETATM   46  C   UNL     1     -13.248  15.077  71.120  1.00  0.00    -0.498 A  
ENDBRANCH  32  41
ENDBRANCH  31  32
ENDBRANCH  18  31
ENDBRANCH   6  10
ENDBRANCH   2   3
TORSDOF 11
ENDMDL
MODEL       31
REMARK 921   NORMALIZED FREE ENERGY PREDICTED BY IDOCK:   -5.91 KCAL/MOL
REMARK 922        TOTAL FREE ENERGY PREDICTED BY IDOCK:  -12.78 KCAL/MOL
REMARK 923 INTER-LIGAND FREE ENERGY PREDICTED BY IDOCK:  -10.65 KCAL/MOL
REMARK 924 INTRA-LIGAND FREE ENERGY PREDICTED BY IDOCK:   -2.13 KCAL/MOL
REMARK 927      BINDING AFFINITY PREDICTED BY RF-SCORE:    0.00 PKD
ROOT
HETATM    1  C   UNL     1     -11.081   6.363  73.212  1.00  0.00    -0.108 C  
HETATM    2  O   UNL     1     -10.693   7.727  73.020  1.00  0.00    -0.354 OA 
ENDROOT
BRANCH   2   3
HETATM    3  C   UNL     1     -11.563   8.472  72.270  1.00  0.00    -0.374 A  
HETATM    4  C   UNL     1     -11.005   9.353  71.332  1.00  0.00    -0.373 A  
HETATM    5  F   UNL     1      -9.667   9.431  71.215  1.00  0.00    -0.339 F  
HETATM    6  C   UNL     1     -11.818  10.140  70.507  1.00  0.00    -0.408 A  
HETATM    7  C   UNL     1     -13.211  10.063  70.651  1.00  0.00    -0.174 A  
HETATM    8  C   UNL     1     -12.954   8.419  72.416  1.00  0.00    -0.297 A  
HETATM    9  C   UNL     1     -13.770   9.208  71.605  1.00  0.00    -0.433 A  
BRANCH   6  10
HETATM   10  C   UNL     1     -11.230  10.998  69.457  1.00  0.00    -0.343 C  
HETATM   11  C   UNL     1     -12.037  13.119  70.534  1.00  0.00    -0.385 C  
HETATM   12  C   UNL     1     -11.322  12.347  69.444  1.00  0.00    -0.220 C  
HETATM   13  N   UNL     1     -10.701  13.077  68.424  1.00  0.00    -0.249 N  
HETATM   14  C   UNL     1      -9.752  12.498  67.577  1.00  0.00    -0.196 C  
HETATM   15  C   UNL     1     -10.554  10.326  68.306  1.00  0.00    -0.221 C  
HETATM   16  O   UNL     1      -8.936  13.175  66.947  1.00  0.00    -0.224 OA 
HETATM   17  O   UNL     1     -10.694   9.116  68.124  1.00  0.00    -0.206 OA 
HETATM   18  N   UNL     1      -9.777  11.122  67.491  1.00  0.00    -0.175 N  
BRANCH  13  19
HETATM   19  C   UNL     1     -10.887  14.525  68.263  1.00  0.00    -0.241 C  
BRANCH  19  20
HETATM   20  C   UNL     1     -11.262  15.032  66.875  1.00  0.00    -0.323 A  
HETATM   21  F   UNL     1      -8.561  17.262  66.622  1.00  0.00    -0.223 F  
HETATM   22  C   UNL     1      -9.858  17.227  67.032  1.00  0.00    -0.281 C  
HETATM   23  C   UNL     1     -10.669  16.179  66.293  1.00  0.00    -0.213 A  
HETATM   24  F   UNL     1     -12.740  13.188  66.560  1.00  0.00    -0.301 F  
HETATM   25  C   UNL     1     -10.837  16.411  64.904  1.00  0.00    -0.268 A  
HETATM   26  C   UNL     1     -12.088  14.241  66.052  1.00  0.00    -0.408 A  
HETATM   27  F   UNL     1     -10.350  18.480  66.811  1.00  0.00    -0.333 F  
HETATM   28  F   UNL     1      -9.820  17.100  68.382  1.00  0.00    -0.248 F  
HETATM   29  C   UNL     1     -12.271  14.506  64.695  1.00  0.00    -0.474 A  
HETATM   30  C   UNL     1     -11.617  15.576  64.110  1.00  0.00    -0.085 A  
ENDBRANCH  19  20
ENDBRANCH  13  19
BRANCH  18  31
HETATM   31  C   UNL     1      -8.952  10.476  66.463  1.00  0.00    -0.157 C  
BRANCH  31  32
HETATM   32  C   UNL     1      -7.595   9.887  66.970  1.00  0.00    -0.092 C  
BRANCH  32  33
HETATM   33  N   UNL     1      -7.739   8.697  67.851  1.00  0.00    -0.101 NA 
HETATM   34  H   UNL     1      -8.633   8.726  68.340  1.00  0.00     0.000 HD 
BRANCH  33  35
HETATM   35  C   UNL     1      -7.573   7.410  67.182  1.00  0.00    -0.107 C  
BRANCH  35  36
HETATM   36  C   UNL     1      -8.696   6.441  67.581  1.00  0.00    -0.114 C  
BRANCH  36  37
HETATM   37  C   UNL     1      -9.098   6.556  69.052  1.00  0.00    -0.132 C  
HETATM   38  O   UNL     1     -11.332   6.071  69.814  1.00  0.00    -0.409 OA 
HETATM   39  C   UNL     1     -10.255   5.660  69.409  1.00  0.00    -0.245 C  
HETATM   40  O   UNL     1      -9.979   4.343  69.293  1.00  0.00    -0.183 OA 
ENDBRANCH  36  37
ENDBRANCH  35  36
ENDBRANCH  33  35
ENDBRANCH  32  33
BRANCH  32  41
HETATM   41  C   UNL     1      -6.757  10.920  67.729  1.00  0.00    -0.064 A  
HETATM   42  C   UNL     1      -6.075  11.928  69.838  1.00  0.00    -0.153 A  
HETATM   43  C   UNL     1      -5.252  12.842  67.768  1.00  0.00    -0.108 A  
HETATM   44  C   UNL     1      -6.796  10.962  69.131  1.00  0.00    -0.086 A  
HETATM   45  C   UNL     1      -5.962  11.869  67.059  1.00  0.00    -0.153 A  
HETATM   46  C   UNL     1      -5.307  12.870  69.159  1.00  0.00    -0.069 A  
ENDBRANCH  32  41
ENDBRANCH  31  32
ENDBRANCH  18  31
ENDBRANCH   6  10
ENDBRANCH   2   3
TORSDOF 11
ENDMDL
MODEL       32
REMARK 921   NORMALIZED FREE ENERGY PREDICTED BY IDOCK:   -5.89 KCAL/MOL
REMARK 922        TOTAL FREE ENERGY PREDICTED BY IDOCK:  -12.73 KCAL/MOL
REMARK 923 INTER-LIGAND FREE ENERGY PREDICTED BY IDOCK:  -10.10 KCAL/MOL
REMARK 924 INTRA-LIGAND FREE ENERGY PREDICTED BY IDOCK:   -2.63 KCAL/MOL
REMARK 927      BINDING AFFINITY PREDICTED BY RF-SCORE:    0.00 PKD
ROOT
HETATM    1  C   UNL     1     -13.077   9.534  71.833  1.00  0.00    -0.428 C  
HETATM    2  O   UNL     1     -12.861   8.168  72.203  1.00  0.00    -0.320 OA 
ENDROOT
BRANCH   2   3
HETATM    3  C   UNL     1     -11.554   7.762  72.165  1.00  0.00    -0.317 A  
HETATM    4  C   UNL     1     -10.965   7.624  70.900  1.00  0.00    -0.250 A  
HETATM    5  F   UNL     1     -11.694   7.884  69.801  1.00  0.00     0.002 F  
HETATM    6  C   UNL     1      -9.626   7.233  70.765  1.00  0.00    -0.171 A  
HETATM    7  C   UNL     1      -8.882   6.947  71.919  1.00  0.00    -0.126 A  
HETATM    8  C   UNL     1     -10.805   7.455  73.307  1.00  0.00    -0.417 A  
HETATM    9  C   UNL     1      -9.474   7.055  73.180  1.00  0.00    -0.186 A  
BRANCH   6  10
HETATM   10  C   UNL     1      -8.981   7.177  69.436  1.00  0.00    -0.136 C  
HETATM   11  C   UNL     1      -9.200   4.680  69.274  1.00  0.00    -0.185 C  
HETATM   12  C   UNL     1      -8.771   6.034  68.747  1.00  0.00    -0.111 C  
HETATM   13  N   UNL     1      -8.183   6.085  67.477  1.00  0.00    -0.106 N  
HETATM   14  C   UNL     1      -8.064   7.285  66.770  1.00  0.00    -0.119 C  
HETATM   15  C   UNL     1      -8.470   8.456  68.856  1.00  0.00    -0.124 C  
HETATM   16  O   UNL     1      -7.912   7.312  65.545  1.00  0.00    -0.108 OA 
HETATM   17  O   UNL     1      -8.376   9.462  69.559  1.00  0.00    -0.108 OA 
HETATM   18  N   UNL     1      -8.131   8.440  67.521  1.00  0.00    -0.109 N  
BRANCH  13  19
HETATM   19  C   UNL     1      -7.788   4.879  66.740  1.00  0.00    -0.099 C  
BRANCH  19  20
HETATM   20  C   UNL     1      -8.549   4.563  65.457  1.00  0.00    -0.123 A  
HETATM   21  F   UNL     1      -5.771   3.225  63.774  1.00  0.00    -0.009 F  
HETATM   22  C   UNL     1      -6.424   4.406  63.949  1.00  0.00    -0.034 C  
HETATM   23  C   UNL     1      -7.898   4.212  64.247  1.00  0.00    -0.085 A  
HETATM   24  F   UNL     1     -10.632   4.813  66.587  1.00  0.00    -0.274 F  
HETATM   25  C   UNL     1      -8.660   3.642  63.197  1.00  0.00    -0.091 A  
HETATM   26  C   UNL     1      -9.950   4.426  65.502  1.00  0.00    -0.230 A  
HETATM   27  F   UNL     1      -6.241   5.104  62.791  1.00  0.00    -0.019 F  
HETATM   28  F   UNL     1      -5.716   5.090  64.883  1.00  0.00    -0.015 F  
HETATM   29  C   UNL     1     -10.688   3.897  64.443  1.00  0.00    -0.200 A  
HETATM   30  C   UNL     1     -10.038   3.472  63.298  1.00  0.00    -0.173 A  
ENDBRANCH  19  20
ENDBRANCH  13  19
BRANCH  18  31
HETATM   31  C   UNL     1      -7.799   9.712  66.867  1.00  0.00    -0.102 C  
BRANCH  31  32
HETATM   32  C   UNL     1      -8.941  10.332  65.997  1.00  0.00    -0.152 C  
BRANCH  32  33
HETATM   33  N   UNL     1      -8.461  11.088  64.809  1.00  0.00    -0.376 NA 
HETATM   34  H   UNL     1      -7.468  10.912  64.657  1.00  0.00     0.000 HD 
BRANCH  33  35
HETATM   35  C   UNL     1      -9.209  10.845  63.579  1.00  0.00    -0.245 C  
BRANCH  35  36
HETATM   36  C   UNL     1     -10.176  12.003  63.293  1.00  0.00    -0.398 C  
BRANCH  36  37
HETATM   37  C   UNL     1     -11.639  11.648  63.563  1.00  0.00    -0.408 C  
HETATM   38  O   UNL     1     -12.969  12.830  65.187  1.00  0.00    -0.768 OA 
HETATM   39  C   UNL     1     -12.432  12.814  64.091  1.00  0.00    -0.369 C  
HETATM   40  O   UNL     1     -12.547  13.835  63.213  1.00  0.00    -0.830 OA 
ENDBRANCH  36  37
ENDBRANCH  35  36
ENDBRANCH  33  35
ENDBRANCH  32  33
BRANCH  32  41
HETATM   41  C   UNL     1      -9.844  11.271  66.802  1.00  0.00    -0.227 A  
HETATM   42  C   UNL     1     -10.319  13.499  67.663  1.00  0.00    -0.239 A  
HETATM   43  C   UNL     1     -11.752  11.664  68.274  1.00  0.00    -0.374 A  
HETATM   44  C   UNL     1      -9.533  12.636  66.894  1.00  0.00    -0.229 A  
HETATM   45  C   UNL     1     -10.976  10.801  67.496  1.00  0.00    -0.372 A  
HETATM   46  C   UNL     1     -11.425  13.014  68.356  1.00  0.00    -0.345 A  
ENDBRANCH  32  41
ENDBRANCH  31  32
ENDBRANCH  18  31
ENDBRANCH   6  10
ENDBRANCH   2   3
TORSDOF 11
ENDMDL
MODEL       33
REMARK 921   NORMALIZED FREE ENERGY PREDICTED BY IDOCK:   -5.89 KCAL/MOL
REMARK 922        TOTAL FREE ENERGY PREDICTED BY IDOCK:  -12.73 KCAL/MOL
REMARK 923 INTER-LIGAND FREE ENERGY PREDICTED BY IDOCK:  -10.83 KCAL/MOL
REMARK 924 INTRA-LIGAND FREE ENERGY PREDICTED BY IDOCK:   -1.90 KCAL/MOL
REMARK 927      BINDING AFFINITY PREDICTED BY RF-SCORE:    0.00 PKD
ROOT
HETATM    1  C   UNL     1      -6.768   7.192  63.323  1.00  0.00    -0.052 C  
HETATM    2  O   UNL     1      -7.158   8.560  63.169  1.00  0.00    -0.089 OA 
ENDROOT
BRANCH   2   3
HETATM    3  C   UNL     1      -7.062   9.317  64.307  1.00  0.00    -0.098 A  
HETATM    4  C   UNL     1      -8.155   9.290  65.185  1.00  0.00    -0.124 A  
HETATM    5  F   UNL     1      -9.232   8.545  64.877  1.00  0.00    -0.114 F  
HETATM    6  C   UNL     1      -8.138  10.016  66.383  1.00  0.00    -0.120 A  
HETATM    7  C   UNL     1      -7.018  10.804  66.685  1.00  0.00    -0.129 A  
HETATM    8  C   UNL     1      -5.959  10.122  64.612  1.00  0.00    -0.125 A  
HETATM    9  C   UNL     1      -5.938  10.856  65.799  1.00  0.00    -0.094 A  
BRANCH   6  10
HETATM   10  C   UNL     1      -9.252   9.914  67.349  1.00  0.00    -0.151 C  
HETATM   11  C   UNL     1      -8.425   7.738  68.293  1.00  0.00    -0.124 C  
HETATM   12  C   UNL     1      -9.406   8.890  68.217  1.00  0.00    -0.143 C  
HETATM   13  N   UNL     1     -10.477   8.898  69.121  1.00  0.00    -0.227 N  
HETATM   14  C   UNL     1     -11.228  10.052  69.359  1.00  0.00    -0.188 C  
HETATM   15  C   UNL     1     -10.305  10.973  67.313  1.00  0.00    -0.211 C  
HETATM   16  O   UNL     1     -11.899  10.197  70.385  1.00  0.00    -0.267 OA 
HETATM   17  O   UNL     1     -10.366  11.756  66.364  1.00  0.00    -0.212 OA 
HETATM   18  N   UNL     1     -11.172  11.024  68.383  1.00  0.00    -0.250 N  
BRANCH  13  19
HETATM   19  C   UNL     1     -10.792   7.753  69.983  1.00  0.00    -0.241 C  
BRANCH  19  20
HETATM   20  C   UNL     1      -9.722   7.308  70.974  1.00  0.00    -0.169 A  
HETATM   21  F   UNL     1      -8.776   4.460  69.150  1.00  0.00    -0.086 F  
HETATM   22  C   UNL     1      -9.631   4.837  70.139  1.00  0.00    -0.195 C  
HETATM   23  C   UNL     1      -9.116   6.028  70.924  1.00  0.00    -0.161 A  
HETATM   24  F   UNL     1      -9.742   9.453  72.013  1.00  0.00    -0.288 F  
HETATM   25  C   UNL     1      -7.933   5.798  71.670  1.00  0.00    -0.117 A  
HETATM   26  C   UNL     1      -9.170   8.253  71.861  1.00  0.00    -0.208 A  
HETATM   27  F   UNL     1      -9.774   3.742  70.940  1.00  0.00    -0.222 F  
HETATM   28  F   UNL     1     -10.840   4.997  69.547  1.00  0.00    -0.280 F  
HETATM   29  C   UNL     1      -8.026   7.995  72.616  1.00  0.00    -0.181 A  
HETATM   30  C   UNL     1      -7.384   6.775  72.496  1.00  0.00    -0.090 A  
ENDBRANCH  19  20
ENDBRANCH  13  19
BRANCH  18  31
HETATM   31  C   UNL     1     -12.102  12.156  68.478  1.00  0.00    -0.057 C  
BRANCH  31  32
HETATM   32  C   UNL     1     -11.456  13.516  68.902  1.00  0.00    -0.306 C  
BRANCH  32  33
HETATM   33  N   UNL     1      -9.969  13.492  68.962  1.00  0.00    -0.425 NA 
HETATM   34  H   UNL     1      -9.625  12.545  68.803  1.00  0.00     0.000 HD 
BRANCH  33  35
HETATM   35  C   UNL     1      -9.301  14.429  68.063  1.00  0.00    -0.200 C  
BRANCH  35  36
HETATM   36  C   UNL     1     -10.328  15.298  67.322  1.00  0.00    -0.264 C  
BRANCH  36  37
HETATM   37  C   UNL     1     -10.213  15.200  65.800  1.00  0.00    -0.365 C  
HETATM   38  O   UNL     1     -11.833  16.202  64.324  1.00  0.00    -0.588 OA 
HETATM   39  C   UNL     1     -10.894  16.342  65.092  1.00  0.00    -0.275 C  
HETATM   40  O   UNL     1     -10.336  17.546  65.341  1.00  0.00    -0.629 OA 
ENDBRANCH  36  37
ENDBRANCH  35  36
ENDBRANCH  33  35
ENDBRANCH  32  33
BRANCH  32  41
HETATM   41  C   UNL     1     -11.961  14.003  70.264  1.00  0.00    -0.409 A  
HETATM   42  C   UNL     1     -13.355  13.659  72.231  1.00  0.00    -0.622 A  
HETATM   43  C   UNL     1     -12.110  15.708  72.005  1.00  0.00    -0.529 A  
HETATM   44  C   UNL     1     -12.846  13.210  71.009  1.00  0.00    -0.295 A  
HETATM   45  C   UNL     1     -11.591  15.256  70.788  1.00  0.00    -0.371 A  
HETATM   46  C   UNL     1     -12.991  14.909  72.727  1.00  0.00    -0.542 A  
ENDBRANCH  32  41
ENDBRANCH  31  32
ENDBRANCH  18  31
ENDBRANCH   6  10
ENDBRANCH   2   3
TORSDOF 11
ENDMDL
MODEL       34
REMARK 921   NORMALIZED FREE ENERGY PREDICTED BY IDOCK:   -5.89 KCAL/MOL
REMARK 922        TOTAL FREE ENERGY PREDICTED BY IDOCK:  -12.73 KCAL/MOL
REMARK 923 INTER-LIGAND FREE ENERGY PREDICTED BY IDOCK:   -9.79 KCAL/MOL
REMARK 924 INTRA-LIGAND FREE ENERGY PREDICTED BY IDOCK:   -2.94 KCAL/MOL
REMARK 927      BINDING AFFINITY PREDICTED BY RF-SCORE:    0.00 PKD
ROOT
HETATM    1  C   UNL     1      -8.035   5.352  62.350  1.00  0.00    -0.084 C  
HETATM    2  O   UNL     1      -7.791   5.706  63.716  1.00  0.00    -0.094 OA 
ENDROOT
BRANCH   2   3
HETATM    3  C   UNL     1      -7.387   7.000  63.911  1.00  0.00    -0.084 A  
HETATM    4  C   UNL     1      -8.032   7.725  64.922  1.00  0.00    -0.139 A  
HETATM    5  F   UNL     1      -9.006   7.135  65.638  1.00  0.00    -0.161 F  
HETATM    6  C   UNL     1      -7.671   9.049  65.206  1.00  0.00    -0.100 A  
HETATM    7  C   UNL     1      -6.667   9.658  64.440  1.00  0.00    -0.111 A  
HETATM    8  C   UNL     1      -6.400   7.627  63.141  1.00  0.00    -0.059 A  
HETATM    9  C   UNL     1      -6.041   8.948  63.412  1.00  0.00    -0.088 A  
BRANCH   6  10
HETATM   10  C   UNL     1      -8.288   9.780  66.332  1.00  0.00    -0.120 C  
HETATM   11  C   UNL     1      -9.940  10.958  64.850  1.00  0.00    -0.361 C  
HETATM   12  C   UNL     1      -9.310  10.654  66.195  1.00  0.00    -0.177 C  
HETATM   13  N   UNL     1      -9.854  11.273  67.327  1.00  0.00    -0.181 N  
HETATM   14  C   UNL     1      -9.579  10.815  68.618  1.00  0.00    -0.187 C  
HETATM   15  C   UNL     1      -7.699   9.591  67.692  1.00  0.00    -0.095 C  
HETATM   16  O   UNL     1     -10.311  11.078  69.576  1.00  0.00    -0.164 OA 
HETATM   17  O   UNL     1      -6.605   9.043  67.824  1.00  0.00    -0.060 OA 
HETATM   18  N   UNL     1      -8.442  10.047  68.760  1.00  0.00    -0.120 N  
BRANCH  13  19
HETATM   19  C   UNL     1     -10.857  12.341  67.238  1.00  0.00    -0.245 C  
BRANCH  19  20
HETATM   20  C   UNL     1     -10.444  13.633  66.542  1.00  0.00    -0.281 A  
HETATM   21  F   UNL     1     -13.657  14.374  65.335  1.00  0.00    -0.311 F  
HETATM   22  C   UNL     1     -12.518  13.730  64.961  1.00  0.00    -0.416 C  
HETATM   23  C   UNL     1     -11.283  14.310  65.623  1.00  0.00    -0.314 A  
HETATM   24  F   UNL     1      -8.394  13.675  67.758  1.00  0.00    -0.136 F  
HETATM   25  C   UNL     1     -10.967  15.642  65.255  1.00  0.00    -0.375 A  
HETATM   26  C   UNL     1      -9.268  14.291  66.953  1.00  0.00    -0.254 A  
HETATM   27  F   UNL     1     -12.454  13.850  63.603  1.00  0.00    -0.484 F  
HETATM   28  F   UNL     1     -12.745  12.411  65.184  1.00  0.00    -0.522 F  
HETATM   29  C   UNL     1      -8.954  15.589  66.550  1.00  0.00    -0.348 A  
HETATM   30  C   UNL     1      -9.823  16.281  65.725  1.00  0.00    -0.332 A  
ENDBRANCH  19  20
ENDBRANCH  13  19
BRANCH  18  31
HETATM   31  C   UNL     1      -7.991   9.721  70.118  1.00  0.00    -0.186 C  
BRANCH  31  32
HETATM   32  C   UNL     1      -8.967   8.825  70.948  1.00  0.00    -0.201 C  
BRANCH  32  33
HETATM   33  N   UNL     1      -8.413   8.363  72.250  1.00  0.00    -0.223 NA 
HETATM   34  H   UNL     1      -7.674   8.992  72.561  1.00  0.00     0.000 HD 
BRANCH  33  35
HETATM   35  C   UNL     1      -9.399   8.181  73.310  1.00  0.00    -0.238 C  
BRANCH  35  36
HETATM   36  C   UNL     1      -9.098   6.911  74.121  1.00  0.00    -0.238 C  
BRANCH  36  37
HETATM   37  C   UNL     1     -10.334   6.044  74.365  1.00  0.00    -0.267 C  
HETATM   38  O   UNL     1     -12.025   5.716  72.680  1.00  0.00    -0.252 OA 
HETATM   39  C   UNL     1     -10.902   5.471  73.093  1.00  0.00    -0.285 C  
HETATM   40  O   UNL     1     -10.072   4.610  72.467  1.00  0.00    -0.161 OA 
ENDBRANCH  36  37
ENDBRANCH  35  36
ENDBRANCH  33  35
ENDBRANCH  32  33
BRANCH  32  41
HETATM   41  C   UNL     1      -9.418   7.581  70.176  1.00  0.00    -0.161 A  
HETATM   42  C   UNL     1     -11.205   6.278  69.156  1.00  0.00    -0.439 A  
HETATM   43  C   UNL     1      -8.964   5.396  69.187  1.00  0.00    -0.120 A  
HETATM   44  C   UNL     1     -10.766   7.428  69.818  1.00  0.00    -0.252 A  
HETATM   45  C   UNL     1      -8.521   6.550  69.838  1.00  0.00    -0.135 A  
HETATM   46  C   UNL     1     -10.306   5.260  68.844  1.00  0.00    -0.228 A  
ENDBRANCH  32  41
ENDBRANCH  31  32
ENDBRANCH  18  31
ENDBRANCH   6  10
ENDBRANCH   2   3
TORSDOF 11
ENDMDL
MODEL       35
REMARK 921   NORMALIZED FREE ENERGY PREDICTED BY IDOCK:   -5.87 KCAL/MOL
REMARK 922        TOTAL FREE ENERGY PREDICTED BY IDOCK:  -12.71 KCAL/MOL
REMARK 923 INTER-LIGAND FREE ENERGY PREDICTED BY IDOCK:   -9.09 KCAL/MOL
REMARK 924 INTRA-LIGAND FREE ENERGY PREDICTED BY IDOCK:   -3.62 KCAL/MOL
REMARK 927      BINDING AFFINITY PREDICTED BY RF-SCORE:    0.00 PKD
ROOT
HETATM    1  C   UNL     1     -10.031  16.928  66.800  1.00  0.00    -0.289 C  
HETATM    2  O   UNL     1      -9.456  15.941  65.938  1.00  0.00    -0.328 OA 
ENDROOT
BRANCH   2   3
HETATM    3  C   UNL     1     -10.305  14.931  65.573  1.00  0.00    -0.365 A  
HETATM    4  C   UNL     1      -9.993  13.641  66.025  1.00  0.00    -0.302 A  
HETATM    5  F   UNL     1      -8.893  13.452  66.776  1.00  0.00    -0.221 F  
HETATM    6  C   UNL     1     -10.815  12.548  65.718  1.00  0.00    -0.310 A  
HETATM    7  C   UNL     1     -11.949  12.754  64.919  1.00  0.00    -0.451 A  
HETATM    8  C   UNL     1     -11.429  15.119  64.761  1.00  0.00    -0.383 A  
HETATM    9  C   UNL     1     -12.248  14.034  64.443  1.00  0.00    -0.457 A  
BRANCH   6  10
HETATM   10  C   UNL     1     -10.535  11.207  66.272  1.00  0.00    -0.312 C  
HETATM   11  C   UNL     1     -11.886  11.623  68.348  1.00  0.00    -0.346 C  
HETATM   12  C   UNL     1     -11.002  10.769  67.462  1.00  0.00    -0.312 C  
HETATM   13  N   UNL     1     -10.711   9.467  67.888  1.00  0.00    -0.248 N  
HETATM   14  C   UNL     1     -10.200   8.505  67.013  1.00  0.00    -0.301 C  
HETATM   15  C   UNL     1      -9.623  10.311  65.498  1.00  0.00    -0.242 C  
HETATM   16  O   UNL     1     -10.292   7.296  67.242  1.00  0.00    -0.219 OA 
HETATM   17  O   UNL     1      -8.950  10.761  64.570  1.00  0.00    -0.192 OA 
HETATM   18  N   UNL     1      -9.592   8.985  65.872  1.00  0.00    -0.260 N  
BRANCH  13  19
HETATM   19  C   UNL     1     -11.054   8.979  69.229  1.00  0.00     0.060 C  
BRANCH  19  20
HETATM   20  C   UNL     1      -9.916   8.453  70.095  1.00  0.00    -0.190 A  
HETATM   21  F   UNL     1     -10.798   5.072  69.744  1.00  0.00    -0.313 F  
HETATM   22  C   UNL     1     -11.020   6.135  70.565  1.00  0.00    -0.318 C  
HETATM   23  C   UNL     1      -9.863   7.116  70.562  1.00  0.00    -0.181 A  
HETATM   24  F   UNL     1      -8.786  10.547  69.945  1.00  0.00    -0.140 F  
HETATM   25  C   UNL     1      -8.646   6.621  71.094  1.00  0.00    -0.130 A  
HETATM   26  C   UNL     1      -8.774   9.254  70.293  1.00  0.00    -0.219 A  
HETATM   27  F   UNL     1     -11.219   5.608  71.807  1.00  0.00    -0.311 F  
HETATM   28  F   UNL     1     -12.226   6.641  70.203  1.00  0.00    -0.432 F  
HETATM   29  C   UNL     1      -7.597   8.759  70.853  1.00  0.00    -0.109 A  
HETATM   30  C   UNL     1      -7.520   7.428  71.225  1.00  0.00    -0.081 A  
ENDBRANCH  19  20
ENDBRANCH  13  19
BRANCH  18  31
HETATM   31  C   UNL     1      -8.854   8.036  65.028  1.00  0.00     0.170 C  
BRANCH  31  32
HETATM   32  C   UNL     1      -7.437   7.638  65.555  1.00  0.00    -0.077 C  
BRANCH  32  33
HETATM   33  N   UNL     1      -7.456   6.677  66.691  1.00  0.00    -0.078 NA 
HETATM   34  H   UNL     1      -8.148   6.963  67.383  1.00  0.00     0.000 HD 
BRANCH  33  35
HETATM   35  C   UNL     1      -7.668   5.282  66.315  1.00  0.00    -0.088 C  
BRANCH  35  36
HETATM   36  C   UNL     1      -8.252   4.484  67.491  1.00  0.00    -0.100 C  
BRANCH  36  37
HETATM   37  C   UNL     1      -9.295   3.453  67.061  1.00  0.00    -0.212 C  
HETATM   38  O   UNL     1      -9.313   2.488  64.853  1.00  0.00    -0.140 OA 
HETATM   39  C   UNL     1      -8.801   2.551  65.960  1.00  0.00    -0.132 C  
HETATM   40  O   UNL     1      -7.763   1.768  66.324  1.00  0.00    -0.067 OA 
ENDBRANCH  36  37
ENDBRANCH  35  36
ENDBRANCH  33  35
ENDBRANCH  32  33
BRANCH  32  41
HETATM   41  C   UNL     1      -6.615   8.853  65.999  1.00  0.00    -0.065 A  
HETATM   42  C   UNL     1      -5.833  10.321  67.777  1.00  0.00    -0.045 A  
HETATM   43  C   UNL     1      -5.260  10.820  65.493  1.00  0.00    -0.139 A  
HETATM   44  C   UNL     1      -6.538   9.189  67.359  1.00  0.00    -0.065 A  
HETATM   45  C   UNL     1      -5.954   9.681  65.073  1.00  0.00    -0.075 A  
HETATM   46  C   UNL     1      -5.198  11.139  66.846  1.00  0.00    -0.079 A  
ENDBRANCH  32  41
ENDBRANCH  31  32
ENDBRANCH  18  31
ENDBRANCH   6  10
ENDBRANCH   2   3
TORSDOF 11
ENDMDL
MODEL       36
REMARK 921   NORMALIZED FREE ENERGY PREDICTED BY IDOCK:   -5.87 KCAL/MOL
REMARK 922        TOTAL FREE ENERGY PREDICTED BY IDOCK:  -12.70 KCAL/MOL
REMARK 923 INTER-LIGAND FREE ENERGY PREDICTED BY IDOCK:  -10.62 KCAL/MOL
REMARK 924 INTRA-LIGAND FREE ENERGY PREDICTED BY IDOCK:   -2.08 KCAL/MOL
REMARK 927      BINDING AFFINITY PREDICTED BY RF-SCORE:    0.00 PKD
ROOT
HETATM    1  C   UNL     1      -7.112  17.832  67.335  1.00  0.00    -0.185 C  
HETATM    2  O   UNL     1      -8.006  16.956  68.030  1.00  0.00    -0.176 OA 
ENDROOT
BRANCH   2   3
HETATM    3  C   UNL     1      -8.805  16.191  67.223  1.00  0.00    -0.186 A  
HETATM    4  C   UNL     1      -9.106  14.895  67.667  1.00  0.00    -0.183 A  
HETATM    5  F   UNL     1      -8.602  14.465  68.837  1.00  0.00    -0.160 F  
HETATM    6  C   UNL     1      -9.932  14.047  66.917  1.00  0.00    -0.263 A  
HETATM    7  C   UNL     1     -10.436  14.501  65.689  1.00  0.00    -0.351 A  
HETATM    8  C   UNL     1      -9.299  16.623  65.987  1.00  0.00    -0.270 A  
HETATM    9  C   UNL     1     -10.114  15.781  65.229  1.00  0.00    -0.257 A  
BRANCH   6  10
HETATM   10  C   UNL     1     -10.322  12.717  67.430  1.00  0.00    -0.222 C  
HETATM   11  C   UNL     1      -8.368  11.567  66.348  1.00  0.00    -0.118 C  
HETATM   12  C   UNL     1      -9.634  11.581  67.180  1.00  0.00    -0.177 C  
HETATM   13  N   UNL     1     -10.062  10.371  67.740  1.00  0.00    -0.174 N  
HETATM   14  C   UNL     1     -11.001  10.331  68.775  1.00  0.00    -0.243 C  
HETATM   15  C   UNL     1     -11.590  12.617  68.214  1.00  0.00    -0.332 C  
HETATM   16  O   UNL     1     -11.109   9.356  69.524  1.00  0.00    -0.210 OA 
HETATM   17  O   UNL     1     -12.390  13.553  68.222  1.00  0.00    -0.215 OA 
HETATM   18  N   UNL     1     -11.796  11.449  68.915  1.00  0.00    -0.340 N  
BRANCH  13  19
HETATM   19  C   UNL     1      -9.457   9.080  67.390  1.00  0.00    -0.144 C  
BRANCH  19  20
HETATM   20  C   UNL     1      -8.875   8.249  68.527  1.00  0.00    -0.137 A  
HETATM   21  F   UNL     1     -10.422   5.254  67.543  1.00  0.00    -0.217 F  
HETATM   22  C   UNL     1     -10.634   6.329  68.349  1.00  0.00    -0.260 C  
HETATM   23  C   UNL     1      -9.339   6.947  68.840  1.00  0.00    -0.134 A  
HETATM   24  F   UNL     1      -7.263   9.943  68.989  1.00  0.00    -0.067 F  
HETATM   25  C   UNL     1      -8.560   6.126  69.695  1.00  0.00    -0.128 A  
HETATM   26  C   UNL     1      -7.710   8.697  69.181  1.00  0.00    -0.097 A  
HETATM   27  F   UNL     1     -11.388   5.869  69.389  1.00  0.00    -0.444 F  
HETATM   28  F   UNL     1     -11.460   7.155  67.659  1.00  0.00    -0.143 F  
HETATM   29  C   UNL     1      -6.977   7.887  70.049  1.00  0.00    -0.049 A  
HETATM   30  C   UNL     1      -7.384   6.585  70.281  1.00  0.00    -0.089 A  
ENDBRANCH  19  20
ENDBRANCH  13  19
BRANCH  18  31
HETATM   31  C   UNL     1     -12.934  11.378  69.840  1.00  0.00     0.430 C  
BRANCH  31  32
HETATM   32  C   UNL     1     -12.610  11.745  71.325  1.00  0.00    -0.296 C  
BRANCH  32  33
HETATM   33  N   UNL     1     -13.378  10.960  72.328  1.00  0.00    -0.563 NA 
HETATM   34  H   UNL     1     -14.211  11.474  72.616  1.00  0.00     0.000 HD 
BRANCH  33  35
HETATM   35  C   UNL     1     -13.741   9.610  71.909  1.00  0.00    -0.295 C  
BRANCH  35  36
HETATM   36  C   UNL     1     -13.009   8.561  72.760  1.00  0.00    -0.086 C  
BRANCH  36  37
HETATM   37  C   UNL     1     -11.542   8.383  72.368  1.00  0.00    -0.450 C  
HETATM   38  O   UNL     1      -9.942   7.325  73.827  1.00  0.00    -0.301 OA 
HETATM   39  C   UNL     1     -10.891   7.218  73.066  1.00  0.00    -0.355 C  
HETATM   40  O   UNL     1     -11.420   6.021  72.732  1.00  0.00    -0.267 OA 
ENDBRANCH  36  37
ENDBRANCH  35  36
ENDBRANCH  33  35
ENDBRANCH  32  33
BRANCH  32  41
HETATM   41  C   UNL     1     -12.847  13.229  71.625  1.00  0.00    -0.397 A  
HETATM   42  C   UNL     1     -11.993  15.505  71.764  1.00  0.00    -0.494 A  
HETATM   43  C   UNL     1     -14.257  15.047  72.442  1.00  0.00    -0.516 A  
HETATM   44  C   UNL     1     -11.809  14.156  71.448  1.00  0.00    -0.071 A  
HETATM   45  C   UNL     1     -14.080  13.699  72.117  1.00  0.00    -0.553 A  
HETATM   46  C   UNL     1     -13.214  15.950  72.264  1.00  0.00    -0.439 A  
ENDBRANCH  32  41
ENDBRANCH  31  32
ENDBRANCH  18  31
ENDBRANCH   6  10
ENDBRANCH   2   3
TORSDOF 11
ENDMDL
MODEL       37
REMARK 921   NORMALIZED FREE ENERGY PREDICTED BY IDOCK:   -5.83 KCAL/MOL
REMARK 922        TOTAL FREE ENERGY PREDICTED BY IDOCK:  -12.63 KCAL/MOL
REMARK 923 INTER-LIGAND FREE ENERGY PREDICTED BY IDOCK:  -10.23 KCAL/MOL
REMARK 924 INTRA-LIGAND FREE ENERGY PREDICTED BY IDOCK:   -2.40 KCAL/MOL
REMARK 927      BINDING AFFINITY PREDICTED BY RF-SCORE:    0.00 PKD
ROOT
HETATM    1  C   UNL     1      -8.092   6.350  62.785  1.00  0.00    -0.072 C  
HETATM    2  O   UNL     1      -7.591   6.121  64.106  1.00  0.00    -0.081 OA 
ENDROOT
BRANCH   2   3
HETATM    3  C   UNL     1      -7.145   7.242  64.755  1.00  0.00    -0.064 A  
HETATM    4  C   UNL     1      -8.050   7.890  65.606  1.00  0.00    -0.130 A  
HETATM    5  F   UNL     1      -9.295   7.399  65.743  1.00  0.00    -0.141 F  
HETATM    6  C   UNL     1      -7.675   9.032  66.327  1.00  0.00    -0.095 A  
HETATM    7  C   UNL     1      -6.380   9.544  66.161  1.00  0.00    -0.069 A  
HETATM    8  C   UNL     1      -5.862   7.775  64.585  1.00  0.00    -0.041 A  
HETATM    9  C   UNL     1      -5.484   8.918  65.291  1.00  0.00    -0.038 A  
BRANCH   6  10
HETATM   10  C   UNL     1      -8.601   9.659  67.293  1.00  0.00    -0.132 C  
HETATM   11  C   UNL     1      -9.691  11.090  65.540  1.00  0.00    -0.274 C  
HETATM   12  C   UNL     1      -9.516  10.597  66.962  1.00  0.00    -0.164 C  
HETATM   13  N   UNL     1     -10.375  11.108  67.943  1.00  0.00    -0.180 N  
HETATM   14  C   UNL     1     -10.522  10.488  69.186  1.00  0.00    -0.228 C  
HETATM   15  C   UNL     1      -8.467   9.280  68.732  1.00  0.00    -0.129 C  
HETATM   16  O   UNL     1     -11.512  10.676  69.899  1.00  0.00    -0.266 OA 
HETATM   17  O   UNL     1      -7.476   8.662  69.122  1.00  0.00    -0.080 OA 
HETATM   18  N   UNL     1      -9.498   9.648  69.570  1.00  0.00    -0.186 N  
BRANCH  13  19
HETATM   19  C   UNL     1     -11.284  12.232  67.688  1.00  0.00    -0.290 C  
BRANCH  19  20
HETATM   20  C   UNL     1     -10.682  13.496  67.086  1.00  0.00    -0.282 A  
HETATM   21  F   UNL     1     -13.585  14.418  65.338  1.00  0.00    -0.311 F  
HETATM   22  C   UNL     1     -12.436  13.709  65.165  1.00  0.00    -0.449 C  
HETATM   23  C   UNL     1     -11.306  14.219  66.040  1.00  0.00    -0.335 A  
HETATM   24  F   UNL     1      -8.880  13.424  68.645  1.00  0.00    -0.168 F  
HETATM   25  C   UNL     1     -10.855  15.530  65.744  1.00  0.00    -0.337 A  
HETATM   26  C   UNL     1      -9.562  14.087  67.704  1.00  0.00    -0.221 A  
HETATM   27  F   UNL     1     -12.127  13.823  63.841  1.00  0.00    -0.454 F  
HETATM   28  F   UNL     1     -12.773  12.406  65.334  1.00  0.00    -0.479 F  
HETATM   29  C   UNL     1      -9.108  15.364  67.373  1.00  0.00    -0.206 A  
HETATM   30  C   UNL     1      -9.777  16.103  66.413  1.00  0.00    -0.308 A  
ENDBRANCH  19  20
ENDBRANCH  13  19
BRANCH  18  31
HETATM   31  C   UNL     1      -9.496   9.141  70.947  1.00  0.00    -0.276 C  
BRANCH  31  32
HETATM   32  C   UNL     1     -10.187   7.753  71.148  1.00  0.00    -0.195 C  
BRANCH  32  33
HETATM   33  N   UNL     1     -10.124   6.862  69.958  1.00  0.00    -0.180 NA 
HETATM   34  H   UNL     1      -9.929   7.408  69.119  1.00  0.00     0.000 HD 
BRANCH  33  35
HETATM   35  C   UNL     1      -9.181   5.753  70.067  1.00  0.00    -0.146 C  
BRANCH  35  36
HETATM   36  C   UNL     1      -9.533   4.640  69.068  1.00  0.00    -0.221 C  
BRANCH  36  37
HETATM   37  C   UNL     1      -8.885   4.832  67.697  1.00  0.00    -0.110 C  
HETATM   38  O   UNL     1      -9.416   3.422  65.816  1.00  0.00    -0.164 OA 
HETATM   39  C   UNL     1      -9.746   4.324  66.571  1.00  0.00    -0.219 C  
HETATM   40  O   UNL     1     -10.909   4.997  66.430  1.00  0.00    -0.257 OA 
ENDBRANCH  36  37
ENDBRANCH  35  36
ENDBRANCH  33  35
ENDBRANCH  32  33
BRANCH  32  41
HETATM   41  C   UNL     1     -11.662   7.886  71.541  1.00  0.00    -0.317 A  
HETATM   42  C   UNL     1     -13.965   7.119  71.342  1.00  0.00    -0.384 A  
HETATM   43  C   UNL     1     -13.475   9.062  72.677  1.00  0.00    -0.400 A  
HETATM   44  C   UNL     1     -12.608   6.983  71.033  1.00  0.00    -0.338 A  
HETATM   45  C   UNL     1     -12.117   8.922  72.379  1.00  0.00    -0.344 A  
HETATM   46  C   UNL     1     -14.399   8.159  72.160  1.00  0.00    -0.469 A  
ENDBRANCH  32  41
ENDBRANCH  31  32
ENDBRANCH  18  31
ENDBRANCH   6  10
ENDBRANCH   2   3
TORSDOF 11
ENDMDL
MODEL       38
REMARK 921   NORMALIZED FREE ENERGY PREDICTED BY IDOCK:   -5.80 KCAL/MOL
REMARK 922        TOTAL FREE ENERGY PREDICTED BY IDOCK:  -12.59 KCAL/MOL
REMARK 923 INTER-LIGAND FREE ENERGY PREDICTED BY IDOCK:   -9.75 KCAL/MOL
REMARK 924 INTRA-LIGAND FREE ENERGY PREDICTED BY IDOCK:   -2.85 KCAL/MOL
REMARK 927      BINDING AFFINITY PREDICTED BY RF-SCORE:    0.00 PKD
ROOT
HETATM    1  C   UNL     1      -9.974  17.382  66.484  1.00  0.00    -0.311 C  
HETATM    2  O   UNL     1      -9.599  16.422  65.491  1.00  0.00    -0.491 OA 
ENDROOT
BRANCH   2   3
HETATM    3  C   UNL     1     -10.487  15.392  65.323  1.00  0.00    -0.415 A  
HETATM    4  C   UNL     1     -10.172  14.172  65.937  1.00  0.00    -0.319 A  
HETATM    5  F   UNL     1      -9.034  14.063  66.645  1.00  0.00    -0.244 F  
HETATM    6  C   UNL     1     -11.031  13.069  65.836  1.00  0.00    -0.292 A  
HETATM    7  C   UNL     1     -12.206  13.190  65.080  1.00  0.00    -0.497 A  
HETATM    8  C   UNL     1     -11.653  15.493  64.556  1.00  0.00    -0.283 A  
HETATM    9  C   UNL     1     -12.509  14.397  64.442  1.00  0.00    -0.339 A  
BRANCH   6  10
HETATM   10  C   UNL     1     -10.744  11.813  66.560  1.00  0.00    -0.304 C  
HETATM   11  C   UNL     1     -11.907  12.581  68.650  1.00  0.00    -0.340 C  
HETATM   12  C   UNL     1     -11.123  11.573  67.835  1.00  0.00    -0.256 C  
HETATM   13  N   UNL     1     -10.834  10.337  68.425  1.00  0.00    -0.229 N  
HETATM   14  C   UNL     1     -10.425   9.237  67.666  1.00  0.00    -0.264 C  
HETATM   15  C   UNL     1      -9.924  10.778  65.860  1.00  0.00    -0.250 C  
HETATM   16  O   UNL     1     -10.531   8.079  68.080  1.00  0.00    -0.215 OA 
HETATM   17  O   UNL     1      -9.318  11.061  64.826  1.00  0.00    -0.211 OA 
HETATM   18  N   UNL     1      -9.899   9.521  66.423  1.00  0.00    -0.233 N  
BRANCH  13  19
HETATM   19  C   UNL     1     -11.080  10.064  69.847  1.00  0.00    -0.288 C  
BRANCH  19  20
HETATM   20  C   UNL     1      -9.960   9.393  70.634  1.00  0.00    -0.349 A  
HETATM   21  F   UNL     1     -11.903   6.652  71.657  1.00  0.00    -0.308 F  
HETATM   22  C   UNL     1     -11.541   7.896  72.074  1.00  0.00    -0.308 C  
HETATM   23  C   UNL     1     -10.190   8.317  71.527  1.00  0.00    -0.277 A  
HETATM   24  F   UNL     1      -8.334  10.767  69.563  1.00  0.00    -0.148 F  
HETATM   25  C   UNL     1      -9.086   7.553  71.982  1.00  0.00    -0.157 A  
HETATM   26  C   UNL     1      -8.621   9.714  70.337  1.00  0.00    -0.157 A  
HETATM   27  F   UNL     1     -11.526   7.839  73.437  1.00  0.00    -0.393 F  
HETATM   28  F   UNL     1     -12.582   8.710  71.770  1.00  0.00    -0.309 F  
HETATM   29  C   UNL     1      -7.545   8.973  70.825  1.00  0.00    -0.131 A  
HETATM   30  C   UNL     1      -7.778   7.868  71.624  1.00  0.00    -0.098 A  
ENDBRANCH  19  20
ENDBRANCH  13  19
BRANCH  18  31
HETATM   31  C   UNL     1      -9.260   8.431  65.676  1.00  0.00    -0.052 C  
BRANCH  31  32
HETATM   32  C   UNL     1      -7.697   8.419  65.719  1.00  0.00    -0.094 C  
BRANCH  32  33
HETATM   33  N   UNL     1      -7.056   7.906  64.478  1.00  0.00    -0.070 NA 
HETATM   34  H   UNL     1      -6.170   7.454  64.700  1.00  0.00     0.000 HD 
BRANCH  33  35
HETATM   35  C   UNL     1      -7.890   7.013  63.678  1.00  0.00    -0.112 C  
BRANCH  35  36
HETATM   36  C   UNL     1      -7.503   5.546  63.919  1.00  0.00    -0.062 C  
BRANCH  36  37
HETATM   37  C   UNL     1      -8.580   4.557  63.472  1.00  0.00    -0.125 C  
HETATM   38  O   UNL     1      -9.250   2.686  64.834  1.00  0.00    -0.136 OA 
HETATM   39  C   UNL     1      -9.273   3.890  64.631  1.00  0.00    -0.148 C  
HETATM   40  O   UNL     1      -9.976   4.742  65.408  1.00  0.00    -0.160 OA 
ENDBRANCH  36  37
ENDBRANCH  35  36
ENDBRANCH  33  35
ENDBRANCH  32  33
BRANCH  32  41
HETATM   41  C   UNL     1      -7.151   7.595  66.890  1.00  0.00    -0.084 A  
HETATM   42  C   UNL     1      -5.346   7.104  68.449  1.00  0.00    -0.021 A  
HETATM   43  C   UNL     1      -7.335   5.746  68.474  1.00  0.00    -0.084 A  
HETATM   44  C   UNL     1      -5.880   7.876  67.414  1.00  0.00    -0.038 A  
HETATM   45  C   UNL     1      -7.876   6.524  67.446  1.00  0.00    -0.112 A  
HETATM   46  C   UNL     1      -6.070   6.037  68.977  1.00  0.00    -0.032 A  
ENDBRANCH  32  41
ENDBRANCH  31  32
ENDBRANCH  18  31
ENDBRANCH   6  10
ENDBRANCH   2   3
TORSDOF 11
ENDMDL
MODEL       39
REMARK 921   NORMALIZED FREE ENERGY PREDICTED BY IDOCK:   -5.79 KCAL/MOL
REMARK 922        TOTAL FREE ENERGY PREDICTED BY IDOCK:  -12.57 KCAL/MOL
REMARK 923 INTER-LIGAND FREE ENERGY PREDICTED BY IDOCK:  -10.36 KCAL/MOL
REMARK 924 INTRA-LIGAND FREE ENERGY PREDICTED BY IDOCK:   -2.21 KCAL/MOL
REMARK 927      BINDING AFFINITY PREDICTED BY RF-SCORE:    0.00 PKD
ROOT
HETATM    1  C   UNL     1     -13.244  12.153  72.010  1.00  0.00    -0.391 C  
HETATM    2  O   UNL     1     -13.657  10.832  71.645  1.00  0.00    -0.192 OA 
ENDROOT
BRANCH   2   3
HETATM    3  C   UNL     1     -12.635   9.939  71.464  1.00  0.00    -0.416 A  
HETATM    4  C   UNL     1     -11.968   9.974  70.231  1.00  0.00    -0.187 A  
HETATM    5  F   UNL     1     -12.356  10.859  69.295  1.00  0.00    -0.383 F  
HETATM    6  C   UNL     1     -10.896   9.112  69.964  1.00  0.00    -0.256 A  
HETATM    7  C   UNL     1     -10.513   8.181  70.940  1.00  0.00    -0.229 A  
HETATM    8  C   UNL     1     -12.254   8.993  72.422  1.00  0.00    -0.322 A  
HETATM    9  C   UNL     1     -11.194   8.123  72.160  1.00  0.00    -0.393 A  
BRANCH   6  10
HETATM   10  C   UNL     1     -10.136   9.213  68.700  1.00  0.00    -0.212 C  
HETATM   11  C   UNL     1     -10.738   6.882  67.983  1.00  0.00    -0.276 C  
HETATM   12  C   UNL     1     -10.044   8.215  67.793  1.00  0.00    -0.204 C  
HETATM   13  N   UNL     1      -9.329   8.418  66.606  1.00  0.00    -0.176 N  
HETATM   14  C   UNL     1      -8.946   9.695  66.188  1.00  0.00    -0.154 C  
HETATM   15  C   UNL     1      -9.369  10.470  68.448  1.00  0.00    -0.158 C  
HETATM   16  O   UNL     1      -8.668   9.943  65.011  1.00  0.00    -0.151 OA 
HETATM   17  O   UNL     1      -9.186  11.279  69.358  1.00  0.00     0.139 OA 
HETATM   18  N   UNL     1      -8.902  10.666  67.166  1.00  0.00    -0.137 N  
BRANCH  13  19
HETATM   19  C   UNL     1      -9.061   7.336  65.651  1.00  0.00     0.131 C  
BRANCH  19  20
HETATM   20  C   UNL     1      -7.985   6.323  66.026  1.00  0.00    -0.114 A  
HETATM   21  F   UNL     1      -9.467   3.647  64.300  1.00  0.00    -0.122 F  
HETATM   22  C   UNL     1      -9.451   4.220  65.534  1.00  0.00    -0.176 C  
HETATM   23  C   UNL     1      -8.142   4.929  65.825  1.00  0.00    -0.112 A  
HETATM   24  F   UNL     1      -6.515   8.076  66.695  1.00  0.00    -0.050 F  
HETATM   25  C   UNL     1      -7.003   4.089  65.909  1.00  0.00    -0.065 A  
HETATM   26  C   UNL     1      -6.711   6.782  66.414  1.00  0.00    -0.049 A  
HETATM   27  F   UNL     1      -9.670   3.203  66.417  1.00  0.00    -0.147 F  
HETATM   28  F   UNL     1     -10.568   4.987  65.604  1.00  0.00    -0.222 F  
HETATM   29  C   UNL     1      -5.609   5.934  66.528  1.00  0.00    -0.013 A  
HETATM   30  C   UNL     1      -5.747   4.587  66.242  1.00  0.00    -0.022 A  
ENDBRANCH  19  20
ENDBRANCH  13  19
BRANCH  18  31
HETATM   31  C   UNL     1      -8.305  11.964  66.828  1.00  0.00    -0.153 C  
BRANCH  31  32
HETATM   32  C   UNL     1      -9.321  13.138  66.649  1.00  0.00    -0.239 C  
BRANCH  32  33
HETATM   33  N   UNL     1     -10.086  13.477  67.879  1.00  0.00    -0.242 NA 
HETATM   34  H   UNL     1      -9.897  12.793  68.611  1.00  0.00     0.000 HD 
BRANCH  33  35
HETATM   35  C   UNL     1      -9.872  14.829  68.387  1.00  0.00    -0.220 C  
BRANCH  35  36
HETATM   36  C   UNL     1     -11.026  15.754  67.973  1.00  0.00    -0.330 C  
BRANCH  36  37
HETATM   37  C   UNL     1     -10.552  17.074  67.364  1.00  0.00    -0.289 C  
HETATM   38  O   UNL     1      -8.698  17.187  65.828  1.00  0.00    -0.527 OA 
HETATM   39  C   UNL     1      -9.864  16.888  66.037  1.00  0.00    -0.258 C  
HETATM   40  O   UNL     1     -10.672  16.404  65.069  1.00  0.00    -0.638 OA 
ENDBRANCH  36  37
ENDBRANCH  35  36
ENDBRANCH  33  35
ENDBRANCH  32  33
BRANCH  32  41
HETATM   41  C   UNL     1     -10.339  12.865  65.538  1.00  0.00    -0.304 A  
HETATM   42  C   UNL     1     -12.643  12.469  64.853  1.00  0.00    -0.469 A  
HETATM   43  C   UNL     1     -10.884  12.362  63.211  1.00  0.00    -0.300 A  
HETATM   44  C   UNL     1     -11.704  12.766  65.846  1.00  0.00    -0.464 A  
HETATM   45  C   UNL     1      -9.946  12.670  64.200  1.00  0.00    -0.196 A  
HETATM   46  C   UNL     1     -12.233  12.263  63.538  1.00  0.00    -0.669 A  
ENDBRANCH  32  41
ENDBRANCH  31  32
ENDBRANCH  18  31
ENDBRANCH   6  10
ENDBRANCH   2   3
TORSDOF 11
ENDMDL
MODEL       40
REMARK 921   NORMALIZED FREE ENERGY PREDICTED BY IDOCK:   -5.76 KCAL/MOL
REMARK 922        TOTAL FREE ENERGY PREDICTED BY IDOCK:  -12.52 KCAL/MOL
REMARK 923 INTER-LIGAND FREE ENERGY PREDICTED BY IDOCK:  -10.48 KCAL/MOL
REMARK 924 INTRA-LIGAND FREE ENERGY PREDICTED BY IDOCK:   -2.04 KCAL/MOL
REMARK 927      BINDING AFFINITY PREDICTED BY RF-SCORE:    0.00 PKD
ROOT
HETATM    1  C   UNL     1      -5.445   6.976  62.432  1.00  0.00    -0.036 C  
HETATM    2  O   UNL     1      -6.297   7.798  63.237  1.00  0.00    -0.065 OA 
ENDROOT
BRANCH   2   3
HETATM    3  C   UNL     1      -7.146   7.111  64.063  1.00  0.00    -0.064 A  
HETATM    4  C   UNL     1      -7.345   7.632  65.350  1.00  0.00    -0.071 A  
HETATM    5  F   UNL     1      -6.704   8.757  65.712  1.00  0.00    -0.064 F  
HETATM    6  C   UNL     1      -8.211   7.007  66.256  1.00  0.00    -0.120 A  
HETATM    7  C   UNL     1      -8.860   5.825  65.872  1.00  0.00    -0.153 A  
HETATM    8  C   UNL     1      -7.785   5.920  63.700  1.00  0.00    -0.099 A  
HETATM    9  C   UNL     1      -8.641   5.286  64.601  1.00  0.00    -0.125 A  
BRANCH   6  10
HETATM   10  C   UNL     1      -8.491   7.608  67.577  1.00  0.00    -0.116 C  
HETATM   11  C   UNL     1      -7.360   5.745  68.826  1.00  0.00    -0.084 C  
HETATM   12  C   UNL     1      -8.122   7.052  68.753  1.00  0.00    -0.121 C  
HETATM   13  N   UNL     1      -8.401   7.715  69.954  1.00  0.00    -0.130 N  
HETATM   14  C   UNL     1      -8.788   9.058  69.980  1.00  0.00    -0.173 C  
HETATM   15  C   UNL     1      -9.289   8.871  67.613  1.00  0.00    -0.136 C  
HETATM   16  O   UNL     1      -8.671   9.754  70.993  1.00  0.00    -0.097 OA 
HETATM   17  O   UNL     1      -9.888   9.255  66.608  1.00  0.00    -0.204 OA 
HETATM   18  N   UNL     1      -9.304   9.563  68.805  1.00  0.00    -0.145 N  
BRANCH  13  19
HETATM   19  C   UNL     1      -8.167   7.102  71.268  1.00  0.00    -0.108 C  
BRANCH  19  20
HETATM   20  C   UNL     1      -9.232   6.147  71.793  1.00  0.00    -0.149 A  
HETATM   21  F   UNL     1      -7.050   4.383  73.905  1.00  0.00    -0.060 F  
HETATM   22  C   UNL     1      -7.545   4.344  72.638  1.00  0.00    -0.080 C  
HETATM   23  C   UNL     1      -8.917   4.981  72.534  1.00  0.00    -0.137 A  
HETATM   24  F   UNL     1     -10.962   7.560  70.962  1.00  0.00    -0.238 F  
HETATM   25  C   UNL     1      -9.950   4.316  73.242  1.00  0.00    -0.184 A  
HETATM   26  C   UNL     1     -10.590   6.516  71.711  1.00  0.00    -0.215 A  
HETATM   27  F   UNL     1      -7.585   3.023  72.298  1.00  0.00    -0.047 F  
HETATM   28  F   UNL     1      -6.583   4.879  71.845  1.00  0.00    -0.032 F  
HETATM   29  C   UNL     1     -11.598   5.826  72.384  1.00  0.00    -0.320 A  
HETATM   30  C   UNL     1     -11.274   4.741  73.181  1.00  0.00    -0.390 A  
ENDBRANCH  19  20
ENDBRANCH  13  19
BRANCH  18  31
HETATM   31  C   UNL     1      -9.921  10.895  68.834  1.00  0.00    -0.196 C  
BRANCH  31  32
HETATM   32  C   UNL     1     -11.482  10.908  68.762  1.00  0.00    -0.308 C  
BRANCH  32  33
HETATM   33  N   UNL     1     -12.030  11.448  67.488  1.00  0.00    -0.601 NA 
HETATM   34  H   UNL     1     -12.921  11.913  67.657  1.00  0.00     0.000 HD 
BRANCH  33  35
HETATM   35  C   UNL     1     -11.129  12.335  66.757  1.00  0.00    -0.296 C  
BRANCH  35  36
HETATM   36  C   UNL     1     -11.909  13.496  66.120  1.00  0.00    -0.426 C  
BRANCH  36  37
HETATM   37  C   UNL     1     -11.572  13.710  64.644  1.00  0.00    -0.393 C  
HETATM   38  O   UNL     1     -10.891  11.898  63.207  1.00  0.00    -0.385 OA 
HETATM   39  C   UNL     1     -11.783  12.470  63.815  1.00  0.00    -0.485 C  
HETATM   40  O   UNL     1     -13.072  12.070  63.756  1.00  0.00    -0.730 OA 
ENDBRANCH  36  37
ENDBRANCH  35  36
ENDBRANCH  33  35
ENDBRANCH  32  33
BRANCH  32  41
HETATM   41  C   UNL     1     -12.113  11.708  69.906  1.00  0.00    -0.373 A  
HETATM   42  C   UNL     1     -12.542  13.850  70.983  1.00  0.00    -0.444 A  
HETATM   43  C   UNL     1     -13.285  11.821  72.045  1.00  0.00    -0.460 A  
HETATM   44  C   UNL     1     -12.015  13.107  69.922  1.00  0.00    -0.387 A  
HETATM   45  C   UNL     1     -12.769  11.077  70.981  1.00  0.00    -0.485 A  
HETATM   46  C   UNL     1     -13.173  13.208  72.045  1.00  0.00    -0.543 A  
ENDBRANCH  32  41
ENDBRANCH  31  32
ENDBRANCH  18  31
ENDBRANCH   6  10
ENDBRANCH   2   3
TORSDOF 11
ENDMDL
MODEL       41
REMARK 921   NORMALIZED FREE ENERGY PREDICTED BY IDOCK:   -5.76 KCAL/MOL
REMARK 922        TOTAL FREE ENERGY PREDICTED BY IDOCK:  -12.52 KCAL/MOL
REMARK 923 INTER-LIGAND FREE ENERGY PREDICTED BY IDOCK:  -10.66 KCAL/MOL
REMARK 924 INTRA-LIGAND FREE ENERGY PREDICTED BY IDOCK:   -1.86 KCAL/MOL
REMARK 927      BINDING AFFINITY PREDICTED BY RF-SCORE:    0.00 PKD
ROOT
HETATM    1  C   UNL     1      -6.599   7.828  62.710  1.00  0.00    -0.076 C  
HETATM    2  O   UNL     1      -6.859   9.235  62.743  1.00  0.00    -0.094 OA 
ENDROOT
BRANCH   2   3
HETATM    3  C   UNL     1      -6.678   9.824  63.966  1.00  0.00    -0.120 A  
HETATM    4  C   UNL     1      -7.795   9.900  64.810  1.00  0.00    -0.141 A  
HETATM    5  F   UNL     1      -8.974   9.407  64.390  1.00  0.00    -0.217 F  
HETATM    6  C   UNL     1      -7.699  10.468  66.087  1.00  0.00    -0.142 A  
HETATM    7  C   UNL     1      -6.469  10.994  66.506  1.00  0.00    -0.132 A  
HETATM    8  C   UNL     1      -5.461  10.371  64.389  1.00  0.00    -0.142 A  
HETATM    9  C   UNL     1      -5.360  10.947  65.656  1.00  0.00    -0.138 A  
BRANCH   6  10
HETATM   10  C   UNL     1      -8.854  10.463  67.009  1.00  0.00    -0.143 C  
HETATM   11  C   UNL     1      -8.343   8.157  67.868  1.00  0.00    -0.129 C  
HETATM   12  C   UNL     1      -9.169   9.427  67.818  1.00  0.00    -0.128 C  
HETATM   13  N   UNL     1     -10.265   9.529  68.685  1.00  0.00    -0.188 N  
HETATM   14  C   UNL     1     -10.875  10.756  68.957  1.00  0.00    -0.235 C  
HETATM   15  C   UNL     1      -9.764  11.647  66.992  1.00  0.00    -0.186 C  
HETATM   16  O   UNL     1     -11.562  10.937  69.966  1.00  0.00    -0.284 OA 
HETATM   17  O   UNL     1      -9.689  12.475  66.083  1.00  0.00    -0.254 OA 
HETATM   18  N   UNL     1     -10.660  11.758  68.034  1.00  0.00    -0.199 N  
BRANCH  13  19
HETATM   19  C   UNL     1     -10.754   8.393  69.476  1.00  0.00    -0.175 C  
BRANCH  19  20
HETATM   20  C   UNL     1     -10.387   8.362  70.955  1.00  0.00    -0.244 A  
HETATM   21  F   UNL     1     -13.129   6.387  71.911  1.00  0.00    -0.355 F  
HETATM   22  C   UNL     1     -12.771   7.694  71.782  1.00  0.00    -0.330 C  
HETATM   23  C   UNL     1     -11.279   7.903  71.956  1.00  0.00    -0.339 A  
HETATM   24  F   UNL     1      -8.184   9.128  70.463  1.00  0.00    -0.109 F  
HETATM   25  C   UNL     1     -10.773   7.618  73.250  1.00  0.00    -0.409 A  
HETATM   26  C   UNL     1      -9.057   8.619  71.341  1.00  0.00    -0.229 A  
HETATM   27  F   UNL     1     -13.480   8.367  72.733  1.00  0.00    -0.244 F  
HETATM   28  F   UNL     1     -13.292   8.108  70.600  1.00  0.00     0.095 F  
HETATM   29  C   UNL     1      -8.586   8.367  72.629  1.00  0.00    -0.241 A  
HETATM   30  C   UNL     1      -9.438   7.832  73.580  1.00  0.00    -0.346 A  
ENDBRANCH  19  20
ENDBRANCH  13  19
BRANCH  18  31
HETATM   31  C   UNL     1     -11.444  12.993  68.155  1.00  0.00    -0.319 C  
BRANCH  31  32
HETATM   32  C   UNL     1     -10.719  14.174  68.880  1.00  0.00    -0.256 C  
BRANCH  32  33
HETATM   33  N   UNL     1      -9.283  13.919  69.174  1.00  0.00    -0.363 NA 
HETATM   34  H   UNL     1      -9.066  12.931  69.045  1.00  0.00     0.000 HD 
BRANCH  33  35
HETATM   35  C   UNL     1      -8.343  14.744  68.420  1.00  0.00    -0.154 C  
BRANCH  35  36
HETATM   36  C   UNL     1      -9.093  15.729  67.511  1.00  0.00    -0.201 C  
BRANCH  36  37
HETATM   37  C   UNL     1      -8.203  16.353  66.434  1.00  0.00    -0.366 C  
HETATM   38  O   UNL     1      -8.121  18.731  66.056  1.00  0.00    -0.439 OA 
HETATM   39  C   UNL     1      -7.818  17.774  66.751  1.00  0.00    -0.233 C  
HETATM   40  O   UNL     1      -7.052  17.896  67.857  1.00  0.00    -0.202 OA 
ENDBRANCH  36  37
ENDBRANCH  35  36
ENDBRANCH  33  35
ENDBRANCH  32  33
BRANCH  32  41
HETATM   41  C   UNL     1     -11.396  14.552  70.201  1.00  0.00    -0.250 A  
HETATM   42  C   UNL     1     -13.242  14.281  71.767  1.00  0.00    -0.444 A  
HETATM   43  C   UNL     1     -11.546  15.932  72.210  1.00  0.00    -0.501 A  
HETATM   44  C   UNL     1     -12.584  13.915  70.589  1.00  0.00    -0.405 A  
HETATM   45  C   UNL     1     -10.881  15.559  71.039  1.00  0.00    -0.203 A  
HETATM   46  C   UNL     1     -12.726  15.291  72.575  1.00  0.00    -0.449 A  
ENDBRANCH  32  41
ENDBRANCH  31  32
ENDBRANCH  18  31
ENDBRANCH   6  10
ENDBRANCH   2   3
TORSDOF 11
ENDMDL
MODEL       42
REMARK 921   NORMALIZED FREE ENERGY PREDICTED BY IDOCK:   -5.71 KCAL/MOL
REMARK 922        TOTAL FREE ENERGY PREDICTED BY IDOCK:  -12.44 KCAL/MOL
REMARK 923 INTER-LIGAND FREE ENERGY PREDICTED BY IDOCK:  -10.71 KCAL/MOL
REMARK 924 INTRA-LIGAND FREE ENERGY PREDICTED BY IDOCK:   -1.73 KCAL/MOL
REMARK 927      BINDING AFFINITY PREDICTED BY RF-SCORE:    0.00 PKD
ROOT
HETATM    1  C   UNL     1      -5.714  20.715  64.125  1.00  0.00    -0.253 C  
HETATM    2  O   UNL     1      -6.621  21.237  65.101  1.00  0.00    -0.020 OA 
ENDROOT
BRANCH   2   3
HETATM    3  C   UNL     1      -6.463  20.729  66.363  1.00  0.00    -0.258 A  
HETATM    4  C   UNL     1      -7.107  19.517  66.648  1.00  0.00    -0.215 A  
HETATM    5  F   UNL     1      -7.843  18.921  65.694  1.00  0.00    -0.238 F  
HETATM    6  C   UNL     1      -6.986  18.912  67.906  1.00  0.00    -0.247 A  
HETATM    7  C   UNL     1      -6.230  19.553  68.898  1.00  0.00    -0.293 A  
HETATM    8  C   UNL     1      -5.728  21.367  67.369  1.00  0.00    -0.427 A  
HETATM    9  C   UNL     1      -5.610  20.776  68.627  1.00  0.00    -0.382 A  
BRANCH   6  10
HETATM   10  C   UNL     1      -7.590  17.590  68.175  1.00  0.00    -0.221 C  
HETATM   11  C   UNL     1      -5.595  16.339  67.297  1.00  0.00    -0.127 C  
HETATM   12  C   UNL     1      -6.983  16.413  67.901  1.00  0.00    -0.139 C  
HETATM   13  N   UNL     1      -7.622  15.210  68.224  1.00  0.00    -0.105 N  
HETATM   14  C   UNL     1      -8.730  15.171  69.074  1.00  0.00    -0.215 C  
HETATM   15  C   UNL     1      -8.982  17.557  68.716  1.00  0.00    -0.211 C  
HETATM   16  O   UNL     1      -9.067  14.141  69.665  1.00  0.00     0.542 OA 
HETATM   17  O   UNL     1      -9.675  18.575  68.709  1.00  0.00    -0.357 OA 
HETATM   18  N   UNL     1      -9.425  16.353  69.219  1.00  0.00    -0.224 N  
BRANCH  13  19
HETATM   19  C   UNL     1      -7.093  13.901  67.819  1.00  0.00    -0.172 C  
BRANCH  19  20
HETATM   20  C   UNL     1      -6.712  12.927  68.928  1.00  0.00    -0.097 A  
HETATM   21  F   UNL     1      -7.686  10.053  67.161  1.00  0.00    -0.091 F  
HETATM   22  C   UNL     1      -8.185  10.963  68.041  1.00  0.00    -0.121 C  
HETATM   23  C   UNL     1      -7.106  11.566  68.921  1.00  0.00    -0.111 A  
HETATM   24  F   UNL     1      -5.427  14.613  70.018  1.00  0.00    -0.096 F  
HETATM   25  C   UNL     1      -6.471  10.662  69.808  1.00  0.00    -0.110 A  
HETATM   26  C   UNL     1      -5.781  13.328  69.907  1.00  0.00    -0.122 A  
HETATM   27  F   UNL     1      -9.110  10.291  68.784  1.00  0.00    -0.130 F  
HETATM   28  F   UNL     1      -8.904  11.843  67.300  1.00  0.00    -0.157 F  
HETATM   29  C   UNL     1      -5.194  12.429  70.797  1.00  0.00    -0.150 A  
HETATM   30  C   UNL     1      -5.514  11.084  70.727  1.00  0.00    -0.124 A  
ENDBRANCH  19  20
ENDBRANCH  13  19
BRANCH  18  31
HETATM   31  C   UNL     1     -10.712  16.319  69.925  1.00  0.00    -0.322 C  
BRANCH  31  32
HETATM   32  C   UNL     1     -11.945  15.934  69.044  1.00  0.00    -0.230 C  
BRANCH  32  33
HETATM   33  N   UNL     1     -12.905  15.012  69.710  1.00  0.00    -0.600 NA 
HETATM   34  H   UNL     1     -12.517  14.071  69.756  1.00  0.00     0.000 HD 
BRANCH  33  35
HETATM   35  C   UNL     1     -13.352  15.438  71.033  1.00  0.00    -0.480 C  
BRANCH  35  36
HETATM   36  C   UNL     1     -14.186  14.337  71.705  1.00  0.00    -0.540 C  
BRANCH  36  37
HETATM   37  C   UNL     1     -13.345  13.361  72.528  1.00  0.00    -0.588 C  
HETATM   38  O   UNL     1     -13.376  10.985  72.127  1.00  0.00    -0.451 OA 
HETATM   39  C   UNL     1     -13.018  12.098  71.775  1.00  0.00    -0.332 C  
HETATM   40  O   UNL     1     -12.238  12.299  70.691  1.00  0.00    -0.371 OA 
ENDBRANCH  36  37
ENDBRANCH  35  36
ENDBRANCH  33  35
ENDBRANCH  32  33
BRANCH  32  41
HETATM   41  C   UNL     1     -11.536  15.287  67.717  1.00  0.00    -0.312 A  
HETATM   42  C   UNL     1     -10.674  15.511  65.451  1.00  0.00    -0.422 A  
HETATM   43  C   UNL     1     -11.385  13.350  66.238  1.00  0.00    -0.329 A  
HETATM   44  C   UNL     1     -11.007  16.076  66.685  1.00  0.00    -0.092 A  
HETATM   45  C   UNL     1     -11.708  13.910  67.477  1.00  0.00    -0.416 A  
HETATM   46  C   UNL     1     -10.866  14.150  65.225  1.00  0.00    -0.356 A  
ENDBRANCH  32  41
ENDBRANCH  31  32
ENDBRANCH  18  31
ENDBRANCH   6  10
ENDBRANCH   2   3
TORSDOF 11
ENDMDL
MODEL       43
REMARK 921   NORMALIZED FREE ENERGY PREDICTED BY IDOCK:   -5.70 KCAL/MOL
REMARK 922        TOTAL FREE ENERGY PREDICTED BY IDOCK:  -12.42 KCAL/MOL
REMARK 923 INTER-LIGAND FREE ENERGY PREDICTED BY IDOCK:   -9.91 KCAL/MOL
REMARK 924 INTRA-LIGAND FREE ENERGY PREDICTED BY IDOCK:   -2.51 KCAL/MOL
REMARK 927      BINDING AFFINITY PREDICTED BY RF-SCORE:    0.00 PKD
ROOT
HETATM    1  C   UNL     1     -10.859  16.092  67.836  1.00  0.00    -0.332 C  
HETATM    2  O   UNL     1      -9.682  15.453  67.331  1.00  0.00    -0.214 OA 
ENDROOT
BRANCH   2   3
HETATM    3  C   UNL     1      -9.917  14.373  66.522  1.00  0.00    -0.283 A  
HETATM    4  C   UNL     1      -9.588  13.110  67.034  1.00  0.00    -0.241 A  
HETATM    5  F   UNL     1      -9.061  13.014  68.267  1.00  0.00    -0.184 F  
HETATM    6  C   UNL     1      -9.812  11.946  66.285  1.00  0.00    -0.246 A  
HETATM    7  C   UNL     1     -10.345  12.061  64.994  1.00  0.00    -0.318 A  
HETATM    8  C   UNL     1     -10.430  14.474  65.224  1.00  0.00    -0.411 A  
HETATM    9  C   UNL     1     -10.647  13.321  64.469  1.00  0.00    -0.437 A  
BRANCH   6  10
HETATM   10  C   UNL     1      -9.550  10.610  66.862  1.00  0.00    -0.200 C  
HETATM   11  C   UNL     1      -7.276  10.441  65.807  1.00  0.00    -0.143 C  
HETATM   12  C   UNL     1      -8.415   9.908  66.653  1.00  0.00    -0.125 C  
HETATM   13  N   UNL     1      -8.243   8.663  67.271  1.00  0.00    -0.105 N  
HETATM   14  C   UNL     1      -9.067   8.242  68.319  1.00  0.00    -0.135 C  
HETATM   15  C   UNL     1     -10.638   9.973  67.665  1.00  0.00    -0.270 C  
HETATM   16  O   UNL     1      -8.722   7.362  69.111  1.00  0.00    -0.136 OA 
HETATM   17  O   UNL     1     -11.779  10.436  67.642  1.00  0.00    -0.309 OA 
HETATM   18  N   UNL     1     -10.289   8.873  68.419  1.00  0.00    -0.200 N  
BRANCH  13  19
HETATM   19  C   UNL     1      -7.108   7.782  66.971  1.00  0.00    -0.085 C  
BRANCH  19  20
HETATM   20  C   UNL     1      -7.410   6.475  66.247  1.00  0.00    -0.073 A  
HETATM   21  F   UNL     1      -7.449   4.511  69.158  1.00  0.00    -0.054 F  
HETATM   22  C   UNL     1      -6.594   4.929  68.186  1.00  0.00    -0.049 C  
HETATM   23  C   UNL     1      -7.304   5.209  66.874  1.00  0.00    -0.086 A  
HETATM   24  F   UNL     1      -8.056   7.668  64.287  1.00  0.00    -0.133 F  
HETATM   25  C   UNL     1      -7.886   4.079  66.247  1.00  0.00    -0.090 A  
HETATM   26  C   UNL     1      -7.997   6.516  64.966  1.00  0.00    -0.121 A  
HETATM   27  F   UNL     1      -5.675   3.931  68.048  1.00  0.00    -0.018 F  
HETATM   28  F   UNL     1      -5.904   5.969  68.718  1.00  0.00    -0.010 F  
HETATM   29  C   UNL     1      -8.530   5.386  64.348  1.00  0.00    -0.106 A  
HETATM   30  C   UNL     1      -8.506   4.167  65.004  1.00  0.00    -0.115 A  
ENDBRANCH  19  20
ENDBRANCH  13  19
BRANCH  18  31
HETATM   31  C   UNL     1     -11.276   8.329  69.360  1.00  0.00     0.233 C  
BRANCH  31  32
HETATM   32  C   UNL     1     -11.435   9.127  70.695  1.00  0.00    -0.262 C  
BRANCH  32  33
HETATM   33  N   UNL     1     -11.091  10.571  70.587  1.00  0.00    -0.420 NA 
HETATM   34  H   UNL     1     -10.476  10.728  69.789  1.00  0.00     0.000 HD 
BRANCH  33  35
HETATM   35  C   UNL     1     -12.237  11.474  70.525  1.00  0.00    -0.377 C  
BRANCH  35  36
HETATM   36  C   UNL     1     -12.813  11.719  71.928  1.00  0.00    -0.338 C  
BRANCH  36  37
HETATM   37  C   UNL     1     -13.619  13.015  72.032  1.00  0.00    -0.530 C  
HETATM   38  O   UNL     1     -13.004  14.792  73.539  1.00  0.00    -0.525 OA 
HETATM   39  C   UNL     1     -12.788  14.179  72.505  1.00  0.00    -0.343 C  
HETATM   40  O   UNL     1     -11.802  14.526  71.649  1.00  0.00    -0.320 OA 
ENDBRANCH  36  37
ENDBRANCH  35  36
ENDBRANCH  33  35
ENDBRANCH  32  33
BRANCH  32  41
HETATM   41  C   UNL     1     -10.590   8.541  71.831  1.00  0.00    -0.392 A  
HETATM   42  C   UNL     1     -10.432   7.167  73.835  1.00  0.00    -0.288 A  
HETATM   43  C   UNL     1      -8.495   8.377  73.074  1.00  0.00    -0.209 A  
HETATM   44  C   UNL     1     -11.175   7.673  72.765  1.00  0.00    -0.431 A  
HETATM   45  C   UNL     1      -9.232   8.875  71.996  1.00  0.00    -0.187 A  
HETATM   46  C   UNL     1      -9.094   7.521  73.992  1.00  0.00    -0.295 A  
ENDBRANCH  32  41
ENDBRANCH  31  32
ENDBRANCH  18  31
ENDBRANCH   6  10
ENDBRANCH   2   3
TORSDOF 11
ENDMDL
MODEL       44
REMARK 921   NORMALIZED FREE ENERGY PREDICTED BY IDOCK:   -5.70 KCAL/MOL
REMARK 922        TOTAL FREE ENERGY PREDICTED BY IDOCK:  -12.42 KCAL/MOL
REMARK 923 INTER-LIGAND FREE ENERGY PREDICTED BY IDOCK:  -11.40 KCAL/MOL
REMARK 924 INTRA-LIGAND FREE ENERGY PREDICTED BY IDOCK:   -1.02 KCAL/MOL
REMARK 927      BINDING AFFINITY PREDICTED BY RF-SCORE:    0.00 PKD
ROOT
HETATM    1  C   UNL     1     -11.073   6.059  72.523  1.00  0.00    -0.279 C  
HETATM    2  O   UNL     1     -11.180   7.417  72.962  1.00  0.00    -0.336 OA 
ENDROOT
BRANCH   2   3
HETATM    3  C   UNL     1     -11.932   8.226  72.152  1.00  0.00    -0.369 A  
HETATM    4  C   UNL     1     -11.273   9.294  71.528  1.00  0.00    -0.386 A  
HETATM    5  F   UNL     1      -9.959   9.481  71.751  1.00  0.00    -0.321 F  
HETATM    6  C   UNL     1     -11.957  10.162  70.666  1.00  0.00    -0.423 A  
HETATM    7  C   UNL     1     -13.329   9.968  70.456  1.00  0.00     0.034 A  
HETATM    8  C   UNL     1     -13.306   8.056  71.948  1.00  0.00    -0.336 A  
HETATM    9  C   UNL     1     -13.997   8.921  71.099  1.00  0.00    -0.114 A  
BRANCH   6  10
HETATM   10  C   UNL     1     -11.241  11.231  69.939  1.00  0.00    -0.264 C  
HETATM   11  C   UNL     1     -12.709  13.046  70.867  1.00  0.00    -0.299 C  
HETATM   12  C   UNL     1     -11.568  12.540  70.008  1.00  0.00    -0.130 C  
HETATM   13  N   UNL     1     -10.807  13.486  69.309  1.00  0.00    -0.130 N  
HETATM   14  C   UNL     1      -9.556  13.170  68.772  1.00  0.00     0.082 C  
HETATM   15  C   UNL     1     -10.135  10.827  69.018  1.00  0.00    -0.211 C  
HETATM   16  O   UNL     1      -8.722  14.039  68.499  1.00  0.00    -0.181 OA 
HETATM   17  O   UNL     1      -9.991   9.645  68.702  1.00  0.00    -0.157 OA 
HETATM   18  N   UNL     1      -9.303  11.830  68.569  1.00  0.00    -0.186 N  
BRANCH  13  19
HETATM   19  C   UNL     1     -11.193  14.899  69.216  1.00  0.00    -0.284 C  
BRANCH  19  20
HETATM   20  C   UNL     1     -11.154  15.546  67.837  1.00  0.00    -0.321 A  
HETATM   21  F   UNL     1      -8.788  17.990  68.711  1.00  0.00    -0.291 F  
HETATM   22  C   UNL     1     -10.135  17.804  68.658  1.00  0.00    -0.384 C  
HETATM   23  C   UNL     1     -10.538  16.799  67.596  1.00  0.00    -0.325 A  
HETATM   24  F   UNL     1     -12.230  13.649  66.876  1.00  0.00    -0.414 F  
HETATM   25  C   UNL     1     -10.273  17.190  66.259  1.00  0.00    -0.340 A  
HETATM   26  C   UNL     1     -11.573  14.804  66.715  1.00  0.00    -0.324 A  
HETATM   27  F   UNL     1     -10.668  19.034  68.403  1.00  0.00    -0.364 F  
HETATM   28  F   UNL     1     -10.522  17.513  69.926  1.00  0.00    -0.172 F  
HETATM   29  C   UNL     1     -11.336  15.222  65.406  1.00  0.00    -0.253 A  
HETATM   30  C   UNL     1     -10.654  16.404  65.176  1.00  0.00    -0.287 A  
ENDBRANCH  19  20
ENDBRANCH  13  19
BRANCH  18  31
HETATM   31  C   UNL     1      -8.101  11.457  67.815  1.00  0.00    -0.121 C  
BRANCH  31  32
HETATM   32  C   UNL     1      -8.298  11.319  66.270  1.00  0.00    -0.142 C  
BRANCH  32  33
HETATM   33  N   UNL     1      -9.721  11.223  65.843  1.00  0.00    -0.215 NA 
HETATM   34  H   UNL     1     -10.076  12.145  65.589  1.00  0.00     0.000 HD 
BRANCH  33  35
HETATM   35  C   UNL     1      -9.979  10.271  64.767  1.00  0.00    -0.321 C  
BRANCH  35  36
HETATM   36  C   UNL     1     -10.426  11.000  63.491  1.00  0.00    -0.365 C  
BRANCH  36  37
HETATM   37  C   UNL     1     -10.753  12.475  63.723  1.00  0.00    -0.483 C  
HETATM   38  O   UNL     1     -12.596  13.570  62.622  1.00  0.00    -0.218 OA 
HETATM   39  C   UNL     1     -12.205  12.793  63.479  1.00  0.00    -0.525 C  
HETATM   40  O   UNL     1     -13.047  12.179  64.338  1.00  0.00    -0.740 OA 
ENDBRANCH  36  37
ENDBRANCH  35  36
ENDBRANCH  33  35
ENDBRANCH  32  33
BRANCH  32  41
HETATM   41  C   UNL     1      -7.565  10.104  65.693  1.00  0.00    -0.144 A  
HETATM   42  C   UNL     1      -6.096   9.147  64.003  1.00  0.00    -0.076 A  
HETATM   43  C   UNL     1      -7.096   7.708  65.655  1.00  0.00    -0.061 A  
HETATM   44  C   UNL     1      -6.734  10.252  64.573  1.00  0.00    -0.076 A  
HETATM   45  C   UNL     1      -7.726   8.814  66.233  1.00  0.00    -0.098 A  
HETATM   46  C   UNL     1      -6.279   7.875  64.541  1.00  0.00    -0.052 A  
ENDBRANCH  32  41
ENDBRANCH  31  32
ENDBRANCH  18  31
ENDBRANCH   6  10
ENDBRANCH   2   3
TORSDOF 11
ENDMDL
MODEL       45
REMARK 921   NORMALIZED FREE ENERGY PREDICTED BY IDOCK:   -5.70 KCAL/MOL
REMARK 922        TOTAL FREE ENERGY PREDICTED BY IDOCK:  -12.42 KCAL/MOL
REMARK 923 INTER-LIGAND FREE ENERGY PREDICTED BY IDOCK:  -11.04 KCAL/MOL
REMARK 924 INTRA-LIGAND FREE ENERGY PREDICTED BY IDOCK:   -1.37 KCAL/MOL
REMARK 927      BINDING AFFINITY PREDICTED BY RF-SCORE:    0.00 PKD
ROOT
HETATM    1  C   UNL     1     -10.832  17.486  65.083  1.00  0.00     0.233 C  
HETATM    2  O   UNL     1     -10.727  16.071  64.892  1.00  0.00    -0.576 OA 
ENDROOT
BRANCH   2   3
HETATM    3  C   UNL     1      -9.832  15.444  65.718  1.00  0.00    -0.364 A  
HETATM    4  C   UNL     1     -10.129  14.127  66.096  1.00  0.00    -0.313 A  
HETATM    5  F   UNL     1     -11.257  13.549  65.647  1.00  0.00    -0.293 F  
HETATM    6  C   UNL     1      -9.262  13.400  66.923  1.00  0.00    -0.251 A  
HETATM    7  C   UNL     1      -8.097  14.019  67.399  1.00  0.00    -0.199 A  
HETATM    8  C   UNL     1      -8.677  16.056  66.216  1.00  0.00    -0.372 A  
HETATM    9  C   UNL     1      -7.813  15.342  67.048  1.00  0.00    -0.244 A  
BRANCH   6  10
HETATM   10  C   UNL     1      -9.530  11.982  67.245  1.00  0.00    -0.181 C  
HETATM   11  C   UNL     1      -8.847  11.184  64.963  1.00  0.00    -0.021 C  
HETATM   12  C   UNL     1      -9.357  10.964  66.373  1.00  0.00    -0.176 C  
HETATM   13  N   UNL     1      -9.605   9.648  66.781  1.00  0.00    -0.163 N  
HETATM   14  C   UNL     1      -9.748   9.312  68.130  1.00  0.00    -0.150 C  
HETATM   15  C   UNL     1     -10.092  11.669  68.593  1.00  0.00    -0.198 C  
HETATM   16  O   UNL     1      -9.587   8.158  68.538  1.00  0.00    -0.146 OA 
HETATM   17  O   UNL     1     -10.534  12.570  69.307  1.00  0.00     0.022 OA 
HETATM   18  N   UNL     1     -10.075  10.346  68.981  1.00  0.00    -0.202 N  
BRANCH  13  19
HETATM   19  C   UNL     1      -9.585   8.515  65.849  1.00  0.00    -0.094 C  
BRANCH  19  20
HETATM   20  C   UNL     1      -8.572   7.407  66.116  1.00  0.00    -0.154 A  
HETATM   21  F   UNL     1     -10.816   4.780  65.486  1.00  0.00    -0.298 F  
HETATM   22  C   UNL     1     -10.353   5.541  66.515  1.00  0.00    -0.256 C  
HETATM   23  C   UNL     1      -8.945   6.048  66.269  1.00  0.00    -0.156 A  
HETATM   24  F   UNL     1      -6.773   8.963  65.956  1.00  0.00    -0.064 F  
HETATM   25  C   UNL     1      -7.942   5.049  66.209  1.00  0.00    -0.107 A  
HETATM   26  C   UNL     1      -7.196   7.695  66.024  1.00  0.00    -0.070 A  
HETATM   27  F   UNL     1     -10.406   4.742  67.619  1.00  0.00    -0.196 F  
HETATM   28  F   UNL     1     -11.296   6.493  66.727  1.00  0.00    -0.460 F  
HETATM   29  C   UNL     1      -6.220   6.699  66.005  1.00  0.00    -0.041 A  
HETATM   30  C   UNL     1      -6.595   5.368  66.064  1.00  0.00    -0.048 A  
ENDBRANCH  19  20
ENDBRANCH  13  19
BRANCH  18  31
HETATM   31  C   UNL     1     -10.446  10.017  70.363  1.00  0.00    -0.240 C  
BRANCH  31  32
HETATM   32  C   UNL     1     -11.607   8.981  70.513  1.00  0.00    -0.175 C  
BRANCH  32  33
HETATM   33  N   UNL     1     -12.908   9.579  70.919  1.00  0.00    -0.527 NA 
HETATM   34  H   UNL     1     -13.569   8.845  71.173  1.00  0.00     0.000 HD 
BRANCH  33  35
HETATM   35  C   UNL     1     -12.825  10.572  71.985  1.00  0.00    -0.316 C  
BRANCH  35  36
HETATM   36  C   UNL     1     -12.989  11.992  71.420  1.00  0.00    -0.362 C  
BRANCH  36  37
HETATM   37  C   UNL     1     -13.785  12.918  72.339  1.00  0.00    -0.530 C  
HETATM   38  O   UNL     1     -12.791  14.845  73.392  1.00  0.00    -0.502 OA 
HETATM   39  C   UNL     1     -13.225  14.316  72.380  1.00  0.00    -0.458 C  
HETATM   40  O   UNL     1     -13.294  14.964  71.197  1.00  0.00    -0.378 OA 
ENDBRANCH  36  37
ENDBRANCH  35  36
ENDBRANCH  33  35
ENDBRANCH  32  33
BRANCH  32  41
HETATM   41  C   UNL     1     -11.278   7.875  71.520  1.00  0.00    -0.286 A  
HETATM   42  C   UNL     1     -11.632   5.609  72.339  1.00  0.00    -0.281 A  
HETATM   43  C   UNL     1     -10.163   7.088  73.544  1.00  0.00    -0.371 A  
HETATM   44  C   UNL     1     -11.883   6.615  71.401  1.00  0.00    -0.388 A  
HETATM   45  C   UNL     1     -10.403   8.092  72.601  1.00  0.00    -0.398 A  
HETATM   46  C   UNL     1     -10.776   5.846  73.412  1.00  0.00    -0.293 A  
ENDBRANCH  32  41
ENDBRANCH  31  32
ENDBRANCH  18  31
ENDBRANCH   6  10
ENDBRANCH   2   3
TORSDOF 11
ENDMDL
MODEL       46
REMARK 921   NORMALIZED FREE ENERGY PREDICTED BY IDOCK:   -5.69 KCAL/MOL
REMARK 922        TOTAL FREE ENERGY PREDICTED BY IDOCK:  -12.41 KCAL/MOL
REMARK 923 INTER-LIGAND FREE ENERGY PREDICTED BY IDOCK:   -9.71 KCAL/MOL
REMARK 924 INTRA-LIGAND FREE ENERGY PREDICTED BY IDOCK:   -2.70 KCAL/MOL
REMARK 927      BINDING AFFINITY PREDICTED BY RF-SCORE:    0.00 PKD
ROOT
HETATM    1  C   UNL     1     -10.447   6.414  72.646  1.00  0.00    -0.210 C  
HETATM    2  O   UNL     1     -10.757   7.725  73.130  1.00  0.00    -0.378 OA 
ENDROOT
BRANCH   2   3
HETATM    3  C   UNL     1     -11.599   8.450  72.329  1.00  0.00    -0.383 A  
HETATM    4  C   UNL     1     -11.007   9.279  71.365  1.00  0.00    -0.359 A  
HETATM    5  F   UNL     1      -9.666   9.331  71.273  1.00  0.00    -0.316 F  
HETATM    6  C   UNL     1     -11.790  10.041  70.488  1.00  0.00    -0.387 A  
HETATM    7  C   UNL     1     -13.186   9.991  70.605  1.00  0.00    -0.174 A  
HETATM    8  C   UNL     1     -12.993   8.424  72.447  1.00  0.00    -0.297 A  
HETATM    9  C   UNL     1     -13.780   9.188  71.584  1.00  0.00    -0.433 A  
BRANCH   6  10
HETATM   10  C   UNL     1     -11.166  10.842  69.413  1.00  0.00    -0.337 C  
HETATM   11  C   UNL     1     -11.879  13.026  70.429  1.00  0.00    -0.245 C  
HETATM   12  C   UNL     1     -11.200  12.192  69.362  1.00  0.00    -0.182 C  
HETATM   13  N   UNL     1     -10.549  12.865  68.321  1.00  0.00    -0.240 N  
HETATM   14  C   UNL     1      -9.627  12.221  67.492  1.00  0.00    -0.184 C  
HETATM   15  C   UNL     1     -10.521  10.108  68.283  1.00  0.00    -0.211 C  
HETATM   16  O   UNL     1      -8.782  12.844  66.843  1.00  0.00    -0.209 OA 
HETATM   17  O   UNL     1     -10.714   8.901  68.136  1.00  0.00    -0.187 OA 
HETATM   18  N   UNL     1      -9.711  10.845  67.446  1.00  0.00    -0.167 N  
BRANCH  13  19
HETATM   19  C   UNL     1     -10.672  14.314  68.119  1.00  0.00    -0.244 C  
BRANCH  19  20
HETATM   20  C   UNL     1     -11.231  14.789  66.782  1.00  0.00    -0.344 A  
HETATM   21  F   UNL     1      -8.419  16.717  65.940  1.00  0.00    -0.333 F  
HETATM   22  C   UNL     1      -9.624  16.834  66.561  1.00  0.00    -0.266 C  
HETATM   23  C   UNL     1     -10.642  15.840  66.036  1.00  0.00    -0.334 A  
HETATM   24  F   UNL     1     -12.904  13.092  66.837  1.00  0.00    -0.054 F  
HETATM   25  C   UNL     1     -11.024  16.020  64.682  1.00  0.00    -0.297 A  
HETATM   26  C   UNL     1     -12.254  14.046  66.161  1.00  0.00    -0.465 A  
HETATM   27  F   UNL     1     -10.029  18.118  66.343  1.00  0.00    -0.309 F  
HETATM   28  F   UNL     1      -9.367  16.770  67.891  1.00  0.00    -0.219 F  
HETATM   29  C   UNL     1     -12.642  14.263  64.838  1.00  0.00    -0.339 A  
HETATM   30  C   UNL     1     -12.002  15.231  64.084  1.00  0.00    -0.145 A  
ENDBRANCH  19  20
ENDBRANCH  13  19
BRANCH  18  31
HETATM   31  C   UNL     1      -8.916  10.135  66.436  1.00  0.00    -0.144 C  
BRANCH  31  32
HETATM   32  C   UNL     1      -7.388  10.024  66.749  1.00  0.00    -0.095 C  
BRANCH  32  33
HETATM   33  N   UNL     1      -6.643   9.118  65.833  1.00  0.00    -0.070 NA 
HETATM   34  H   UNL     1      -6.450   8.230  66.296  1.00  0.00     0.000 HD 
BRANCH  33  35
HETATM   35  C   UNL     1      -7.282   8.884  64.542  1.00  0.00    -0.097 C  
BRANCH  35  36
HETATM   36  C   UNL     1      -7.290   7.386  64.202  1.00  0.00    -0.091 C  
BRANCH  36  37
HETATM   37  C   UNL     1      -7.346   6.488  65.438  1.00  0.00    -0.076 C  
HETATM   38  O   UNL     1      -9.430   5.791  66.426  1.00  0.00    -0.152 OA 
HETATM   39  C   UNL     1      -8.620   5.688  65.518  1.00  0.00    -0.151 C  
HETATM   40  O   UNL     1      -8.766   4.797  64.514  1.00  0.00    -0.146 OA 
ENDBRANCH  36  37
ENDBRANCH  35  36
ENDBRANCH  33  35
ENDBRANCH  32  33
BRANCH  32  41
HETATM   41  C   UNL     1      -7.117   9.550  68.180  1.00  0.00    -0.079 A  
HETATM   42  C   UNL     1      -6.307  10.019  70.428  1.00  0.00    -0.115 A  
HETATM   43  C   UNL     1      -7.023   7.789  69.869  1.00  0.00    -0.050 A  
HETATM   44  C   UNL     1      -6.605  10.446  69.131  1.00  0.00    -0.054 A  
HETATM   45  C   UNL     1      -7.333   8.216  68.575  1.00  0.00    -0.093 A  
HETATM   46  C   UNL     1      -6.511   8.692  70.797  1.00  0.00    -0.043 A  
ENDBRANCH  32  41
ENDBRANCH  31  32
ENDBRANCH  18  31
ENDBRANCH   6  10
ENDBRANCH   2   3
TORSDOF 11
ENDMDL
MODEL       47
REMARK 921   NORMALIZED FREE ENERGY PREDICTED BY IDOCK:   -5.68 KCAL/MOL
REMARK 922        TOTAL FREE ENERGY PREDICTED BY IDOCK:  -12.40 KCAL/MOL
REMARK 923 INTER-LIGAND FREE ENERGY PREDICTED BY IDOCK:   -9.76 KCAL/MOL
REMARK 924 INTRA-LIGAND FREE ENERGY PREDICTED BY IDOCK:   -2.63 KCAL/MOL
REMARK 927      BINDING AFFINITY PREDICTED BY RF-SCORE:    0.00 PKD
ROOT
HETATM    1  C   UNL     1     -11.849   7.080  72.450  1.00  0.00    -0.176 C  
HETATM    2  O   UNL     1     -10.588   6.910  71.794  1.00  0.00    -0.211 OA 
ENDROOT
BRANCH   2   3
HETATM    3  C   UNL     1     -10.572   7.279  70.476  1.00  0.00    -0.222 A  
HETATM    4  C   UNL     1     -10.341   8.634  70.195  1.00  0.00    -0.207 A  
HETATM    5  F   UNL     1     -10.156   9.496  71.211  1.00  0.00    -0.355 F  
HETATM    6  C   UNL     1     -10.287   9.100  68.875  1.00  0.00    -0.232 A  
HETATM    7  C   UNL     1     -10.499   8.194  67.825  1.00  0.00    -0.279 A  
HETATM    8  C   UNL     1     -10.801   6.391  69.419  1.00  0.00    -0.381 A  
HETATM    9  C   UNL     1     -10.759   6.849  68.102  1.00  0.00    -0.260 A  
BRANCH   6  10
HETATM   10  C   UNL     1      -9.952  10.509  68.580  1.00  0.00    -0.181 C  
HETATM   11  C   UNL     1     -12.257  11.328  69.155  1.00  0.00    -0.251 C  
HETATM   12  C   UNL     1     -10.828  11.532  68.692  1.00  0.00    -0.212 C  
HETATM   13  N   UNL     1     -10.408  12.840  68.423  1.00  0.00    -0.241 N  
HETATM   14  C   UNL     1      -9.054  13.171  68.321  1.00  0.00    -0.181 C  
HETATM   15  C   UNL     1      -8.583  10.805  68.059  1.00  0.00    -0.128 C  
HETATM   16  O   UNL     1      -8.650  14.328  68.465  1.00  0.00    -0.173 OA 
HETATM   17  O   UNL     1      -7.856   9.891  67.670  1.00  0.00    -0.097 OA 
HETATM   18  N   UNL     1      -8.193  12.127  68.055  1.00  0.00    -0.148 N  
BRANCH  13  19
HETATM   19  C   UNL     1     -11.339  13.975  68.377  1.00  0.00    -0.291 C  
BRANCH  19  20
HETATM   20  C   UNL     1     -11.502  14.692  67.042  1.00  0.00    -0.379 A  
HETATM   21  F   UNL     1      -9.038  17.110  67.688  1.00  0.00    -0.219 F  
HETATM   22  C   UNL     1     -10.378  16.915  67.822  1.00  0.00    -0.327 C  
HETATM   23  C   UNL     1     -10.930  15.962  66.779  1.00  0.00    -0.151 A  
HETATM   24  F   UNL     1     -12.703  12.836  66.151  1.00  0.00    -0.305 F  
HETATM   25  C   UNL     1     -10.863  16.422  65.440  1.00  0.00    -0.249 A  
HETATM   26  C   UNL     1     -12.078  14.004  65.956  1.00  0.00    -0.439 A  
HETATM   27  F   UNL     1     -10.945  18.151  67.711  1.00  0.00    -0.410 F  
HETATM   28  F   UNL     1     -10.575  16.556  69.115  1.00  0.00    -0.238 F  
HETATM   29  C   UNL     1     -12.036  14.491  64.650  1.00  0.00    -0.478 A  
HETATM   30  C   UNL     1     -11.396  15.689  64.384  1.00  0.00    -0.272 A  
ENDBRANCH  19  20
ENDBRANCH  13  19
BRANCH  18  31
HETATM   31  C   UNL     1      -6.798  12.445  67.727  1.00  0.00    -0.113 C  
BRANCH  31  32
HETATM   32  C   UNL     1      -5.882  12.766  68.952  1.00  0.00    -0.071 C  
BRANCH  32  33
HETATM   33  N   UNL     1      -6.370  12.206  70.242  1.00  0.00    -0.451 NA 
HETATM   34  H   UNL     1      -7.289  11.783  70.117  1.00  0.00     0.000 HD 
BRANCH  33  35
HETATM   35  C   UNL     1      -5.463  11.261  70.887  1.00  0.00    -0.103 C  
BRANCH  35  36
HETATM   36  C   UNL     1      -6.059   9.845  70.878  1.00  0.00    -0.082 C  
BRANCH  36  37
HETATM   37  C   UNL     1      -6.057   9.181  72.256  1.00  0.00     0.036 C  
HETATM   38  O   UNL     1      -8.088   8.484  73.349  1.00  0.00    -0.373 OA 
HETATM   39  C   UNL     1      -7.255   8.295  72.476  1.00  0.00    -0.103 C  
HETATM   40  O   UNL     1      -7.301   7.229  71.649  1.00  0.00    -0.078 OA 
ENDBRANCH  36  37
ENDBRANCH  35  36
ENDBRANCH  33  35
ENDBRANCH  32  33
BRANCH  32  41
HETATM   41  C   UNL     1      -5.681  14.271  69.153  1.00  0.00    -0.092 A  
HETATM   42  C   UNL     1      -5.136  16.458  68.230  1.00  0.00    -0.107 A  
HETATM   43  C   UNL     1      -5.514  16.233  70.597  1.00  0.00    -0.106 A  
HETATM   44  C   UNL     1      -5.371  15.091  68.058  1.00  0.00    -0.131 A  
HETATM   45  C   UNL     1      -5.761  14.867  70.426  1.00  0.00    -0.145 A  
HETATM   46  C   UNL     1      -5.204  17.028  69.499  1.00  0.00    -0.153 A  
ENDBRANCH  32  41
ENDBRANCH  31  32
ENDBRANCH  18  31
ENDBRANCH   6  10
ENDBRANCH   2   3
TORSDOF 11
ENDMDL
MODEL       48
REMARK 921   NORMALIZED FREE ENERGY PREDICTED BY IDOCK:   -5.66 KCAL/MOL
REMARK 922        TOTAL FREE ENERGY PREDICTED BY IDOCK:  -12.35 KCAL/MOL
REMARK 923 INTER-LIGAND FREE ENERGY PREDICTED BY IDOCK:  -10.08 KCAL/MOL
REMARK 924 INTRA-LIGAND FREE ENERGY PREDICTED BY IDOCK:   -2.27 KCAL/MOL
REMARK 927      BINDING AFFINITY PREDICTED BY RF-SCORE:    0.00 PKD
ROOT
HETATM    1  C   UNL     1     -10.962   6.188  73.086  1.00  0.00    -0.231 C  
HETATM    2  O   UNL     1     -10.849   7.593  73.334  1.00  0.00    -0.380 OA 
ENDROOT
BRANCH   2   3
HETATM    3  C   UNL     1     -11.351   8.395  72.344  1.00  0.00    -0.378 A  
HETATM    4  C   UNL     1     -10.589   8.515  71.173  1.00  0.00    -0.220 A  
HETATM    5  F   UNL     1      -9.420   7.859  71.076  1.00  0.00    -0.152 F  
HETATM    6  C   UNL     1     -11.034   9.298  70.099  1.00  0.00    -0.278 A  
HETATM    7  C   UNL     1     -12.247   9.992  70.219  1.00  0.00    -0.186 A  
HETATM    8  C   UNL     1     -12.550   9.108  72.458  1.00  0.00    -0.311 A  
HETATM    9  C   UNL     1     -12.995   9.897  71.397  1.00  0.00    -0.504 A  
BRANCH   6  10
HETATM   10  C   UNL     1     -10.275   9.349  68.831  1.00  0.00    -0.215 C  
HETATM   11  C   UNL     1     -10.909   7.005  68.188  1.00  0.00    -0.214 C  
HETATM   12  C   UNL     1     -10.198   8.323  67.956  1.00  0.00    -0.214 C  
HETATM   13  N   UNL     1      -9.482   8.478  66.762  1.00  0.00    -0.178 N  
HETATM   14  C   UNL     1      -9.083   9.737  66.303  1.00  0.00    -0.157 C  
HETATM   15  C   UNL     1      -9.491  10.587  68.539  1.00  0.00    -0.164 C  
HETATM   16  O   UNL     1      -8.804   9.944  65.119  1.00  0.00    -0.155 OA 
HETATM   17  O   UNL     1      -9.296  11.422  69.423  1.00  0.00     0.196 OA 
HETATM   18  N   UNL     1      -9.024  10.737  67.251  1.00  0.00    -0.140 N  
BRANCH  13  19
HETATM   19  C   UNL     1      -9.230   7.363  65.841  1.00  0.00     0.031 C  
BRANCH  19  20
HETATM   20  C   UNL     1      -8.186   6.335  66.258  1.00  0.00    -0.117 A  
HETATM   21  F   UNL     1      -9.833   3.608  64.780  1.00  0.00    -0.154 F  
HETATM   22  C   UNL     1      -9.753   4.267  65.967  1.00  0.00    -0.211 C  
HETATM   23  C   UNL     1      -8.407   4.938  66.165  1.00  0.00    -0.112 A  
HETATM   24  F   UNL     1      -6.624   8.066  66.750  1.00  0.00    -0.051 F  
HETATM   25  C   UNL     1      -7.301   4.058  66.277  1.00  0.00    -0.079 A  
HETATM   26  C   UNL     1      -6.882   6.765  66.571  1.00  0.00    -0.061 A  
HETATM   27  F   UNL     1      -9.984   3.328  66.929  1.00  0.00    -0.124 F  
HETATM   28  F   UNL     1     -10.834   5.086  66.013  1.00  0.00    -0.318 F  
HETATM   29  C   UNL     1      -5.813   5.881  66.715  1.00  0.00    -0.017 A  
HETATM   30  C   UNL     1      -6.015   4.524  66.534  1.00  0.00    -0.027 A  
ENDBRANCH  19  20
ENDBRANCH  13  19
BRANCH  18  31
HETATM   31  C   UNL     1      -8.410  12.015  66.872  1.00  0.00    -0.159 C  
BRANCH  31  32
HETATM   32  C   UNL     1      -9.410  13.200  66.665  1.00  0.00    -0.239 C  
BRANCH  32  33
HETATM   33  N   UNL     1     -10.147  13.598  67.895  1.00  0.00    -0.238 NA 
HETATM   34  H   UNL     1     -10.233  12.803  68.527  1.00  0.00     0.000 HD 
BRANCH  33  35
HETATM   35  C   UNL     1      -9.590  14.746  68.603  1.00  0.00    -0.218 C  
BRANCH  35  36
HETATM   36  C   UNL     1     -10.629  15.872  68.717  1.00  0.00    -0.245 C  
BRANCH  36  37
HETATM   37  C   UNL     1     -11.988  15.389  69.224  1.00  0.00    -0.335 C  
HETATM   38  O   UNL     1     -12.195  13.683  70.913  1.00  0.00    -0.348 OA 
HETATM   39  C   UNL     1     -11.922  14.837  70.624  1.00  0.00    -0.309 C  
HETATM   40  O   UNL     1     -11.582  15.756  71.555  1.00  0.00    -0.384 OA 
ENDBRANCH  36  37
ENDBRANCH  35  36
ENDBRANCH  33  35
ENDBRANCH  32  33
BRANCH  32  41
HETATM   41  C   UNL     1     -10.453  12.901  65.584  1.00  0.00    -0.292 A  
HETATM   42  C   UNL     1     -12.778  12.547  64.951  1.00  0.00    -0.371 A  
HETATM   43  C   UNL     1     -11.048  12.291  63.296  1.00  0.00    -0.389 A  
HETATM   44  C   UNL     1     -11.816  12.865  65.914  1.00  0.00    -0.476 A  
HETATM   45  C   UNL     1     -10.086  12.620  64.254  1.00  0.00    -0.292 A  
HETATM   46  C   UNL     1     -12.395  12.256  63.644  1.00  0.00    -0.664 A  
ENDBRANCH  32  41
ENDBRANCH  31  32
ENDBRANCH  18  31
ENDBRANCH   6  10
ENDBRANCH   2   3
TORSDOF 11
ENDMDL
MODEL       49
REMARK 921   NORMALIZED FREE ENERGY PREDICTED BY IDOCK:   -5.64 KCAL/MOL
REMARK 922        TOTAL FREE ENERGY PREDICTED BY IDOCK:  -12.32 KCAL/MOL
REMARK 923 INTER-LIGAND FREE ENERGY PREDICTED BY IDOCK:   -9.15 KCAL/MOL
REMARK 924 INTRA-LIGAND FREE ENERGY PREDICTED BY IDOCK:   -3.17 KCAL/MOL
REMARK 927      BINDING AFFINITY PREDICTED BY RF-SCORE:    0.00 PKD
ROOT
HETATM    1  C   UNL     1      -5.362   2.621  69.485  1.00  0.00    -0.012 C  
HETATM    2  O   UNL     1      -5.574   3.205  68.196  1.00  0.00    -0.017 OA 
ENDROOT
BRANCH   2   3
HETATM    3  C   UNL     1      -6.889   3.374  67.850  1.00  0.00    -0.050 A  
HETATM    4  C   UNL     1      -7.409   4.673  67.939  1.00  0.00    -0.066 A  
HETATM    5  F   UNL     1      -6.616   5.675  68.356  1.00  0.00    -0.043 F  
HETATM    6  C   UNL     1      -8.738   4.945  67.586  1.00  0.00    -0.103 A  
HETATM    7  C   UNL     1      -9.560   3.888  67.169  1.00  0.00    -0.226 A  
HETATM    8  C   UNL     1      -7.726   2.326  67.451  1.00  0.00    -0.061 A  
HETATM    9  C   UNL     1      -9.053   2.587  67.107  1.00  0.00    -0.172 A  
BRANCH   6  10
HETATM   10  C   UNL     1      -9.257   6.329  67.592  1.00  0.00    -0.111 C  
HETATM   11  C   UNL     1      -8.480   6.784  65.247  1.00  0.00    -0.067 C  
HETATM   12  C   UNL     1      -9.146   7.181  66.549  1.00  0.00    -0.154 C  
HETATM   13  N   UNL     1      -9.702   8.463  66.636  1.00  0.00    -0.229 N  
HETATM   14  C   UNL     1     -10.612   8.804  67.640  1.00  0.00    -0.213 C  
HETATM   15  C   UNL     1      -9.880   6.834  68.853  1.00  0.00    -0.145 C  
HETATM   16  O   UNL     1     -11.385   9.759  67.528  1.00  0.00    -0.055 OA 
HETATM   17  O   UNL     1      -9.746   6.208  69.905  1.00  0.00    -0.159 OA 
HETATM   18  N   UNL     1     -10.601   8.005  68.764  1.00  0.00    -0.165 N  
BRANCH  13  19
HETATM   19  C   UNL     1      -9.488   9.488  65.607  1.00  0.00    -0.261 C  
BRANCH  19  20
HETATM   20  C   UNL     1      -9.059  10.873  66.077  1.00  0.00    -0.208 A  
HETATM   21  F   UNL     1     -12.197  12.362  65.553  1.00  0.00    -0.461 F  
HETATM   22  C   UNL     1     -11.018  12.143  64.909  1.00  0.00    -0.309 C  
HETATM   23  C   UNL     1      -9.848  12.032  65.868  1.00  0.00    -0.259 A  
HETATM   24  F   UNL     1      -7.103   9.963  67.090  1.00  0.00    -0.081 F  
HETATM   25  C   UNL     1      -9.540  13.213  66.589  1.00  0.00    -0.260 A  
HETATM   26  C   UNL     1      -7.933  10.998  66.914  1.00  0.00    -0.143 A  
HETATM   27  F   UNL     1     -10.861  13.197  64.057  1.00  0.00    -0.360 F  
HETATM   28  F   UNL     1     -11.226  11.071  64.103  1.00  0.00    -0.400 F  
HETATM   29  C   UNL     1      -7.624  12.181  67.586  1.00  0.00    -0.140 A  
HETATM   30  C   UNL     1      -8.449  13.284  67.450  1.00  0.00    -0.206 A  
ENDBRANCH  19  20
ENDBRANCH  13  19
BRANCH  18  31
HETATM   31  C   UNL     1     -11.379   8.439  69.931  1.00  0.00     0.067 C  
BRANCH  31  32
HETATM   32  C   UNL     1     -10.717   9.563  70.793  1.00  0.00    -0.321 C  
BRANCH  32  33
HETATM   33  N   UNL     1     -10.775  10.917  70.178  1.00  0.00    -0.440 NA 
HETATM   34  H   UNL     1     -10.578  10.859  69.179  1.00  0.00     0.000 HD 
BRANCH  33  35
HETATM   35  C   UNL     1     -12.022  11.643  70.404  1.00  0.00    -0.358 C  
BRANCH  35  36
HETATM   36  C   UNL     1     -11.895  13.100  69.933  1.00  0.00    -0.378 C  
BRANCH  36  37
HETATM   37  C   UNL     1     -13.001  14.007  70.472  1.00  0.00    -0.194 C  
HETATM   38  O   UNL     1     -13.806  13.841  72.738  1.00  0.00    -0.716 OA 
HETATM   39  C   UNL     1     -12.926  14.189  71.966  1.00  0.00    -0.360 C  
HETATM   40  O   UNL     1     -11.810  14.828  72.379  1.00  0.00    -0.291 OA 
ENDBRANCH  36  37
ENDBRANCH  35  36
ENDBRANCH  33  35
ENDBRANCH  32  33
BRANCH  32  41
HETATM   41  C   UNL     1      -9.247   9.268  71.109  1.00  0.00    -0.225 A  
HETATM   42  C   UNL     1      -6.892   9.473  70.523  1.00  0.00    -0.112 A  
HETATM   43  C   UNL     1      -7.526   8.157  72.437  1.00  0.00    -0.144 A  
HETATM   44  C   UNL     1      -8.235   9.773  70.278  1.00  0.00    -0.178 A  
HETATM   45  C   UNL     1      -8.869   8.465  72.201  1.00  0.00    -0.285 A  
HETATM   46  C   UNL     1      -6.537   8.664  71.599  1.00  0.00    -0.074 A  
ENDBRANCH  32  41
ENDBRANCH  31  32
ENDBRANCH  18  31
ENDBRANCH   6  10
ENDBRANCH   2   3
TORSDOF 11
ENDMDL
MODEL       50
REMARK 921   NORMALIZED FREE ENERGY PREDICTED BY IDOCK:   -5.63 KCAL/MOL
REMARK 922        TOTAL FREE ENERGY PREDICTED BY IDOCK:  -12.31 KCAL/MOL
REMARK 923 INTER-LIGAND FREE ENERGY PREDICTED BY IDOCK:   -9.70 KCAL/MOL
REMARK 924 INTRA-LIGAND FREE ENERGY PREDICTED BY IDOCK:   -2.61 KCAL/MOL
REMARK 927      BINDING AFFINITY PREDICTED BY RF-SCORE:    0.00 PKD
ROOT
HETATM    1  C   UNL     1     -10.327  17.168  65.890  1.00  0.00    -0.284 C  
HETATM    2  O   UNL     1      -9.835  16.017  65.195  1.00  0.00    -0.397 OA 
ENDROOT
BRANCH   2   3
HETATM    3  C   UNL     1     -10.685  14.943  65.187  1.00  0.00    -0.411 A  
HETATM    4  C   UNL     1     -10.284  13.807  65.905  1.00  0.00    -0.313 A  
HETATM    5  F   UNL     1      -9.105  13.817  66.551  1.00  0.00    -0.251 F  
HETATM    6  C   UNL     1     -11.099  12.669  65.970  1.00  0.00    -0.321 A  
HETATM    7  C   UNL     1     -12.317  12.664  65.277  1.00  0.00    -0.528 A  
HETATM    8  C   UNL     1     -11.895  14.918  64.484  1.00  0.00    -0.404 A  
HETATM    9  C   UNL     1     -12.707  13.784  64.536  1.00  0.00    -0.128 A  
BRANCH   6  10
HETATM   10  C   UNL     1     -10.717  11.508  66.802  1.00  0.00    -0.311 C  
HETATM   11  C   UNL     1     -11.252  12.691  68.953  1.00  0.00    -0.329 C  
HETATM   12  C   UNL     1     -10.771  11.497  68.152  1.00  0.00    -0.205 C  
HETATM   13  N   UNL     1     -10.421  10.337  68.853  1.00  0.00    -0.198 N  
HETATM   14  C   UNL     1     -10.293   9.101  68.213  1.00  0.00    -0.214 C  
HETATM   15  C   UNL     1     -10.174  10.302  66.107  1.00  0.00    -0.217 C  
HETATM   16  O   UNL     1     -10.365   8.034  68.828  1.00  0.00    -0.207 OA 
HETATM   17  O   UNL     1      -9.837  10.365  64.924  1.00  0.00    -0.287 OA 
HETATM   18  N   UNL     1     -10.087   9.144  66.850  1.00  0.00    -0.236 N  
BRANCH  13  19
HETATM   19  C   UNL     1     -10.310  10.301  70.317  1.00  0.00    -0.090 C  
BRANCH  19  20
HETATM   20  C   UNL     1     -11.345   9.480  71.077  1.00  0.00    -0.423 A  
HETATM   21  F   UNL     1      -9.093   8.324  73.511  1.00  0.00    -0.309 F  
HETATM   22  C   UNL     1      -9.603   7.969  72.300  1.00  0.00    -0.223 C  
HETATM   23  C   UNL     1     -10.992   8.534  72.072  1.00  0.00    -0.410 A  
HETATM   24  F   UNL     1     -13.119  10.615  69.962  1.00  0.00    -0.315 F  
HETATM   25  C   UNL     1     -11.999   8.039  72.938  1.00  0.00    -0.100 A  
HETATM   26  C   UNL     1     -12.712   9.790  70.933  1.00  0.00    -0.247 A  
HETATM   27  F   UNL     1      -9.616   6.605  72.290  1.00  0.00    -0.149 F  
HETATM   28  F   UNL     1      -8.665   8.316  71.384  1.00  0.00    -0.129 F  
HETATM   29  C   UNL     1     -13.694   9.263  71.772  1.00  0.00    -0.443 A  
HETATM   30  C   UNL     1     -13.333   8.410  72.801  1.00  0.00     0.005 A  
ENDBRANCH  19  20
ENDBRANCH  13  19
BRANCH  18  31
HETATM   31  C   UNL     1      -9.734   7.896  66.163  1.00  0.00    -0.009 C  
BRANCH  31  32
HETATM   32  C   UNL     1      -8.210   7.547  66.155  1.00  0.00    -0.125 C  
BRANCH  32  33
HETATM   33  N   UNL     1      -7.416   8.308  65.154  1.00  0.00    -0.081 NA 
HETATM   34  H   UNL     1      -8.013   8.972  64.660  1.00  0.00     0.000 HD 
BRANCH  33  35
HETATM   35  C   UNL     1      -6.240   8.990  65.688  1.00  0.00    -0.056 C  
BRANCH  35  36
HETATM   36  C   UNL     1      -6.404  10.515  65.588  1.00  0.00    -0.126 C  
BRANCH  36  37
HETATM   37  C   UNL     1      -5.540  11.281  66.590  1.00  0.00    -0.129 C  
HETATM   38  O   UNL     1      -6.088  13.512  67.316  1.00  0.00    -0.327 OA 
HETATM   39  C   UNL     1      -6.320  12.314  67.359  1.00  0.00    -0.152 C  
HETATM   40  O   UNL     1      -7.279  11.791  68.154  1.00  0.00    -0.076 OA 
ENDBRANCH  36  37
ENDBRANCH  35  36
ENDBRANCH  33  35
ENDBRANCH  32  33
BRANCH  32  41
HETATM   41  C   UNL     1      -7.953   6.057  65.905  1.00  0.00    -0.111 A  
HETATM   42  C   UNL     1      -7.444   4.246  64.359  1.00  0.00    -0.071 A  
HETATM   43  C   UNL     1      -7.883   3.740  66.672  1.00  0.00    -0.088 A  
HETATM   44  C   UNL     1      -7.634   5.607  64.615  1.00  0.00    -0.085 A  
HETATM   45  C   UNL     1      -8.062   5.102  66.933  1.00  0.00    -0.108 A  
HETATM   46  C   UNL     1      -7.572   3.312  65.385  1.00  0.00    -0.077 A  
ENDBRANCH  32  41
ENDBRANCH  31  32
ENDBRANCH  18  31
ENDBRANCH   6  10
ENDBRANCH   2   3
TORSDOF 11
ENDMDL
MODEL       51
REMARK 921   NORMALIZED FREE ENERGY PREDICTED BY IDOCK:   -5.63 KCAL/MOL
REMARK 922        TOTAL FREE ENERGY PREDICTED BY IDOCK:  -12.30 KCAL/MOL
REMARK 923 INTER-LIGAND FREE ENERGY PREDICTED BY IDOCK:  -11.96 KCAL/MOL
REMARK 924 INTRA-LIGAND FREE ENERGY PREDICTED BY IDOCK:   -0.34 KCAL/MOL
REMARK 927      BINDING AFFINITY PREDICTED BY RF-SCORE:    0.00 PKD
ROOT
HETATM    1  C   UNL     1      -7.767   4.840  69.796  1.00  0.00    -0.059 C  
HETATM    2  O   UNL     1      -6.922   5.703  69.027  1.00  0.00    -0.059 OA 
ENDROOT
BRANCH   2   3
HETATM    3  C   UNL     1      -6.815   6.981  69.508  1.00  0.00    -0.051 A  
HETATM    4  C   UNL     1      -7.697   7.936  68.983  1.00  0.00    -0.101 A  
HETATM    5  F   UNL     1      -8.587   7.567  68.044  1.00  0.00    -0.121 F  
HETATM    6  C   UNL     1      -7.675   9.264  69.429  1.00  0.00    -0.082 A  
HETATM    7  C   UNL     1      -6.731   9.640  70.395  1.00  0.00    -0.104 A  
HETATM    8  C   UNL     1      -5.866   7.375  70.458  1.00  0.00    -0.027 A  
HETATM    9  C   UNL     1      -5.830   8.698  70.901  1.00  0.00    -0.034 A  
BRANCH   6  10
HETATM   10  C   UNL     1      -8.666  10.246  68.941  1.00  0.00    -0.152 C  
HETATM   11  C   UNL     1      -7.120  11.144  67.175  1.00  0.00    -0.113 C  
HETATM   12  C   UNL     1      -8.435  11.111  67.929  1.00  0.00    -0.131 C  
HETATM   13  N   UNL     1      -9.449  11.983  67.513  1.00  0.00    -0.175 N  
HETATM   14  C   UNL     1     -10.778  11.804  67.906  1.00  0.00    -0.204 C  
HETATM   15  C   UNL     1      -9.973  10.332  69.659  1.00  0.00    -0.207 C  
HETATM   16  O   UNL     1     -11.719  12.298  67.277  1.00  0.00    -0.403 OA 
HETATM   17  O   UNL     1     -10.120   9.780  70.750  1.00  0.00    -0.261 OA 
HETATM   18  N   UNL     1     -10.979  11.038  69.035  1.00  0.00    -0.216 N  
BRANCH  13  19
HETATM   19  C   UNL     1      -9.221  13.047  66.528  1.00  0.00    -0.181 C  
BRANCH  19  20
HETATM   20  C   UNL     1     -10.188  13.131  65.353  1.00  0.00    -0.301 A  
HETATM   21  F   UNL     1      -9.907   9.740  64.480  1.00  0.00    -0.362 F  
HETATM   22  C   UNL     1      -9.349  10.948  64.193  1.00  0.00    -0.234 C  
HETATM   23  C   UNL     1     -10.321  12.095  64.394  1.00  0.00    -0.348 A  
HETATM   24  F   UNL     1     -11.009  15.229  66.130  1.00  0.00    -0.317 F  
HETATM   25  C   UNL     1     -11.438  12.105  63.521  1.00  0.00    -0.544 A  
HETATM   26  C   UNL     1     -11.125  14.182  65.304  1.00  0.00    -0.331 A  
HETATM   27  F   UNL     1      -8.942  10.867  62.893  1.00  0.00    -0.192 F  
HETATM   28  F   UNL     1      -8.202  11.010  64.915  1.00  0.00    -0.097 F  
HETATM   29  C   UNL     1     -12.196  14.193  64.411  1.00  0.00    -0.466 A  
HETATM   30  C   UNL     1     -12.374  13.135  63.538  1.00  0.00    -0.478 A  
ENDBRANCH  19  20
ENDBRANCH  13  19
BRANCH  18  31
HETATM   31  C   UNL     1     -12.328  10.995  69.612  1.00  0.00    -0.234 C  
BRANCH  31  32
HETATM   32  C   UNL     1     -12.432  11.466  71.099  1.00  0.00    -0.360 C  
BRANCH  32  33
HETATM   33  N   UNL     1     -13.425  10.711  71.910  1.00  0.00    -0.359 NA 
HETATM   34  H   UNL     1     -14.242  10.481  71.344  1.00  0.00     0.000 HD 
BRANCH  33  35
HETATM   35  C   UNL     1     -12.908   9.508  72.556  1.00  0.00    -0.176 C  
BRANCH  35  36
HETATM   36  C   UNL     1     -14.012   8.450  72.701  1.00  0.00    -0.137 C  
BRANCH  36  37
HETATM   37  C   UNL     1     -13.973   7.383  71.607  1.00  0.00    -0.523 C  
HETATM   38  O   UNL     1     -12.014   7.002  70.256  1.00  0.00    -0.251 OA 
HETATM   39  C   UNL     1     -12.578   6.884  71.333  1.00  0.00    -0.353 C  
HETATM   40  O   UNL     1     -12.017   6.238  72.378  1.00  0.00    -0.278 OA 
ENDBRANCH  36  37
ENDBRANCH  35  36
ENDBRANCH  33  35
ENDBRANCH  32  33
BRANCH  32  41
HETATM   41  C   UNL     1     -12.781  12.953  71.218  1.00  0.00    -0.371 A  
HETATM   42  C   UNL     1     -14.073  14.728  72.273  1.00  0.00    -0.587 A  
HETATM   43  C   UNL     1     -12.603  15.261  70.441  1.00  0.00    -0.421 A  
HETATM   44  C   UNL     1     -13.706  13.382  72.182  1.00  0.00    -0.646 A  
HETATM   45  C   UNL     1     -12.226  13.917  70.356  1.00  0.00    -0.438 A  
HETATM   46  C   UNL     1     -13.525  15.666  71.401  1.00  0.00    -0.473 A  
ENDBRANCH  32  41
ENDBRANCH  31  32
ENDBRANCH  18  31
ENDBRANCH   6  10
ENDBRANCH   2   3
TORSDOF 11
ENDMDL
MODEL       52
REMARK 921   NORMALIZED FREE ENERGY PREDICTED BY IDOCK:   -5.59 KCAL/MOL
REMARK 922        TOTAL FREE ENERGY PREDICTED BY IDOCK:  -12.24 KCAL/MOL
REMARK 923 INTER-LIGAND FREE ENERGY PREDICTED BY IDOCK:   -9.76 KCAL/MOL
REMARK 924 INTRA-LIGAND FREE ENERGY PREDICTED BY IDOCK:   -2.48 KCAL/MOL
REMARK 927      BINDING AFFINITY PREDICTED BY RF-SCORE:    0.00 PKD
ROOT
HETATM    1  C   UNL     1      -8.570   4.290  63.256  1.00  0.00    -0.109 C  
HETATM    2  O   UNL     1      -8.253   4.298  64.652  1.00  0.00    -0.099 OA 
ENDROOT
BRANCH   2   3
HETATM    3  C   UNL     1      -7.423   5.313  65.047  1.00  0.00    -0.073 A  
HETATM    4  C   UNL     1      -8.020   6.422  65.664  1.00  0.00    -0.120 A  
HETATM    5  F   UNL     1      -9.354   6.445  65.833  1.00  0.00    -0.168 F  
HETATM    6  C   UNL     1      -7.247   7.499  66.120  1.00  0.00    -0.074 A  
HETATM    7  C   UNL     1      -5.859   7.471  65.922  1.00  0.00    -0.037 A  
HETATM    8  C   UNL     1      -6.039   5.308  64.840  1.00  0.00    -0.026 A  
HETATM    9  C   UNL     1      -5.264   6.381  65.282  1.00  0.00    -0.014 A  
BRANCH   6  10
HETATM   10  C   UNL     1      -7.868   8.623  66.852  1.00  0.00    -0.091 C  
HETATM   11  C   UNL     1      -7.800  10.149  64.857  1.00  0.00    -0.147 C  
HETATM   12  C   UNL     1      -8.121   9.832  66.303  1.00  0.00    -0.113 C  
HETATM   13  N   UNL     1      -8.745  10.826  67.068  1.00  0.00    -0.134 N  
HETATM   14  C   UNL     1      -9.376  10.533  68.280  1.00  0.00    -0.156 C  
HETATM   15  C   UNL     1      -8.168   8.429  68.303  1.00  0.00    -0.124 C  
HETATM   16  O   UNL     1     -10.233  11.275  68.769  1.00  0.00    -0.198 OA 
HETATM   17  O   UNL     1      -7.699   7.466  68.910  1.00  0.00    -0.110 OA 
HETATM   18  N   UNL     1      -8.989   9.362  68.897  1.00  0.00    -0.134 N  
BRANCH  13  19
HETATM   19  C   UNL     1      -8.912  12.203  66.588  1.00  0.00    -0.198 C  
BRANCH  19  20
HETATM   20  C   UNL     1     -10.336  12.709  66.394  1.00  0.00    -0.264 A  
HETATM   21  F   UNL     1      -9.717  15.897  67.730  1.00  0.00    -0.215 F  
HETATM   22  C   UNL     1     -10.137  14.662  68.115  1.00  0.00    -0.224 C  
HETATM   23  C   UNL     1     -10.813  13.905  66.987  1.00  0.00    -0.288 A  
HETATM   24  F   UNL     1     -10.811  10.908  64.906  1.00  0.00    -0.360 F  
HETATM   25  C   UNL     1     -12.029  14.465  66.523  1.00  0.00    -0.406 A  
HETATM   26  C   UNL     1     -11.167  12.080  65.446  1.00  0.00    -0.322 A  
HETATM   27  F   UNL     1     -10.996  14.870  69.154  1.00  0.00    -0.222 F  
HETATM   28  F   UNL     1      -9.058  14.056  68.670  1.00  0.00    -0.183 F  
HETATM   29  C   UNL     1     -12.380  12.628  65.029  1.00  0.00    -0.561 A  
HETATM   30  C   UNL     1     -12.798  13.843  65.544  1.00  0.00    -0.471 A  
ENDBRANCH  19  20
ENDBRANCH  13  19
BRANCH  18  31
HETATM   31  C   UNL     1      -9.457   9.113  70.266  1.00  0.00    -0.219 C  
BRANCH  31  32
HETATM   32  C   UNL     1     -10.637   8.096  70.392  1.00  0.00    -0.224 C  
BRANCH  32  33
HETATM   33  N   UNL     1     -11.110   7.546  69.093  1.00  0.00    -0.435 NA 
HETATM   34  H   UNL     1     -10.551   7.921  68.327  1.00  0.00     0.000 HD 
BRANCH  33  35
HETATM   35  C   UNL     1     -11.152   6.088  69.018  1.00  0.00    -0.307 C  
BRANCH  35  36
HETATM   36  C   UNL     1     -10.242   5.463  70.087  1.00  0.00    -0.342 C  
BRANCH  36  37
HETATM   37  C   UNL     1      -9.703   4.088  69.690  1.00  0.00    -0.245 C  
HETATM   38  O   UNL     1      -7.814   3.826  68.216  1.00  0.00    -0.071 OA 
HETATM   39  C   UNL     1      -8.243   4.121  69.321  1.00  0.00    -0.065 C  
HETATM   40  O   UNL     1      -7.431   4.458  70.347  1.00  0.00    -0.048 OA 
ENDBRANCH  36  37
ENDBRANCH  35  36
ENDBRANCH  33  35
ENDBRANCH  32  33
BRANCH  32  41
HETATM   41  C   UNL     1     -11.854   8.697  71.103  1.00  0.00    -0.331 A  
HETATM   42  C   UNL     1     -14.013   8.394  72.189  1.00  0.00    -0.426 A  
HETATM   43  C   UNL     1     -13.153  10.619  71.863  1.00  0.00    -0.563 A  
HETATM   44  C   UNL     1     -12.873   7.859  71.581  1.00  0.00    -0.357 A  
HETATM   45  C   UNL     1     -12.007  10.087  71.265  1.00  0.00    -0.483 A  
HETATM   46  C   UNL     1     -14.155   9.772  72.327  1.00  0.00     0.000 A  
ENDBRANCH  32  41
ENDBRANCH  31  32
ENDBRANCH  18  31
ENDBRANCH   6  10
ENDBRANCH   2   3
TORSDOF 11
ENDMDL
MODEL       53
REMARK 921   NORMALIZED FREE ENERGY PREDICTED BY IDOCK:   -5.55 KCAL/MOL
REMARK 922        TOTAL FREE ENERGY PREDICTED BY IDOCK:  -12.17 KCAL/MOL
REMARK 923 INTER-LIGAND FREE ENERGY PREDICTED BY IDOCK:   -9.85 KCAL/MOL
REMARK 924 INTRA-LIGAND FREE ENERGY PREDICTED BY IDOCK:   -2.32 KCAL/MOL
REMARK 927      BINDING AFFINITY PREDICTED BY RF-SCORE:    0.00 PKD
ROOT
HETATM    1  C   UNL     1      -9.114   4.504  63.633  1.00  0.00    -0.112 C  
HETATM    2  O   UNL     1      -8.423   4.605  64.882  1.00  0.00    -0.123 OA 
ENDROOT
BRANCH   2   3
HETATM    3  C   UNL     1      -7.892   5.839  65.148  1.00  0.00    -0.105 A  
HETATM    4  C   UNL     1      -8.652   6.701  65.951  1.00  0.00    -0.148 A  
HETATM    5  F   UNL     1      -9.848   6.291  66.412  1.00  0.00    -0.190 F  
HETATM    6  C   UNL     1      -8.180   7.975  66.292  1.00  0.00    -0.116 A  
HETATM    7  C   UNL     1      -6.940   8.397  65.791  1.00  0.00    -0.067 A  
HETATM    8  C   UNL     1      -6.666   6.280  64.639  1.00  0.00    -0.038 A  
HETATM    9  C   UNL     1      -6.193   7.552  64.966  1.00  0.00    -0.038 A  
BRANCH   6  10
HETATM   10  C   UNL     1      -8.940   8.846  67.213  1.00  0.00    -0.140 C  
HETATM   11  C   UNL     1     -10.131  10.029  65.344  1.00  0.00    -0.317 C  
HETATM   12  C   UNL     1      -9.822   9.786  66.807  1.00  0.00    -0.208 C  
HETATM   13  N   UNL     1     -10.522  10.540  67.758  1.00  0.00    -0.207 N  
HETATM   14  C   UNL     1     -10.563  10.170  69.105  1.00  0.00    -0.224 C  
HETATM   15  C   UNL     1      -8.663   8.723  68.676  1.00  0.00    -0.134 C  
HETATM   16  O   UNL     1     -11.446  10.571  69.868  1.00  0.00    -0.264 OA 
HETATM   17  O   UNL     1      -7.677   8.099  69.071  1.00  0.00    -0.095 OA 
HETATM   18  N   UNL     1      -9.560   9.325  69.532  1.00  0.00    -0.166 N  
BRANCH  13  19
HETATM   19  C   UNL     1     -11.377  11.676  67.391  1.00  0.00    -0.300 C  
BRANCH  19  20
HETATM   20  C   UNL     1     -10.689  13.006  67.108  1.00  0.00    -0.266 A  
HETATM   21  F   UNL     1     -13.439  14.430  65.452  1.00  0.00    -0.388 F  
HETATM   22  C   UNL     1     -12.311  13.715  65.190  1.00  0.00    -0.452 C  
HETATM   23  C   UNL     1     -11.218  13.967  66.211  1.00  0.00    -0.320 A  
HETATM   24  F   UNL     1      -8.991  12.509  68.705  1.00  0.00    -0.168 F  
HETATM   25  C   UNL     1     -10.697  15.286  66.229  1.00  0.00    -0.315 A  
HETATM   26  C   UNL     1      -9.586  13.393  67.895  1.00  0.00    -0.216 A  
HETATM   27  F   UNL     1     -11.916  14.092  63.940  1.00  0.00    -0.446 F  
HETATM   28  F   UNL     1     -12.709  12.425  65.056  1.00  0.00    -0.532 F  
HETATM   29  C   UNL     1      -9.063  14.685  67.872  1.00  0.00    -0.189 A  
HETATM   30  C   UNL     1      -9.641  15.646  67.061  1.00  0.00    -0.233 A  
ENDBRANCH  19  20
ENDBRANCH  13  19
BRANCH  18  31
HETATM   31  C   UNL     1      -9.430   9.077  70.972  1.00  0.00    -0.274 C  
BRANCH  31  32
HETATM   32  C   UNL     1     -10.073   7.745  71.480  1.00  0.00    -0.178 C  
BRANCH  32  33
HETATM   33  N   UNL     1      -9.809   6.569  70.607  1.00  0.00    -0.183 NA 
HETATM   34  H   UNL     1      -9.187   6.830  69.843  1.00  0.00     0.000 HD 
BRANCH  33  35
HETATM   35  C   UNL     1      -9.292   5.392  71.298  1.00  0.00    -0.147 C  
BRANCH  35  36
HETATM   36  C   UNL     1      -8.692   5.779  72.659  1.00  0.00    -0.119 C  
BRANCH  36  37
HETATM   37  C   UNL     1      -7.206   5.441  72.781  1.00  0.00    -0.090 C  
HETATM   38  O   UNL     1      -5.505   6.691  71.618  1.00  0.00    -0.027 OA 
HETATM   39  C   UNL     1      -6.317   6.631  72.528  1.00  0.00    -0.054 C  
HETATM   40  O   UNL     1      -6.458   7.617  73.439  1.00  0.00    -0.063 OA 
ENDBRANCH  36  37
ENDBRANCH  35  36
ENDBRANCH  33  35
ENDBRANCH  32  33
BRANCH  32  41
HETATM   41  C   UNL     1     -11.591   7.857  71.651  1.00  0.00    -0.311 A  
HETATM   42  C   UNL     1     -13.828   7.066  71.104  1.00  0.00    -0.102 A  
HETATM   43  C   UNL     1     -13.568   9.000  72.515  1.00  0.00    -0.492 A  
HETATM   44  C   UNL     1     -12.439   6.949  71.000  1.00  0.00    -0.364 A  
HETATM   45  C   UNL     1     -12.179   8.879  72.421  1.00  0.00    -0.365 A  
HETATM   46  C   UNL     1     -14.393   8.092  71.858  1.00  0.00    -0.566 A  
ENDBRANCH  32  41
ENDBRANCH  31  32
ENDBRANCH  18  31
ENDBRANCH   6  10
ENDBRANCH   2   3
TORSDOF 11
ENDMDL
MODEL       54
REMARK 921   NORMALIZED FREE ENERGY PREDICTED BY IDOCK:   -5.54 KCAL/MOL
REMARK 922        TOTAL FREE ENERGY PREDICTED BY IDOCK:  -12.15 KCAL/MOL
REMARK 923 INTER-LIGAND FREE ENERGY PREDICTED BY IDOCK:   -9.19 KCAL/MOL
REMARK 924 INTRA-LIGAND FREE ENERGY PREDICTED BY IDOCK:   -2.97 KCAL/MOL
REMARK 927      BINDING AFFINITY PREDICTED BY RF-SCORE:    0.00 PKD
ROOT
HETATM    1  C   UNL     1     -10.699   3.451  63.432  1.00  0.00    -0.240 C  
HETATM    2  O   UNL     1     -10.911   3.966  64.751  1.00  0.00    -0.177 OA 
ENDROOT
BRANCH   2   3
HETATM    3  C   UNL     1      -9.798   3.978  65.549  1.00  0.00    -0.186 A  
HETATM    4  C   UNL     1      -9.499   5.177  66.210  1.00  0.00    -0.156 A  
HETATM    5  F   UNL     1     -10.297   6.245  66.032  1.00  0.00    -0.072 F  
HETATM    6  C   UNL     1      -8.392   5.277  67.063  1.00  0.00    -0.107 A  
HETATM    7  C   UNL     1      -7.558   4.162  67.226  1.00  0.00    -0.077 A  
HETATM    8  C   UNL     1      -8.945   2.879  65.706  1.00  0.00    -0.144 A  
HETATM    9  C   UNL     1      -7.835   2.972  66.546  1.00  0.00    -0.077 A  
BRANCH   6  10
HETATM   10  C   UNL     1      -8.132   6.513  67.830  1.00  0.00    -0.116 C  
HETATM   11  C   UNL     1      -9.348   5.679  69.864  1.00  0.00    -0.181 C  
HETATM   12  C   UNL     1      -8.561   6.720  69.095  1.00  0.00    -0.131 C  
HETATM   13  N   UNL     1      -8.235   7.913  69.754  1.00  0.00    -0.120 N  
HETATM   14  C   UNL     1      -7.249   8.775  69.268  1.00  0.00    -0.062 C  
HETATM   15  C   UNL     1      -7.413   7.625  67.137  1.00  0.00    -0.096 C  
HETATM   16  O   UNL     1      -6.687   9.602  69.991  1.00  0.00    -0.058 OA 
HETATM   17  O   UNL     1      -7.260   7.599  65.916  1.00  0.00    -0.067 OA 
HETATM   18  N   UNL     1      -6.935   8.645  67.931  1.00  0.00    -0.077 N  
BRANCH  13  19
HETATM   19  C   UNL     1      -8.792   8.268  71.065  1.00  0.00    -0.150 C  
BRANCH  19  20
HETATM   20  C   UNL     1     -10.265   8.656  71.117  1.00  0.00    -0.294 A  
HETATM   21  F   UNL     1     -10.886   7.088  74.198  1.00  0.00    -0.336 F  
HETATM   22  C   UNL     1     -10.933   6.833  72.862  1.00  0.00    -0.263 C  
HETATM   23  C   UNL     1     -11.175   8.086  72.043  1.00  0.00    -0.356 A  
HETATM   24  F   UNL     1      -9.936  10.284  69.408  1.00  0.00    -0.196 F  
HETATM   25  C   UNL     1     -12.435   8.705  72.238  1.00  0.00    -0.460 A  
HETATM   26  C   UNL     1     -10.717   9.750  70.354  1.00  0.00    -0.308 A  
HETATM   27  F   UNL     1     -11.941   5.929  72.693  1.00  0.00    -0.321 F  
HETATM   28  F   UNL     1      -9.798   6.147  72.574  1.00  0.00    -0.166 F  
HETATM   29  C   UNL     1     -11.977  10.322  70.534  1.00  0.00    -0.415 A  
HETATM   30  C   UNL     1     -12.828   9.819  71.502  1.00  0.00    -0.502 A  
ENDBRANCH  19  20
ENDBRANCH  13  19
BRANCH  18  31
HETATM   31  C   UNL     1      -6.068   9.660  67.321  1.00  0.00    -0.056 C  
BRANCH  31  32
HETATM   32  C   UNL     1      -6.805  10.924  66.771  1.00  0.00    -0.121 C  
BRANCH  32  33
HETATM   33  N   UNL     1      -7.745  11.551  67.740  1.00  0.00    -0.117 NA 
HETATM   34  H   UNL     1      -7.519  11.258  68.690  1.00  0.00     0.000 HD 
BRANCH  33  35
HETATM   35  C   UNL     1      -7.824  13.007  67.668  1.00  0.00    -0.166 C  
BRANCH  35  36
HETATM   36  C   UNL     1      -9.190  13.502  68.168  1.00  0.00    -0.208 C  
BRANCH  36  37
HETATM   37  C   UNL     1     -10.294  13.390  67.116  1.00  0.00    -0.246 C  
HETATM   38  O   UNL     1     -11.927  11.618  67.152  1.00  0.00    -0.614 OA 
HETATM   39  C   UNL     1     -11.511  12.664  67.626  1.00  0.00    -0.334 C  
HETATM   40  O   UNL     1     -12.144  13.305  68.632  1.00  0.00    -0.337 OA 
ENDBRANCH  36  37
ENDBRANCH  35  36
ENDBRANCH  33  35
ENDBRANCH  32  33
BRANCH  32  41
HETATM   41  C   UNL     1      -7.596  10.630  65.493  1.00  0.00    -0.072 A  
HETATM   42  C   UNL     1      -9.731  10.232  64.391  1.00  0.00    -0.381 A  
HETATM   43  C   UNL     1      -7.693  10.072  63.118  1.00  0.00    -0.145 A  
HETATM   44  C   UNL     1      -8.996  10.547  65.537  1.00  0.00    -0.203 A  
HETATM   45  C   UNL     1      -6.957  10.399  64.260  1.00  0.00     0.021 A  
HETATM   46  C   UNL     1      -9.081   9.990  63.183  1.00  0.00    -0.296 A  
ENDBRANCH  32  41
ENDBRANCH  31  32
ENDBRANCH  18  31
ENDBRANCH   6  10
ENDBRANCH   2   3
TORSDOF 11
ENDMDL
MODEL       55
REMARK 921   NORMALIZED FREE ENERGY PREDICTED BY IDOCK:   -5.52 KCAL/MOL
REMARK 922        TOTAL FREE ENERGY PREDICTED BY IDOCK:  -12.13 KCAL/MOL
REMARK 923 INTER-LIGAND FREE ENERGY PREDICTED BY IDOCK:   -8.45 KCAL/MOL
REMARK 924 INTRA-LIGAND FREE ENERGY PREDICTED BY IDOCK:   -3.68 KCAL/MOL
REMARK 927      BINDING AFFINITY PREDICTED BY RF-SCORE:    0.00 PKD
ROOT
HETATM    1  C   UNL     1     -12.185  14.667  64.250  1.00  0.00    -0.408 C  
HETATM    2  O   UNL     1     -12.938  14.311  65.414  1.00  0.00    -0.654 OA 
ENDROOT
BRANCH   2   3
HETATM    3  C   UNL     1     -12.185  14.004  66.516  1.00  0.00    -0.451 A  
HETATM    4  C   UNL     1     -11.853  12.655  66.707  1.00  0.00    -0.370 A  
HETATM    5  F   UNL     1     -12.286  11.738  65.824  1.00  0.00    -0.211 F  
HETATM    6  C   UNL     1     -11.069  12.251  67.795  1.00  0.00    -0.304 A  
HETATM    7  C   UNL     1     -10.640  13.214  68.719  1.00  0.00    -0.225 A  
HETATM    8  C   UNL     1     -11.766  14.952  67.456  1.00  0.00    -0.328 A  
HETATM    9  C   UNL     1     -10.992  14.556  68.548  1.00  0.00    -0.261 A  
BRANCH   6  10
HETATM   10  C   UNL     1     -10.644  10.843  67.944  1.00  0.00    -0.246 C  
HETATM   11  C   UNL     1     -12.249  10.407  69.827  1.00  0.00    -0.166 C  
HETATM   12  C   UNL     1     -11.158   9.993  68.860  1.00  0.00    -0.176 C  
HETATM   13  N   UNL     1     -10.716   8.664  68.902  1.00  0.00    -0.142 N  
HETATM   14  C   UNL     1      -9.978   8.102  67.858  1.00  0.00    -0.182 C  
HETATM   15  C   UNL     1      -9.532  10.355  67.074  1.00  0.00    -0.163 C  
HETATM   16  O   UNL     1      -9.906   6.882  67.688  1.00  0.00    -0.127 OA 
HETATM   17  O   UNL     1      -8.845  11.155  66.438  1.00  0.00    -0.167 OA 
HETATM   18  N   UNL     1      -9.336   8.992  67.022  1.00  0.00    -0.144 N  
BRANCH  13  19
HETATM   19  C   UNL     1     -11.117   7.732  69.963  1.00  0.00    -0.175 C  
BRANCH  19  20
HETATM   20  C   UNL     1     -10.080   7.400  71.030  1.00  0.00    -0.191 A  
HETATM   21  F   UNL     1      -8.831   4.565  69.376  1.00  0.00    -0.093 F  
HETATM   22  C   UNL     1      -9.768   4.914  70.299  1.00  0.00    -0.217 C  
HETATM   23  C   UNL     1      -9.385   6.165  71.065  1.00  0.00    -0.176 A  
HETATM   24  F   UNL     1     -10.311   9.573  71.982  1.00  0.00    -0.291 F  
HETATM   25  C   UNL     1      -8.236   6.047  71.887  1.00  0.00    -0.115 A  
HETATM   26  C   UNL     1      -9.649   8.412  71.910  1.00  0.00    -0.254 A  
HETATM   27  F   UNL     1      -9.883   3.840  71.133  1.00  0.00    -0.231 F  
HETATM   28  F   UNL     1     -10.948   4.966  69.632  1.00  0.00    -0.121 F  
HETATM   29  C   UNL     1      -8.537   8.263  72.739  1.00  0.00    -0.270 A  
HETATM   30  C   UNL     1      -7.807   7.088  72.704  1.00  0.00    -0.096 A  
ENDBRANCH  19  20
ENDBRANCH  13  19
BRANCH  18  31
HETATM   31  C   UNL     1      -8.379   8.459  66.044  1.00  0.00    -0.126 C  
BRANCH  31  32
HETATM   32  C   UNL     1      -7.009   7.995  66.637  1.00  0.00    -0.072 C  
BRANCH  32  33
HETATM   33  N   UNL     1      -6.999   6.589  67.123  1.00  0.00    -0.069 NA 
HETATM   34  H   UNL     1      -7.844   6.395  67.659  1.00  0.00     0.000 HD 
BRANCH  33  35
HETATM   35  C   UNL     1      -6.818   5.579  66.085  1.00  0.00    -0.058 C  
BRANCH  35  36
HETATM   36  C   UNL     1      -8.039   4.649  66.012  1.00  0.00    -0.103 C  
BRANCH  36  37
HETATM   37  C   UNL     1      -8.849   4.817  64.726  1.00  0.00    -0.153 C  
HETATM   38  O   UNL     1     -10.431   3.160  63.979  1.00  0.00    -0.191 OA 
HETATM   39  C   UNL     1     -10.150   4.059  64.757  1.00  0.00    -0.213 C  
HETATM   40  O   UNL     1     -11.015   4.501  65.696  1.00  0.00    -0.218 OA 
ENDBRANCH  36  37
ENDBRANCH  35  36
ENDBRANCH  33  35
ENDBRANCH  32  33
BRANCH  32  41
HETATM   41  C   UNL     1      -6.544   8.883  67.796  1.00  0.00    -0.061 A  
HETATM   42  C   UNL     1      -5.392  10.881  68.578  1.00  0.00    -0.040 A  
HETATM   43  C   UNL     1      -6.256   9.308  70.183  1.00  0.00    -0.045 A  
HETATM   44  C   UNL     1      -5.867  10.083  67.534  1.00  0.00    -0.049 A  
HETATM   45  C   UNL     1      -6.742   8.514  69.140  1.00  0.00    -0.047 A  
HETATM   46  C   UNL     1      -5.583  10.493  69.902  1.00  0.00    -0.048 A  
ENDBRANCH  32  41
ENDBRANCH  31  32
ENDBRANCH  18  31
ENDBRANCH   6  10
ENDBRANCH   2   3
TORSDOF 11
ENDMDL
MODEL       56
REMARK 921   NORMALIZED FREE ENERGY PREDICTED BY IDOCK:   -5.47 KCAL/MOL
REMARK 922        TOTAL FREE ENERGY PREDICTED BY IDOCK:  -12.05 KCAL/MOL
REMARK 923 INTER-LIGAND FREE ENERGY PREDICTED BY IDOCK:  -10.03 KCAL/MOL
REMARK 924 INTRA-LIGAND FREE ENERGY PREDICTED BY IDOCK:   -2.01 KCAL/MOL
REMARK 927      BINDING AFFINITY PREDICTED BY RF-SCORE:    0.00 PKD
ROOT
HETATM    1  C   UNL     1      -7.292  18.910  66.203  1.00  0.00    -0.266 C  
HETATM    2  O   UNL     1      -6.350  17.841  66.068  1.00  0.00    -0.213 OA 
ENDROOT
BRANCH   2   3
HETATM    3  C   UNL     1      -6.409  16.894  67.056  1.00  0.00    -0.194 A  
HETATM    4  C   UNL     1      -7.426  15.934  66.959  1.00  0.00    -0.219 A  
HETATM    5  F   UNL     1      -8.286  15.984  65.926  1.00  0.00    -0.305 F  
HETATM    6  C   UNL     1      -7.551  14.915  67.913  1.00  0.00    -0.146 A  
HETATM    7  C   UNL     1      -6.660  14.883  68.995  1.00  0.00    -0.109 A  
HETATM    8  C   UNL     1      -5.539  16.862  68.151  1.00  0.00    -0.120 A  
HETATM    9  C   UNL     1      -5.663  15.856  69.111  1.00  0.00    -0.116 A  
BRANCH   6  10
HETATM   10  C   UNL     1      -8.565  13.850  67.758  1.00  0.00    -0.182 C  
HETATM   11  C   UNL     1     -10.365  15.202  68.874  1.00  0.00    -0.243 C  
HETATM   12  C   UNL     1      -9.841  13.955  68.191  1.00  0.00    -0.240 C  
HETATM   13  N   UNL     1     -10.740  12.905  67.968  1.00  0.00    -0.222 N  
HETATM   14  C   UNL     1     -10.457  11.873  67.069  1.00  0.00    -0.224 C  
HETATM   15  C   UNL     1      -8.130  12.557  67.149  1.00  0.00    -0.156 C  
HETATM   16  O   UNL     1     -11.344  11.171  66.577  1.00  0.00    -0.275 OA 
HETATM   17  O   UNL     1      -6.932  12.310  67.007  1.00  0.00    -0.125 OA 
HETATM   18  N   UNL     1      -9.126  11.689  66.758  1.00  0.00    -0.180 N  
BRANCH  13  19
HETATM   19  C   UNL     1     -12.091  12.886  68.542  1.00  0.00    -0.119 C  
BRANCH  19  20
HETATM   20  C   UNL     1     -12.281  12.150  69.863  1.00  0.00    -0.240 A  
HETATM   21  F   UNL     1     -14.326  14.617  71.300  1.00  0.00    -0.460 F  
HETATM   22  C   UNL     1     -13.016  14.260  71.212  1.00  0.00    -0.352 C  
HETATM   23  C   UNL     1     -12.837  12.767  71.011  1.00  0.00    -0.262 A  
HETATM   24  F   UNL     1     -11.483  10.125  68.891  1.00  0.00    -0.264 F  
HETATM   25  C   UNL     1     -13.260  11.954  72.092  1.00  0.00    -0.366 A  
HETATM   26  C   UNL     1     -12.076  10.757  69.911  1.00  0.00    -0.337 A  
HETATM   27  F   UNL     1     -12.441  14.674  72.378  1.00  0.00    -0.365 F  
HETATM   28  F   UNL     1     -12.476  15.055  70.255  1.00  0.00    -0.328 F  
HETATM   29  C   UNL     1     -12.465   9.978  71.000  1.00  0.00    -0.460 A  
HETATM   30  C   UNL     1     -13.091  10.572  72.082  1.00  0.00    -0.413 A  
ENDBRANCH  19  20
ENDBRANCH  13  19
BRANCH  18  31
HETATM   31  C   UNL     1      -8.752  10.493  65.992  1.00  0.00    -0.164 C  
BRANCH  31  32
HETATM   32  C   UNL     1      -8.143   9.326  66.834  1.00  0.00    -0.108 C  
BRANCH  32  33
HETATM   33  N   UNL     1      -6.692   9.095  66.596  1.00  0.00    -0.075 NA 
HETATM   34  H   UNL     1      -6.285   9.890  66.105  1.00  0.00     0.000 HD 
BRANCH  33  35
HETATM   35  C   UNL     1      -5.912   8.789  67.791  1.00  0.00    -0.047 C  
BRANCH  35  36
HETATM   36  C   UNL     1      -6.522   9.468  69.027  1.00  0.00    -0.046 C  
BRANCH  36  37
HETATM   37  C   UNL     1      -6.622   8.539  70.238  1.00  0.00    -0.039 C  
HETATM   38  O   UNL     1      -8.094   8.999  72.090  1.00  0.00    -0.359 OA 
HETATM   39  C   UNL     1      -7.955   8.633  70.933  1.00  0.00    -0.122 C  
HETATM   40  O   UNL     1      -8.994   8.222  70.173  1.00  0.00    -0.139 OA 
ENDBRANCH  36  37
ENDBRANCH  35  36
ENDBRANCH  33  35
ENDBRANCH  32  33
BRANCH  32  41
HETATM   41  C   UNL     1      -8.862   7.995  66.594  1.00  0.00    -0.166 A  
HETATM   42  C   UNL     1     -10.850   6.610  66.838  1.00  0.00    -0.415 A  
HETATM   43  C   UNL     1      -8.869   5.671  65.842  1.00  0.00    -0.154 A  
HETATM   44  C   UNL     1     -10.194   7.832  67.005  1.00  0.00    -0.375 A  
HETATM   45  C   UNL     1      -8.214   6.896  65.997  1.00  0.00    -0.125 A  
HETATM   46  C   UNL     1     -10.188   5.529  66.261  1.00  0.00    -0.200 A  
ENDBRANCH  32  41
ENDBRANCH  31  32
ENDBRANCH  18  31
ENDBRANCH   6  10
ENDBRANCH   2   3
TORSDOF 11
ENDMDL
MODEL       57
REMARK 921   NORMALIZED FREE ENERGY PREDICTED BY IDOCK:   -5.46 KCAL/MOL
REMARK 922        TOTAL FREE ENERGY PREDICTED BY IDOCK:  -12.02 KCAL/MOL
REMARK 923 INTER-LIGAND FREE ENERGY PREDICTED BY IDOCK:  -10.35 KCAL/MOL
REMARK 924 INTRA-LIGAND FREE ENERGY PREDICTED BY IDOCK:   -1.68 KCAL/MOL
REMARK 927      BINDING AFFINITY PREDICTED BY RF-SCORE:    0.00 PKD
ROOT
HETATM    1  C   UNL     1     -11.145  16.701  64.959  1.00  0.00    -0.115 C  
HETATM    2  O   UNL     1      -9.859  16.076  64.891  1.00  0.00    -0.230 OA 
ENDROOT
BRANCH   2   3
HETATM    3  C   UNL     1      -9.384  15.606  66.086  1.00  0.00    -0.347 A  
HETATM    4  C   UNL     1      -9.724  14.292  66.437  1.00  0.00    -0.299 A  
HETATM    5  F   UNL     1     -10.492  13.565  65.606  1.00  0.00    -0.269 F  
HETATM    6  C   UNL     1      -9.266  13.721  67.632  1.00  0.00    -0.207 A  
HETATM    7  C   UNL     1      -8.481  14.495  68.498  1.00  0.00    -0.166 A  
HETATM    8  C   UNL     1      -8.615  16.373  66.970  1.00  0.00    -0.223 A  
HETATM    9  C   UNL     1      -8.163  15.815  68.166  1.00  0.00    -0.141 A  
BRANCH   6  10
HETATM   10  C   UNL     1      -9.549  12.306  67.955  1.00  0.00    -0.203 C  
HETATM   11  C   UNL     1     -11.636  12.867  69.236  1.00  0.00    -0.368 C  
HETATM   12  C   UNL     1     -10.611  11.897  68.685  1.00  0.00    -0.234 C  
HETATM   13  N   UNL     1     -10.815  10.530  68.910  1.00  0.00    -0.219 N  
HETATM   14  C   UNL     1     -10.134   9.555  68.177  1.00  0.00    -0.182 C  
HETATM   15  C   UNL     1      -8.563  11.278  67.505  1.00  0.00    -0.134 C  
HETATM   16  O   UNL     1     -10.552   8.398  68.079  1.00  0.00    -0.204 OA 
HETATM   17  O   UNL     1      -7.453  11.619  67.097  1.00  0.00    -0.131 OA 
HETATM   18  N   UNL     1      -8.969   9.962  67.562  1.00  0.00    -0.134 N  
BRANCH  13  19
HETATM   19  C   UNL     1     -11.854  10.026  69.816  1.00  0.00    -0.021 C  
BRANCH  19  20
HETATM   20  C   UNL     1     -11.393   9.327  71.089  1.00  0.00    -0.412 A  
HETATM   21  F   UNL     1     -14.258   7.320  71.395  1.00  0.00    -0.482 F  
HETATM   22  C   UNL     1     -13.773   8.524  71.801  1.00  0.00    -0.407 C  
HETATM   23  C   UNL     1     -12.258   8.536  71.886  1.00  0.00    -0.411 A  
HETATM   24  F   UNL     1      -9.160  10.082  70.738  1.00  0.00    -0.119 F  
HETATM   25  C   UNL     1     -11.699   7.681  72.869  1.00  0.00    -0.204 A  
HETATM   26  C   UNL     1     -10.019   9.299  71.401  1.00  0.00    -0.253 A  
HETATM   27  F   UNL     1     -14.338   8.760  73.020  1.00  0.00    -0.374 F  
HETATM   28  F   UNL     1     -14.326   9.448  70.975  1.00  0.00    -0.292 F  
HETATM   29  C   UNL     1      -9.491   8.479  72.398  1.00  0.00    -0.350 A  
HETATM   30  C   UNL     1     -10.329   7.641  73.113  1.00  0.00    -0.411 A  
ENDBRANCH  19  20
ENDBRANCH  13  19
BRANCH  18  31
HETATM   31  C   UNL     1      -8.107   8.937  66.962  1.00  0.00    -0.109 C  
BRANCH  31  32
HETATM   32  C   UNL     1      -8.656   8.289  65.649  1.00  0.00    -0.166 C  
BRANCH  32  33
HETATM   33  N   UNL     1      -7.805   7.195  65.106  1.00  0.00    -0.117 NA 
HETATM   34  H   UNL     1      -6.821   7.391  65.289  1.00  0.00     0.000 HD 
BRANCH  33  35
HETATM   35  C   UNL     1      -8.147   5.856  65.576  1.00  0.00    -0.131 C  
BRANCH  35  36
HETATM   36  C   UNL     1      -9.618   5.793  66.016  1.00  0.00    -0.079 C  
BRANCH  36  37
HETATM   37  C   UNL     1     -10.217   4.390  65.918  1.00  0.00    -0.252 C  
HETATM   38  O   UNL     1      -8.929   2.408  66.388  1.00  0.00    -0.131 OA 
HETATM   39  C   UNL     1      -9.515   3.396  66.805  1.00  0.00    -0.137 C  
HETATM   40  O   UNL     1      -9.635   3.663  68.123  1.00  0.00    -0.169 OA 
ENDBRANCH  36  37
ENDBRANCH  35  36
ENDBRANCH  33  35
ENDBRANCH  32  33
BRANCH  32  41
HETATM   41  C   UNL     1      -8.852   9.315  64.529  1.00  0.00    -0.203 A  
HETATM   42  C   UNL     1      -8.002  10.446  62.547  1.00  0.00    -0.179 A  
HETATM   43  C   UNL     1     -10.125  11.109  63.470  1.00  0.00    -0.437 A  
HETATM   44  C   UNL     1      -7.862   9.482  63.548  1.00  0.00    -0.134 A  
HETATM   45  C   UNL     1      -9.993  10.137  64.466  1.00  0.00    -0.275 A  
HETATM   46  C   UNL     1      -9.130  11.262  62.509  1.00  0.00    -0.288 A  
ENDBRANCH  32  41
ENDBRANCH  31  32
ENDBRANCH  18  31
ENDBRANCH   6  10
ENDBRANCH   2   3
TORSDOF 11
ENDMDL
MODEL       58
REMARK 921   NORMALIZED FREE ENERGY PREDICTED BY IDOCK:   -5.45 KCAL/MOL
REMARK 922        TOTAL FREE ENERGY PREDICTED BY IDOCK:  -12.01 KCAL/MOL
REMARK 923 INTER-LIGAND FREE ENERGY PREDICTED BY IDOCK:   -9.81 KCAL/MOL
REMARK 924 INTRA-LIGAND FREE ENERGY PREDICTED BY IDOCK:   -2.21 KCAL/MOL
REMARK 927      BINDING AFFINITY PREDICTED BY RF-SCORE:    0.00 PKD
ROOT
HETATM    1  C   UNL     1     -10.244  17.320  66.147  1.00  0.00    -0.331 C  
HETATM    2  O   UNL     1      -9.925  16.359  65.136  1.00  0.00    -0.479 OA 
ENDROOT
BRANCH   2   3
HETATM    3  C   UNL     1     -10.740  15.259  65.109  1.00  0.00    -0.436 A  
HETATM    4  C   UNL     1     -10.304  14.124  65.806  1.00  0.00    -0.325 A  
HETATM    5  F   UNL     1      -9.125  14.159  66.452  1.00  0.00    -0.266 F  
HETATM    6  C   UNL     1     -11.082  12.959  65.850  1.00  0.00    -0.310 A  
HETATM    7  C   UNL     1     -12.301  12.929  65.158  1.00  0.00    -0.547 A  
HETATM    8  C   UNL     1     -11.950  15.209  64.406  1.00  0.00    -0.321 A  
HETATM    9  C   UNL     1     -12.726  14.050  64.437  1.00  0.00    -0.050 A  
BRANCH   6  10
HETATM   10  C   UNL     1     -10.664  11.797  66.661  1.00  0.00    -0.300 C  
HETATM   11  C   UNL     1     -11.183  12.943  68.836  1.00  0.00    -0.327 C  
HETATM   12  C   UNL     1     -10.693  11.769  68.012  1.00  0.00    -0.208 C  
HETATM   13  N   UNL     1     -10.309  10.607  68.693  1.00  0.00    -0.176 N  
HETATM   14  C   UNL     1     -10.168   9.382  68.035  1.00  0.00    -0.204 C  
HETATM   15  C   UNL     1     -10.110  10.610  65.942  1.00  0.00    -0.261 C  
HETATM   16  O   UNL     1     -10.209   8.306  68.638  1.00  0.00    -0.197 OA 
HETATM   17  O   UNL     1      -9.795  10.694  64.755  1.00  0.00    -0.258 OA 
HETATM   18  N   UNL     1      -9.988   9.445  66.669  1.00  0.00    -0.238 N  
BRANCH  13  19
HETATM   19  C   UNL     1     -10.172  10.556  70.154  1.00  0.00     0.139 C  
BRANCH  19  20
HETATM   20  C   UNL     1     -11.172   9.699  70.921  1.00  0.00    -0.422 A  
HETATM   21  F   UNL     1      -8.864   8.622  73.338  1.00  0.00    -0.277 F  
HETATM   22  C   UNL     1      -9.370   8.249  72.131  1.00  0.00    -0.234 C  
HETATM   23  C   UNL     1     -10.779   8.766  71.913  1.00  0.00    -0.429 A  
HETATM   24  F   UNL     1     -12.993  10.772  69.819  1.00  0.00    -0.293 F  
HETATM   25  C   UNL     1     -11.762   8.236  72.786  1.00  0.00    -0.305 A  
HETATM   26  C   UNL     1     -12.549   9.961  70.787  1.00  0.00    -0.241 A  
HETATM   27  F   UNL     1      -9.335   6.886  72.120  1.00  0.00    -0.141 F  
HETATM   28  F   UNL     1      -8.451   8.629  71.208  1.00  0.00    -0.137 F  
HETATM   29  C   UNL     1     -13.507   9.400  71.632  1.00  0.00    -0.467 A  
HETATM   30  C   UNL     1     -13.109   8.560  72.658  1.00  0.00    -0.203 A  
ENDBRANCH  19  20
ENDBRANCH  13  19
BRANCH  18  31
HETATM   31  C   UNL     1      -9.623   8.212  65.961  1.00  0.00    -0.042 C  
BRANCH  31  32
HETATM   32  C   UNL     1      -8.108   7.829  66.026  1.00  0.00    -0.117 C  
BRANCH  32  33
HETATM   33  N   UNL     1      -7.542   7.813  67.402  1.00  0.00    -0.103 NA 
HETATM   34  H   UNL     1      -8.191   8.251  68.055  1.00  0.00     0.000 HD 
BRANCH  33  35
HETATM   35  C   UNL     1      -7.148   6.495  67.892  1.00  0.00    -0.085 C  
BRANCH  35  36
HETATM   36  C   UNL     1      -7.696   6.255  69.307  1.00  0.00    -0.100 C  
BRANCH  36  37
HETATM   37  C   UNL     1      -7.724   4.777  69.699  1.00  0.00    -0.059 C  
HETATM   38  O   UNL     1      -9.603   3.786  70.837  1.00  0.00    -0.163 OA 
HETATM   39  C   UNL     1      -9.124   4.231  69.806  1.00  0.00    -0.117 C  
HETATM   40  O   UNL     1      -9.796   4.225  68.634  1.00  0.00    -0.137 OA 
ENDBRANCH  36  37
ENDBRANCH  35  36
ENDBRANCH  33  35
ENDBRANCH  32  33
BRANCH  32  41
HETATM   41  C   UNL     1      -7.233   8.760  65.182  1.00  0.00    -0.087 A  
HETATM   42  C   UNL     1      -6.588   9.629  63.000  1.00  0.00    -0.107 A  
HETATM   43  C   UNL     1      -5.387  10.343  64.961  1.00  0.00    -0.133 A  
HETATM   44  C   UNL     1      -7.409   8.821  63.791  1.00  0.00    -0.099 A  
HETATM   45  C   UNL     1      -6.215   9.545  65.756  1.00  0.00    -0.064 A  
HETATM   46  C   UNL     1      -5.575  10.386  63.583  1.00  0.00    -0.149 A  
ENDBRANCH  32  41
ENDBRANCH  31  32
ENDBRANCH  18  31
ENDBRANCH   6  10
ENDBRANCH   2   3
TORSDOF 11
ENDMDL
MODEL       59
REMARK 921   NORMALIZED FREE ENERGY PREDICTED BY IDOCK:   -5.38 KCAL/MOL
REMARK 922        TOTAL FREE ENERGY PREDICTED BY IDOCK:  -11.90 KCAL/MOL
REMARK 923 INTER-LIGAND FREE ENERGY PREDICTED BY IDOCK:   -9.51 KCAL/MOL
REMARK 924 INTRA-LIGAND FREE ENERGY PREDICTED BY IDOCK:   -2.39 KCAL/MOL
REMARK 927      BINDING AFFINITY PREDICTED BY RF-SCORE:    0.00 PKD
ROOT
HETATM    1  C   UNL     1      -8.501   7.785  74.492  1.00  0.00    -0.154 C  
HETATM    2  O   UNL     1      -8.544   7.811  73.062  1.00  0.00    -0.132 OA 
ENDROOT
BRANCH   2   3
HETATM    3  C   UNL     1      -9.762   8.138  72.528  1.00  0.00    -0.287 A  
HETATM    4  C   UNL     1      -9.760   8.828  71.308  1.00  0.00    -0.265 A  
HETATM    5  F   UNL     1      -8.587   9.139  70.727  1.00  0.00    -0.168 F  
HETATM    6  C   UNL     1     -10.959   9.186  70.678  1.00  0.00    -0.319 A  
HETATM    7  C   UNL     1     -12.175   8.872  71.302  1.00  0.00    -0.351 A  
HETATM    8  C   UNL     1     -10.982   7.849  73.149  1.00  0.00    -0.301 A  
HETATM    9  C   UNL     1     -12.181   8.211  72.533  1.00  0.00    -0.335 A  
BRANCH   6  10
HETATM   10  C   UNL     1     -10.956   9.831  69.348  1.00  0.00    -0.241 C  
HETATM   11  C   UNL     1     -11.878  11.993  70.233  1.00  0.00    -0.356 C  
HETATM   12  C   UNL     1     -11.373  11.096  69.121  1.00  0.00    -0.273 C  
HETATM   13  N   UNL     1     -11.299  11.633  67.830  1.00  0.00    -0.269 N  
HETATM   14  C   UNL     1     -10.550  11.021  66.821  1.00  0.00    -0.266 C  
HETATM   15  C   UNL     1     -10.530   9.007  68.176  1.00  0.00    -0.207 C  
HETATM   16  O   UNL     1     -10.162  11.639  65.826  1.00  0.00    -0.223 OA 
HETATM   17  O   UNL     1     -10.420   7.785  68.282  1.00  0.00    -0.201 OA 
HETATM   18  N   UNL     1     -10.264   9.684  67.005  1.00  0.00    -0.230 N  
BRANCH  13  19
HETATM   19  C   UNL     1     -11.873  12.939  67.483  1.00  0.00    -0.351 C  
BRANCH  19  20
HETATM   20  C   UNL     1     -10.932  13.980  66.887  1.00  0.00    -0.301 A  
HETATM   21  F   UNL     1     -13.165  15.012  64.380  1.00  0.00     0.087 F  
HETATM   22  C   UNL     1     -12.156  14.122  64.586  1.00  0.00    -0.452 C  
HETATM   23  C   UNL     1     -11.170  14.600  65.635  1.00  0.00    -0.342 A  
HETATM   24  F   UNL     1      -9.558  13.906  68.833  1.00  0.00    -0.192 F  
HETATM   25  C   UNL     1     -10.432  15.760  65.291  1.00  0.00    -0.427 A  
HETATM   26  C   UNL     1      -9.885  14.494  67.676  1.00  0.00    -0.223 A  
HETATM   27  F   UNL     1     -11.550  13.963  63.374  1.00  0.00    -0.159 F  
HETATM   28  F   UNL     1     -12.755  12.931  64.835  1.00  0.00    -0.494 F  
HETATM   29  C   UNL     1      -9.144  15.615  67.303  1.00  0.00    -0.217 A  
HETATM   30  C   UNL     1      -9.440  16.272  66.122  1.00  0.00    -0.373 A  
ENDBRANCH  19  20
ENDBRANCH  13  19
BRANCH  18  31
HETATM   31  C   UNL     1      -9.670   8.942  65.886  1.00  0.00    -0.189 C  
BRANCH  31  32
HETATM   32  C   UNL     1      -8.195   9.328  65.539  1.00  0.00    -0.124 C  
BRANCH  32  33
HETATM   33  N   UNL     1      -7.530   8.400  64.585  1.00  0.00    -0.093 NA 
HETATM   34  H   UNL     1      -6.675   8.025  64.996  1.00  0.00     0.000 HD 
BRANCH  33  35
HETATM   35  C   UNL     1      -8.372   7.312  64.095  1.00  0.00     0.156 C  
BRANCH  35  36
HETATM   36  C   UNL     1      -7.830   5.952  64.561  1.00  0.00    -0.115 C  
BRANCH  36  37
HETATM   37  C   UNL     1      -8.311   5.558  65.958  1.00  0.00    -0.122 C  
HETATM   38  O   UNL     1     -10.611   4.999  66.413  1.00  0.00    -0.300 OA 
HETATM   39  C   UNL     1      -9.537   4.684  65.924  1.00  0.00    -0.185 C  
HETATM   40  O   UNL     1      -9.330   3.480  65.347  1.00  0.00    -0.149 OA 
ENDBRANCH  36  37
ENDBRANCH  35  36
ENDBRANCH  33  35
ENDBRANCH  32  33
BRANCH  32  41
HETATM   41  C   UNL     1      -7.306   9.418  66.784  1.00  0.00    -0.086 A  
HETATM   42  C   UNL     1      -6.191   8.321  68.650  1.00  0.00    -0.045 A  
HETATM   43  C   UNL     1      -6.085  10.718  68.451  1.00  0.00    -0.046 A  
HETATM   44  C   UNL     1      -6.961   8.253  67.486  1.00  0.00    -0.075 A  
HETATM   45  C   UNL     1      -6.844  10.652  67.280  1.00  0.00    -0.079 A  
HETATM   46  C   UNL     1      -5.756   9.552  69.136  1.00  0.00    -0.035 A  
ENDBRANCH  32  41
ENDBRANCH  31  32
ENDBRANCH  18  31
ENDBRANCH   6  10
ENDBRANCH   2   3
TORSDOF 11
ENDMDL
MODEL       60
REMARK 921   NORMALIZED FREE ENERGY PREDICTED BY IDOCK:   -5.37 KCAL/MOL
REMARK 922        TOTAL FREE ENERGY PREDICTED BY IDOCK:  -11.88 KCAL/MOL
REMARK 923 INTER-LIGAND FREE ENERGY PREDICTED BY IDOCK:   -8.96 KCAL/MOL
REMARK 924 INTRA-LIGAND FREE ENERGY PREDICTED BY IDOCK:   -2.92 KCAL/MOL
REMARK 927      BINDING AFFINITY PREDICTED BY RF-SCORE:    0.00 PKD
ROOT
HETATM    1  C   UNL     1     -12.232  14.787  64.480  1.00  0.00    -0.428 C  
HETATM    2  O   UNL     1     -12.902  14.241  65.622  1.00  0.00    -0.475 OA 
ENDROOT
BRANCH   2   3
HETATM    3  C   UNL     1     -12.099  14.022  66.709  1.00  0.00    -0.447 A  
HETATM    4  C   UNL     1     -11.711  12.698  66.959  1.00  0.00    -0.369 A  
HETATM    5  F   UNL     1     -12.140  11.719  66.143  1.00  0.00    -0.281 F  
HETATM    6  C   UNL     1     -10.874  12.381  68.037  1.00  0.00    -0.251 A  
HETATM    7  C   UNL     1     -10.448  13.408  68.892  1.00  0.00    -0.135 A  
HETATM    8  C   UNL     1     -11.682  15.034  67.581  1.00  0.00    -0.281 A  
HETATM    9  C   UNL     1     -10.856  14.725  68.663  1.00  0.00    -0.257 A  
BRANCH   6  10
HETATM   10  C   UNL     1     -10.393  10.999  68.244  1.00  0.00    -0.197 C  
HETATM   11  C   UNL     1     -12.349  10.381  69.695  1.00  0.00    -0.060 C  
HETATM   12  C   UNL     1     -11.039  10.080  68.996  1.00  0.00    -0.180 C  
HETATM   13  N   UNL     1     -10.522   8.783  69.105  1.00  0.00    -0.224 N  
HETATM   14  C   UNL     1      -9.525   8.314  68.245  1.00  0.00    -0.138 C  
HETATM   15  C   UNL     1      -9.078  10.621  67.643  1.00  0.00    -0.142 C  
HETATM   16  O   UNL     1      -9.328   7.109  68.067  1.00  0.00    -0.130 OA 
HETATM   17  O   UNL     1      -8.324  11.490  67.203  1.00  0.00    -0.146 OA 
HETATM   18  N   UNL     1      -8.777   9.277  67.603  1.00  0.00    -0.116 N  
BRANCH  13  19
HETATM   19  C   UNL     1     -11.085   7.783  70.021  1.00  0.00    -0.175 C  
BRANCH  19  20
HETATM   20  C   UNL     1     -10.238   7.381  71.223  1.00  0.00    -0.197 A  
HETATM   21  F   UNL     1      -8.787   4.591  69.660  1.00  0.00    -0.091 F  
HETATM   22  C   UNL     1      -9.854   4.922  70.437  1.00  0.00    -0.232 C  
HETATM   23  C   UNL     1      -9.578   6.130  71.312  1.00  0.00    -0.189 A  
HETATM   24  F   UNL     1     -10.583   9.516  72.226  1.00  0.00    -0.154 F  
HETATM   25  C   UNL     1      -8.577   5.949  72.299  1.00  0.00    -0.124 A  
HETATM   26  C   UNL     1      -9.937   8.344  72.206  1.00  0.00    -0.313 A  
HETATM   27  F   UNL     1     -10.118   3.816  71.191  1.00  0.00    -0.251 F  
HETATM   28  F   UNL     1     -10.911   5.030  69.594  1.00  0.00    -0.302 F  
HETATM   29  C   UNL     1      -8.974   8.133  73.194  1.00  0.00    -0.330 A  
HETATM   30  C   UNL     1      -8.267   6.944  73.222  1.00  0.00    -0.126 A  
ENDBRANCH  19  20
ENDBRANCH  13  19
BRANCH  18  31
HETATM   31  C   UNL     1      -7.585   8.848  66.859  1.00  0.00    -0.087 C  
BRANCH  31  32
HETATM   32  C   UNL     1      -7.869   8.162  65.484  1.00  0.00    -0.104 C  
BRANCH  32  33
HETATM   33  N   UNL     1      -6.748   7.324  64.977  1.00  0.00    -0.046 NA 
HETATM   34  H   UNL     1      -5.858   7.681  65.323  1.00  0.00     0.000 HD 
BRANCH  33  35
HETATM   35  C   UNL     1      -6.865   5.898  65.266  1.00  0.00    -0.051 C  
BRANCH  35  36
HETATM   36  C   UNL     1      -7.856   5.227  64.302  1.00  0.00    -0.101 C  
BRANCH  36  37
HETATM   37  C   UNL     1      -8.052   3.737  64.580  1.00  0.00    -0.090 C  
HETATM   38  O   UNL     1      -8.846   2.921  66.705  1.00  0.00    -0.131 OA 
HETATM   39  C   UNL     1      -9.087   3.476  65.644  1.00  0.00    -0.149 C  
HETATM   40  O   UNL     1     -10.332   3.866  65.297  1.00  0.00    -0.137 OA 
ENDBRANCH  36  37
ENDBRANCH  35  36
ENDBRANCH  33  35
ENDBRANCH  32  33
BRANCH  32  41
HETATM   41  C   UNL     1      -8.216   9.173  64.386  1.00  0.00    -0.158 A  
HETATM   42  C   UNL     1      -7.517  10.548  62.502  1.00  0.00    -0.147 A  
HETATM   43  C   UNL     1      -9.782  10.702  63.304  1.00  0.00    -0.385 A  
HETATM   44  C   UNL     1      -7.231   9.590  63.479  1.00  0.00    -0.105 A  
HETATM   45  C   UNL     1      -9.502   9.736  64.275  1.00  0.00    -0.196 A  
HETATM   46  C   UNL     1      -8.790  11.107  62.417  1.00  0.00    -0.333 A  
ENDBRANCH  32  41
ENDBRANCH  31  32
ENDBRANCH  18  31
ENDBRANCH   6  10
ENDBRANCH   2   3
TORSDOF 11
ENDMDL
MODEL       61
REMARK 921   NORMALIZED FREE ENERGY PREDICTED BY IDOCK:   -5.34 KCAL/MOL
REMARK 922        TOTAL FREE ENERGY PREDICTED BY IDOCK:  -11.84 KCAL/MOL
REMARK 923 INTER-LIGAND FREE ENERGY PREDICTED BY IDOCK:   -8.74 KCAL/MOL
REMARK 924 INTRA-LIGAND FREE ENERGY PREDICTED BY IDOCK:   -3.10 KCAL/MOL
REMARK 927      BINDING AFFINITY PREDICTED BY RF-SCORE:    0.00 PKD
ROOT
HETATM    1  C   UNL     1     -10.782  15.356  66.921  1.00  0.00    -0.314 C  
HETATM    2  O   UNL     1      -9.660  14.520  66.621  1.00  0.00    -0.252 OA 
ENDROOT
BRANCH   2   3
HETATM    3  C   UNL     1      -9.952  13.414  65.868  1.00  0.00    -0.277 A  
HETATM    4  C   UNL     1      -9.513  12.175  66.356  1.00  0.00    -0.233 A  
HETATM    5  F   UNL     1      -8.832  12.126  67.514  1.00  0.00    -0.152 F  
HETATM    6  C   UNL     1      -9.784  10.988  65.663  1.00  0.00    -0.276 A  
HETATM    7  C   UNL     1     -10.479  11.054  64.447  1.00  0.00    -0.422 A  
HETATM    8  C   UNL     1     -10.628  13.467  64.643  1.00  0.00    -0.441 A  
HETATM    9  C   UNL     1     -10.894  12.290  63.942  1.00  0.00    -0.464 A  
BRANCH   6  10
HETATM   10  C   UNL     1      -9.401   9.676  66.225  1.00  0.00    -0.238 C  
HETATM   11  C   UNL     1      -7.329   9.513  64.813  1.00  0.00    -0.112 C  
HETATM   12  C   UNL     1      -8.300   8.987  65.851  1.00  0.00    -0.125 C  
HETATM   13  N   UNL     1      -8.000   7.765  66.466  1.00  0.00    -0.104 N  
HETATM   14  C   UNL     1      -8.630   7.364  67.647  1.00  0.00    -0.119 C  
HETATM   15  C   UNL     1     -10.326   9.045  67.214  1.00  0.00    -0.273 C  
HETATM   16  O   UNL     1      -8.138   6.515  68.396  1.00  0.00    -0.109 OA 
HETATM   17  O   UNL     1     -11.465   9.486  67.368  1.00  0.00     0.310 OA 
HETATM   18  N   UNL     1      -9.833   7.976  67.931  1.00  0.00    -0.160 N  
BRANCH  13  19
HETATM   19  C   UNL     1      -6.911   6.895  66.007  1.00  0.00    -0.060 C  
BRANCH  19  20
HETATM   20  C   UNL     1      -7.299   5.560  65.381  1.00  0.00    -0.072 A  
HETATM   21  F   UNL     1      -6.751   3.683  68.298  1.00  0.00    -0.042 F  
HETATM   22  C   UNL     1      -6.099   4.094  67.177  1.00  0.00    -0.028 C  
HETATM   23  C   UNL     1      -7.042   4.316  66.010  1.00  0.00    -0.067 A  
HETATM   24  F   UNL     1      -8.325   6.678  63.543  1.00  0.00    -0.083 F  
HETATM   25  C   UNL     1      -7.693   3.154  65.526  1.00  0.00    -0.081 A  
HETATM   26  C   UNL     1      -8.108   5.549  64.228  1.00  0.00    -0.124 A  
HETATM   27  F   UNL     1      -5.189   3.116  66.898  1.00  0.00    -0.009 F  
HETATM   28  F   UNL     1      -5.355   5.166  67.549  1.00  0.00    -0.009 F  
HETATM   29  C   UNL     1      -8.710   4.387  63.744  1.00  0.00    -0.129 A  
HETATM   30  C   UNL     1      -8.530   3.190  64.414  1.00  0.00    -0.093 A  
ENDBRANCH  19  20
ENDBRANCH  13  19
BRANCH  18  31
HETATM   31  C   UNL     1     -10.637   7.444  69.038  1.00  0.00    -0.192 C  
BRANCH  31  32
HETATM   32  C   UNL     1     -10.291   8.019  70.450  1.00  0.00    -0.206 C  
BRANCH  32  33
HETATM   33  N   UNL     1     -10.094   6.981  71.499  1.00  0.00    -0.188 NA 
HETATM   34  H   UNL     1     -10.378   6.067  71.148  1.00  0.00     0.000 HD 
BRANCH  33  35
HETATM   35  C   UNL     1      -8.745   6.912  72.053  1.00  0.00    -0.125 C  
BRANCH  35  36
HETATM   36  C   UNL     1      -8.588   7.891  73.227  1.00  0.00    -0.276 C  
BRANCH  36  37
HETATM   37  C   UNL     1      -7.130   8.234  73.535  1.00  0.00    -0.158 C  
HETATM   38  O   UNL     1      -5.370   7.927  71.918  1.00  0.00    -0.035 OA 
HETATM   39  C   UNL     1      -6.338   8.567  72.298  1.00  0.00    -0.073 C  
HETATM   40  O   UNL     1      -6.763   9.681  71.664  1.00  0.00    -0.307 OA 
ENDBRANCH  36  37
ENDBRANCH  35  36
ENDBRANCH  33  35
ENDBRANCH  32  33
BRANCH  32  41
HETATM   41  C   UNL     1     -11.359   8.990  70.963  1.00  0.00    -0.362 A  
HETATM   42  C   UNL     1     -13.437   9.378  72.172  1.00  0.00    -0.543 A  
HETATM   43  C   UNL     1     -12.341  11.222  71.078  1.00  0.00    -0.472 A  
HETATM   44  C   UNL     1     -12.428   8.514  71.737  1.00  0.00    -0.388 A  
HETATM   45  C   UNL     1     -11.325  10.363  70.651  1.00  0.00    -0.411 A  
HETATM   46  C   UNL     1     -13.396  10.730  71.841  1.00  0.00    -0.445 A  
ENDBRANCH  32  41
ENDBRANCH  31  32
ENDBRANCH  18  31
ENDBRANCH   6  10
ENDBRANCH   2   3
TORSDOF 11
ENDMDL
MODEL       62
REMARK 921   NORMALIZED FREE ENERGY PREDICTED BY IDOCK:   -5.34 KCAL/MOL
REMARK 922        TOTAL FREE ENERGY PREDICTED BY IDOCK:  -11.83 KCAL/MOL
REMARK 923 INTER-LIGAND FREE ENERGY PREDICTED BY IDOCK:  -10.05 KCAL/MOL
REMARK 924 INTRA-LIGAND FREE ENERGY PREDICTED BY IDOCK:   -1.78 KCAL/MOL
REMARK 927      BINDING AFFINITY PREDICTED BY RF-SCORE:    0.00 PKD
ROOT
HETATM    1  C   UNL     1     -12.662  15.535  72.167  1.00  0.00    -0.403 C  
HETATM    2  O   UNL     1     -12.309  14.742  71.029  1.00  0.00    -0.288 OA 
ENDROOT
BRANCH   2   3
HETATM    3  C   UNL     1     -12.558  13.402  71.163  1.00  0.00    -0.345 A  
HETATM    4  C   UNL     1     -11.805  12.530  70.364  1.00  0.00    -0.160 A  
HETATM    5  F   UNL     1     -10.895  13.035  69.512  1.00  0.00    -0.172 F  
HETATM    6  C   UNL     1     -11.976  11.142  70.448  1.00  0.00    -0.469 A  
HETATM    7  C   UNL     1     -12.941  10.628  71.326  1.00  0.00    -0.513 A  
HETATM    8  C   UNL     1     -13.530  12.876  72.022  1.00  0.00    -0.568 A  
HETATM    9  C   UNL     1     -13.714  11.495  72.104  1.00  0.00     0.065 A  
BRANCH   6  10
HETATM   10  C   UNL     1     -11.118  10.222  69.672  1.00  0.00    -0.323 C  
HETATM   11  C   UNL     1     -10.123   9.182  71.731  1.00  0.00    -0.279 C  
HETATM   12  C   UNL     1     -10.267   9.333  70.231  1.00  0.00    -0.227 C  
HETATM   13  N   UNL     1      -9.519   8.477  69.412  1.00  0.00    -0.161 N  
HETATM   14  C   UNL     1      -9.822   8.304  68.059  1.00  0.00    -0.169 C  
HETATM   15  C   UNL     1     -11.145  10.334  68.182  1.00  0.00    -0.264 C  
HETATM   16  O   UNL     1      -9.449   7.312  67.426  1.00  0.00    -0.127 OA 
HETATM   17  O   UNL     1     -11.674  11.307  67.642  1.00  0.00    -0.564 OA 
HETATM   18  N   UNL     1     -10.567   9.304  67.472  1.00  0.00    -0.279 N  
BRANCH  13  19
HETATM   19  C   UNL     1      -8.470   7.597  69.940  1.00  0.00    -0.137 C  
BRANCH  19  20
HETATM   20  C   UNL     1      -8.681   6.094  69.799  1.00  0.00    -0.135 A  
HETATM   21  F   UNL     1      -5.341   5.389  68.976  1.00  0.00     0.000 F  
HETATM   22  C   UNL     1      -6.530   5.679  68.381  1.00  0.00    -0.046 C  
HETATM   23  C   UNL     1      -7.716   5.236  69.216  1.00  0.00    -0.084 A  
HETATM   24  F   UNL     1     -10.771   6.244  70.935  1.00  0.00    -0.254 F  
HETATM   25  C   UNL     1      -7.844   3.835  69.393  1.00  0.00    -0.052 A  
HETATM   26  C   UNL     1      -9.786   5.491  70.433  1.00  0.00    -0.183 A  
HETATM   27  F   UNL     1      -6.506   5.039  67.176  1.00  0.00    -0.042 F  
HETATM   28  F   UNL     1      -6.481   7.000  68.075  1.00  0.00    -0.039 F  
HETATM   29  C   UNL     1      -9.913   4.108  70.565  1.00  0.00    -0.177 A  
HETATM   30  C   UNL     1      -8.923   3.277  70.073  1.00  0.00    -0.172 A  
ENDBRANCH  19  20
ENDBRANCH  13  19
BRANCH  18  31
HETATM   31  C   UNL     1     -10.731   9.282  66.013  1.00  0.00     0.755 C  
BRANCH  31  32
HETATM   32  C   UNL     1      -9.701  10.144  65.213  1.00  0.00    -0.300 C  
BRANCH  32  33
HETATM   33  N   UNL     1     -10.134  10.482  63.830  1.00  0.00    -0.444 NA 
HETATM   34  H   UNL     1     -11.066  10.109  63.650  1.00  0.00     0.000 HD 
BRANCH  33  35
HETATM   35  C   UNL     1     -10.089  11.904  63.500  1.00  0.00    -0.441 C  
BRANCH  35  36
HETATM   36  C   UNL     1      -9.963  12.754  64.774  1.00  0.00    -0.158 C  
BRANCH  36  37
HETATM   37  C   UNL     1     -10.953  13.918  64.824  1.00  0.00    -0.407 C  
HETATM   38  O   UNL     1     -12.735  14.156  63.218  1.00  0.00    -0.714 OA 
HETATM   39  C   UNL     1     -12.279  13.579  64.193  1.00  0.00    -0.394 C  
HETATM   40  O   UNL     1     -12.955  12.605  64.840  1.00  0.00    -0.830 OA 
ENDBRANCH  36  37
ENDBRANCH  35  36
ENDBRANCH  33  35
ENDBRANCH  32  33
BRANCH  32  41
HETATM   41  C   UNL     1      -8.330   9.469  65.110  1.00  0.00    -0.148 A  
HETATM   42  C   UNL     1      -6.942   7.652  64.272  1.00  0.00    -0.060 A  
HETATM   43  C   UNL     1      -5.979   9.296  65.745  1.00  0.00    -0.055 A  
HETATM   44  C   UNL     1      -8.174   8.308  64.338  1.00  0.00    -0.130 A  
HETATM   45  C   UNL     1      -7.207   9.960  65.803  1.00  0.00    -0.110 A  
HETATM   46  C   UNL     1      -5.845   8.142  64.978  1.00  0.00    -0.045 A  
ENDBRANCH  32  41
ENDBRANCH  31  32
ENDBRANCH  18  31
ENDBRANCH   6  10
ENDBRANCH   2   3
TORSDOF 11
ENDMDL
MODEL       63
REMARK 921   NORMALIZED FREE ENERGY PREDICTED BY IDOCK:   -5.33 KCAL/MOL
REMARK 922        TOTAL FREE ENERGY PREDICTED BY IDOCK:  -11.81 KCAL/MOL
REMARK 923 INTER-LIGAND FREE ENERGY PREDICTED BY IDOCK:   -8.48 KCAL/MOL
REMARK 924 INTRA-LIGAND FREE ENERGY PREDICTED BY IDOCK:   -3.33 KCAL/MOL
REMARK 927      BINDING AFFINITY PREDICTED BY RF-SCORE:    0.00 PKD
ROOT
HETATM    1  C   UNL     1     -13.151  12.003  71.857  1.00  0.00    -0.370 C  
HETATM    2  O   UNL     1     -13.521  10.688  71.429  1.00  0.00    -0.248 OA 
ENDROOT
BRANCH   2   3
HETATM    3  C   UNL     1     -12.505   9.771  71.448  1.00  0.00    -0.387 A  
HETATM    4  C   UNL     1     -11.761   9.617  70.270  1.00  0.00    -0.155 A  
HETATM    5  F   UNL     1     -12.073  10.357  69.191  1.00  0.00    -0.269 F  
HETATM    6  C   UNL     1     -10.689   8.717  70.203  1.00  0.00    -0.244 A  
HETATM    7  C   UNL     1     -10.385   7.938  71.329  1.00  0.00    -0.222 A  
HETATM    8  C   UNL     1     -12.202   8.973  72.558  1.00  0.00    -0.234 A  
HETATM    9  C   UNL     1     -11.143   8.067  72.496  1.00  0.00    -0.440 A  
BRANCH   6  10
HETATM   10  C   UNL     1      -9.850   8.624  68.990  1.00  0.00    -0.184 C  
HETATM   11  C   UNL     1     -10.902   6.466  68.251  1.00  0.00    -0.384 C  
HETATM   12  C   UNL     1      -9.923   7.612  68.097  1.00  0.00    -0.175 C  
HETATM   13  N   UNL     1      -9.108   7.629  66.958  1.00  0.00    -0.130 N  
HETATM   14  C   UNL     1      -8.430   8.783  66.557  1.00  0.00    -0.116 C  
HETATM   15  C   UNL     1      -8.811   9.678  68.780  1.00  0.00    -0.130 C  
HETATM   16  O   UNL     1      -8.032   8.940  65.399  1.00  0.00    -0.101 OA 
HETATM   17  O   UNL     1      -8.512  10.446  69.695  1.00  0.00    -0.145 OA 
HETATM   18  N   UNL     1      -8.235   9.741  67.529  1.00  0.00    -0.114 N  
BRANCH  13  19
HETATM   19  C   UNL     1      -9.025   6.495  66.030  1.00  0.00    -0.122 C  
BRANCH  19  20
HETATM   20  C   UNL     1      -7.753   5.657  66.061  1.00  0.00    -0.095 A  
HETATM   21  F   UNL     1      -6.314   7.174  63.240  1.00  0.00    -0.042 F  
HETATM   22  C   UNL     1      -7.099   6.115  63.576  1.00  0.00    -0.049 C  
HETATM   23  C   UNL     1      -6.831   5.622  64.986  1.00  0.00    -0.051 A  
HETATM   24  F   UNL     1      -8.222   4.963  68.293  1.00  0.00    -0.085 F  
HETATM   25  C   UNL     1      -5.541   5.074  65.202  1.00  0.00    -0.014 A  
HETATM   26  C   UNL     1      -7.368   5.034  67.265  1.00  0.00    -0.082 A  
HETATM   27  F   UNL     1      -6.828   5.147  62.654  1.00  0.00    -0.028 F  
HETATM   28  F   UNL     1      -8.374   6.498  63.316  1.00  0.00    -0.097 F  
HETATM   29  C   UNL     1      -6.107   4.467  67.447  1.00  0.00    -0.027 A  
HETATM   30  C   UNL     1      -5.177   4.516  66.424  1.00  0.00    -0.009 A  
ENDBRANCH  19  20
ENDBRANCH  13  19
BRANCH  18  31
HETATM   31  C   UNL     1      -7.348  10.870  67.223  1.00  0.00    -0.103 C  
BRANCH  31  32
HETATM   32  C   UNL     1      -8.049  12.265  67.142  1.00  0.00    -0.173 C  
BRANCH  32  33
HETATM   33  N   UNL     1      -8.229  12.934  68.458  1.00  0.00    -0.291 NA 
HETATM   34  H   UNL     1      -7.802  12.378  69.198  1.00  0.00     0.000 HD 
BRANCH  33  35
HETATM   35  C   UNL     1      -7.746  14.311  68.522  1.00  0.00    -0.137 C  
BRANCH  35  36
HETATM   36  C   UNL     1      -8.757  15.209  69.251  1.00  0.00    -0.207 C  
BRANCH  36  37
HETATM   37  C   UNL     1      -9.253  16.375  68.396  1.00  0.00    -0.217 C  
HETATM   38  O   UNL     1     -10.433  16.035  66.323  1.00  0.00    -0.307 OA 
HETATM   39  C   UNL     1     -10.439  16.006  67.544  1.00  0.00    -0.297 C  
HETATM   40  O   UNL     1     -11.542  15.687  68.255  1.00  0.00    -0.362 OA 
ENDBRANCH  36  37
ENDBRANCH  35  36
ENDBRANCH  33  35
ENDBRANCH  32  33
BRANCH  32  41
HETATM   41  C   UNL     1      -9.427  12.189  66.476  1.00  0.00    -0.235 A  
HETATM   42  C   UNL     1     -10.774  11.916  64.465  1.00  0.00    -0.361 A  
HETATM   43  C   UNL     1     -11.859  12.386  66.563  1.00  0.00    -0.407 A  
HETATM   44  C   UNL     1      -9.528  11.940  65.099  1.00  0.00    -0.059 A  
HETATM   45  C   UNL     1     -10.615  12.399  67.201  1.00  0.00    -0.247 A  
HETATM   46  C   UNL     1     -11.938  12.142  65.195  1.00  0.00    -0.324 A  
ENDBRANCH  32  41
ENDBRANCH  31  32
ENDBRANCH  18  31
ENDBRANCH   6  10
ENDBRANCH   2   3
TORSDOF 11
ENDMDL
MODEL       64
REMARK 921   NORMALIZED FREE ENERGY PREDICTED BY IDOCK:   -5.28 KCAL/MOL
REMARK 922        TOTAL FREE ENERGY PREDICTED BY IDOCK:  -11.73 KCAL/MOL
REMARK 923 INTER-LIGAND FREE ENERGY PREDICTED BY IDOCK:   -9.14 KCAL/MOL
REMARK 924 INTRA-LIGAND FREE ENERGY PREDICTED BY IDOCK:   -2.59 KCAL/MOL
REMARK 927      BINDING AFFINITY PREDICTED BY RF-SCORE:    0.00 PKD
ROOT
HETATM    1  C   UNL     1     -10.502   6.777  73.421  1.00  0.00    -0.310 C  
HETATM    2  O   UNL     1     -10.669   7.978  72.660  1.00  0.00    -0.307 OA 
ENDROOT
BRANCH   2   3
HETATM    3  C   UNL     1      -9.567   8.362  71.944  1.00  0.00    -0.254 A  
HETATM    4  C   UNL     1      -9.766   8.695  70.596  1.00  0.00    -0.184 A  
HETATM    5  F   UNL     1     -11.002   8.617  70.073  1.00  0.00    -0.241 F  
HETATM    6  C   UNL     1      -8.700   9.118  69.791  1.00  0.00    -0.155 A  
HETATM    7  C   UNL     1      -7.413   9.177  70.343  1.00  0.00    -0.107 A  
HETATM    8  C   UNL     1      -8.273   8.407  72.476  1.00  0.00    -0.198 A  
HETATM    9  C   UNL     1      -7.205   8.818  71.678  1.00  0.00    -0.095 A  
BRANCH   6  10
HETATM   10  C   UNL     1      -8.928   9.556  68.398  1.00  0.00    -0.127 C  
HETATM   11  C   UNL     1      -8.677   7.233  67.474  1.00  0.00    -0.121 C  
HETATM   12  C   UNL     1      -8.915   8.723  67.333  1.00  0.00    -0.133 C  
HETATM   13  N   UNL     1      -9.177   9.225  66.053  1.00  0.00    -0.189 N  
HETATM   14  C   UNL     1      -9.731  10.494  65.860  1.00  0.00    -0.217 C  
HETATM   15  C   UNL     1      -9.114  11.017  68.148  1.00  0.00    -0.155 C  
HETATM   16  O   UNL     1     -10.310  10.804  64.816  1.00  0.00    -0.321 OA 
HETATM   17  O   UNL     1      -8.849  11.836  69.029  1.00  0.00     0.059 OA 
HETATM   18  N   UNL     1      -9.598  11.379  66.909  1.00  0.00    -0.183 N  
BRANCH  13  19
HETATM   19  C   UNL     1      -9.030   8.412  64.840  1.00  0.00     0.182 C  
BRANCH  19  20
HETATM   20  C   UNL     1      -7.614   8.145  64.344  1.00  0.00    -0.115 A  
HETATM   21  F   UNL     1      -8.264   4.851  63.315  1.00  0.00    -0.083 F  
HETATM   22  C   UNL     1      -7.824   5.544  64.400  1.00  0.00    -0.110 C  
HETATM   23  C   UNL     1      -7.148   6.847  64.018  1.00  0.00    -0.060 A  
HETATM   24  F   UNL     1      -7.128  10.478  64.363  1.00  0.00    -0.123 F  
HETATM   25  C   UNL     1      -5.943   6.712  63.284  1.00  0.00    -0.035 A  
HETATM   26  C   UNL     1      -6.783   9.233  64.013  1.00  0.00    -0.091 A  
HETATM   27  F   UNL     1      -6.960   4.709  65.047  1.00  0.00    -0.055 F  
HETATM   28  F   UNL     1      -8.891   5.652  65.231  1.00  0.00    -0.151 F  
HETATM   29  C   UNL     1      -5.580   9.078  63.323  1.00  0.00    -0.072 A  
HETATM   30  C   UNL     1      -5.174   7.816  62.927  1.00  0.00    -0.050 A  
ENDBRANCH  19  20
ENDBRANCH  13  19
BRANCH  18  31
HETATM   31  C   UNL     1      -9.968  12.782  66.684  1.00  0.00    -0.245 C  
BRANCH  31  32
HETATM   32  C   UNL     1     -11.478  13.118  66.911  1.00  0.00    -0.341 C  
BRANCH  32  33
HETATM   33  N   UNL     1     -11.967  14.283  66.126  1.00  0.00    -0.406 NA 
HETATM   34  H   UNL     1     -11.988  15.118  66.711  1.00  0.00     0.000 HD 
BRANCH  33  35
HETATM   35  C   UNL     1     -11.232  14.550  64.893  1.00  0.00    -0.391 C  
BRANCH  35  36
HETATM   36  C   UNL     1     -10.784  16.019  64.834  1.00  0.00    -0.339 C  
BRANCH  36  37
HETATM   37  C   UNL     1     -10.389  16.584  66.199  1.00  0.00    -0.344 C  
HETATM   38  O   UNL     1      -8.380  15.898  67.340  1.00  0.00    -0.155 OA 
HETATM   39  C   UNL     1      -8.903  16.536  66.439  1.00  0.00    -0.310 C  
HETATM   40  O   UNL     1      -8.191  17.313  65.594  1.00  0.00    -0.467 OA 
ENDBRANCH  36  37
ENDBRANCH  35  36
ENDBRANCH  33  35
ENDBRANCH  32  33
BRANCH  32  41
HETATM   41  C   UNL     1     -11.802  13.389  68.383  1.00  0.00    -0.401 A  
HETATM   42  C   UNL     1     -11.957  14.953  70.244  1.00  0.00    -0.365 A  
HETATM   43  C   UNL     1     -12.389  12.614  70.623  1.00  0.00    -0.375 A  
HETATM   44  C   UNL     1     -11.712  14.694  68.892  1.00  0.00    -0.343 A  
HETATM   45  C   UNL     1     -12.157  12.355  69.269  1.00  0.00    -0.218 A  
HETATM   46  C   UNL     1     -12.291  13.914  71.110  1.00  0.00    -0.440 A  
ENDBRANCH  32  41
ENDBRANCH  31  32
ENDBRANCH  18  31
ENDBRANCH   6  10
ENDBRANCH   2   3
TORSDOF 11
ENDMDL
MODEL       65
REMARK 921   NORMALIZED FREE ENERGY PREDICTED BY IDOCK:   -5.24 KCAL/MOL
REMARK 922        TOTAL FREE ENERGY PREDICTED BY IDOCK:  -11.67 KCAL/MOL
REMARK 923 INTER-LIGAND FREE ENERGY PREDICTED BY IDOCK:   -9.62 KCAL/MOL
REMARK 924 INTRA-LIGAND FREE ENERGY PREDICTED BY IDOCK:   -2.05 KCAL/MOL
REMARK 927      BINDING AFFINITY PREDICTED BY RF-SCORE:    0.00 PKD
ROOT
HETATM    1  C   UNL     1     -13.230  11.668  72.073  1.00  0.00    -0.338 C  
HETATM    2  O   UNL     1     -13.534  10.333  71.655  1.00  0.00    -0.339 OA 
ENDROOT
BRANCH   2   3
HETATM    3  C   UNL     1     -12.450   9.503  71.548  1.00  0.00    -0.376 A  
HETATM    4  C   UNL     1     -11.777   9.488  70.318  1.00  0.00    -0.117 A  
HETATM    5  F   UNL     1     -12.218  10.266  69.314  1.00  0.00    -0.194 F  
HETATM    6  C   UNL     1     -10.645   8.685  70.123  1.00  0.00    -0.235 A  
HETATM    7  C   UNL     1     -10.205   7.864  71.171  1.00  0.00    -0.221 A  
HETATM    8  C   UNL     1     -12.011   8.665  72.579  1.00  0.00    -0.358 A  
HETATM    9  C   UNL     1     -10.891   7.855  72.390  1.00  0.00    -0.378 A  
BRANCH   6  10
HETATM   10  C   UNL     1      -9.884   8.739  68.857  1.00  0.00    -0.183 C  
HETATM   11  C   UNL     1     -10.742   6.511  68.077  1.00  0.00    -0.351 C  
HETATM   12  C   UNL     1      -9.906   7.765  67.921  1.00  0.00    -0.160 C  
HETATM   13  N   UNL     1      -9.178   7.922  66.735  1.00  0.00    -0.156 N  
HETATM   14  C   UNL     1      -8.657   9.161  66.351  1.00  0.00    -0.125 C  
HETATM   15  C   UNL     1      -8.983   9.911  68.636  1.00  0.00    -0.128 C  
HETATM   16  O   UNL     1      -8.359   9.412  65.180  1.00  0.00    -0.130 OA 
HETATM   17  O   UNL     1      -8.708  10.667  69.568  1.00  0.00    -0.096 OA 
HETATM   18  N   UNL     1      -8.503  10.092  67.357  1.00  0.00    -0.121 N  
BRANCH  13  19
HETATM   19  C   UNL     1      -9.034   6.846  65.747  1.00  0.00    -0.009 C  
BRANCH  19  20
HETATM   20  C   UNL     1      -7.942   5.812  65.993  1.00  0.00    -0.103 A  
HETATM   21  F   UNL     1      -9.589   3.215  64.298  1.00  0.00    -0.126 F  
HETATM   22  C   UNL     1      -9.465   3.740  65.547  1.00  0.00    -0.169 C  
HETATM   23  C   UNL     1      -8.129   4.428  65.753  1.00  0.00    -0.102 A  
HETATM   24  F   UNL     1      -6.404   7.528  66.602  1.00  0.00    -0.040 F  
HETATM   25  C   UNL     1      -6.995   3.578  65.710  1.00  0.00    -0.058 A  
HETATM   26  C   UNL     1      -6.635   6.248  66.289  1.00  0.00    -0.048 A  
HETATM   27  F   UNL     1      -9.619   2.691  66.406  1.00  0.00    -0.094 F  
HETATM   28  F   UNL     1     -10.564   4.512  65.738  1.00  0.00    -0.275 F  
HETATM   29  C   UNL     1      -5.536   5.388  66.279  1.00  0.00    -0.017 A  
HETATM   30  C   UNL     1      -5.711   4.054  65.956  1.00  0.00    -0.018 A  
ENDBRANCH  19  20
ENDBRANCH  13  19
BRANCH  18  31
HETATM   31  C   UNL     1      -7.767  11.325  67.053  1.00  0.00    -0.147 C  
BRANCH  31  32
HETATM   32  C   UNL     1      -8.573  12.650  67.257  1.00  0.00    -0.196 C  
BRANCH  32  33
HETATM   33  N   UNL     1      -9.549  12.942  66.173  1.00  0.00    -0.373 NA 
HETATM   34  H   UNL     1      -9.194  12.605  65.278  1.00  0.00     0.000 HD 
BRANCH  33  35
HETATM   35  C   UNL     1     -10.898  12.434  66.403  1.00  0.00    -0.258 C  
BRANCH  35  36
HETATM   36  C   UNL     1     -11.950  13.467  65.971  1.00  0.00    -0.460 C  
BRANCH  36  37
HETATM   37  C   UNL     1     -11.801  13.906  64.514  1.00  0.00    -0.449 C  
HETATM   38  O   UNL     1     -12.397  16.121  63.774  1.00  0.00    -0.864 OA 
HETATM   39  C   UNL     1     -11.618  15.395  64.372  1.00  0.00    -0.264 C  
HETATM   40  O   UNL     1     -10.476  15.857  64.925  1.00  0.00    -0.542 OA 
ENDBRANCH  36  37
ENDBRANCH  35  36
ENDBRANCH  33  35
ENDBRANCH  32  33
BRANCH  32  41
HETATM   41  C   UNL     1      -7.662  13.873  67.394  1.00  0.00    -0.165 A  
HETATM   42  C   UNL     1      -5.467  14.812  67.877  1.00  0.00    -0.106 A  
HETATM   43  C   UNL     1      -7.319  16.290  67.446  1.00  0.00    -0.193 A  
HETATM   44  C   UNL     1      -6.303  13.706  67.700  1.00  0.00    -0.149 A  
HETATM   45  C   UNL     1      -8.154  15.185  67.257  1.00  0.00    -0.228 A  
HETATM   46  C   UNL     1      -5.974  16.103  67.754  1.00  0.00    -0.160 A  
ENDBRANCH  32  41
ENDBRANCH  31  32
ENDBRANCH  18  31
ENDBRANCH   6  10
ENDBRANCH   2   3
TORSDOF 11
ENDMDL
MODEL       66
REMARK 921   NORMALIZED FREE ENERGY PREDICTED BY IDOCK:   -5.23 KCAL/MOL
REMARK 922        TOTAL FREE ENERGY PREDICTED BY IDOCK:  -11.65 KCAL/MOL
REMARK 923 INTER-LIGAND FREE ENERGY PREDICTED BY IDOCK:   -9.71 KCAL/MOL
REMARK 924 INTRA-LIGAND FREE ENERGY PREDICTED BY IDOCK:   -1.93 KCAL/MOL
REMARK 927      BINDING AFFINITY PREDICTED BY RF-SCORE:    0.00 PKD
ROOT
HETATM    1  C   UNL     1      -6.366  20.042  64.778  1.00  0.00    -0.274 C  
HETATM    2  O   UNL     1      -7.673  19.705  65.255  1.00  0.00    -0.311 OA 
ENDROOT
BRANCH   2   3
HETATM    3  C   UNL     1      -7.706  19.170  66.515  1.00  0.00    -0.264 A  
HETATM    4  C   UNL     1      -8.073  17.822  66.627  1.00  0.00    -0.258 A  
HETATM    5  F   UNL     1      -8.377  17.126  65.517  1.00  0.00    -0.068 F  
HETATM    6  C   UNL     1      -8.114  17.185  67.875  1.00  0.00    -0.201 A  
HETATM    7  C   UNL     1      -7.812  17.926  69.026  1.00  0.00    -0.095 A  
HETATM    8  C   UNL     1      -7.426  19.903  67.675  1.00  0.00    -0.320 A  
HETATM    9  C   UNL     1      -7.474  19.278  68.922  1.00  0.00    -0.397 A  
BRANCH   6  10
HETATM   10  C   UNL     1      -8.411  15.741  67.981  1.00  0.00    -0.161 C  
HETATM   11  C   UNL     1      -6.025  15.072  67.570  1.00  0.00     0.008 C  
HETATM   12  C   UNL     1      -7.484  14.768  67.840  1.00  0.00    -0.145 C  
HETATM   13  N   UNL     1      -7.855  13.426  67.993  1.00  0.00    -0.133 N  
HETATM   14  C   UNL     1      -9.077  13.062  68.565  1.00  0.00    -0.053 C  
HETATM   15  C   UNL     1      -9.835  15.336  68.188  1.00  0.00    -0.217 C  
HETATM   16  O   UNL     1      -9.265  11.943  69.051  1.00  0.00     0.078 OA 
HETATM   17  O   UNL     1     -10.741  16.155  68.036  1.00  0.00    -0.299 OA 
HETATM   18  N   UNL     1     -10.060  14.029  68.562  1.00  0.00    -0.235 N  
BRANCH  13  19
HETATM   19  C   UNL     1      -6.940  12.315  67.704  1.00  0.00    -0.128 C  
BRANCH  19  20
HETATM   20  C   UNL     1      -6.545  11.414  68.868  1.00  0.00    -0.071 A  
HETATM   21  F   UNL     1      -6.527   8.456  66.974  1.00  0.00    -0.053 F  
HETATM   22  C   UNL     1      -7.362   9.202  67.748  1.00  0.00    -0.084 C  
HETATM   23  C   UNL     1      -6.615  10.000  68.799  1.00  0.00    -0.049 A  
HETATM   24  F   UNL     1      -5.880  13.305  70.156  1.00  0.00    -0.106 F  
HETATM   25  C   UNL     1      -5.954   9.230  69.789  1.00  0.00    -0.035 A  
HETATM   26  C   UNL     1      -5.911  11.977  69.992  1.00  0.00    -0.159 A  
HETATM   27  F   UNL     1      -8.226   8.315  68.321  1.00  0.00    -0.120 F  
HETATM   28  F   UNL     1      -8.123   9.924  66.887  1.00  0.00    -0.110 F  
HETATM   29  C   UNL     1      -5.298  11.202  70.977  1.00  0.00    -0.098 A  
HETATM   30  C   UNL     1      -5.290   9.823  70.859  1.00  0.00    -0.057 A  
ENDBRANCH  19  20
ENDBRANCH  13  19
BRANCH  18  31
HETATM   31  C   UNL     1     -11.420  13.637  68.953  1.00  0.00    -0.303 C  
BRANCH  31  32
HETATM   32  C   UNL     1     -12.095  12.566  68.035  1.00  0.00    -0.063 C  
BRANCH  32  33
HETATM   33  N   UNL     1     -11.800  11.159  68.420  1.00  0.00    -0.570 NA 
HETATM   34  H   UNL     1     -10.793  10.998  68.421  1.00  0.00     0.000 HD 
BRANCH  33  35
HETATM   35  C   UNL     1     -12.379  10.733  69.690  1.00  0.00    -0.192 C  
BRANCH  35  36
HETATM   36  C   UNL     1     -11.305  10.111  70.596  1.00  0.00    -0.433 C  
BRANCH  36  37
HETATM   37  C   UNL     1     -11.847   9.006  71.503  1.00  0.00    -0.415 C  
HETATM   38  O   UNL     1     -12.118   6.736  70.740  1.00  0.00    -0.387 OA 
HETATM   39  C   UNL     1     -11.372   7.635  71.096  1.00  0.00    -0.266 C  
HETATM   40  O   UNL     1     -10.037   7.466  71.212  1.00  0.00    -0.189 OA 
ENDBRANCH  36  37
ENDBRANCH  35  36
ENDBRANCH  33  35
ENDBRANCH  32  33
BRANCH  32  41
HETATM   41  C   UNL     1     -11.704  12.729  66.562  1.00  0.00    -0.463 A  
HETATM   42  C   UNL     1     -11.994  13.862  64.427  1.00  0.00    -0.480 A  
HETATM   43  C   UNL     1     -10.478  11.998  64.581  1.00  0.00    -0.338 A  
HETATM   44  C   UNL     1     -12.302  13.730  65.784  1.00  0.00    -0.523 A  
HETATM   45  C   UNL     1     -10.776  11.871  65.941  1.00  0.00    -0.326 A  
HETATM   46  C   UNL     1     -11.086  12.995  63.824  1.00  0.00    -0.353 A  
ENDBRANCH  32  41
ENDBRANCH  31  32
ENDBRANCH  18  31
ENDBRANCH   6  10
ENDBRANCH   2   3
TORSDOF 11
ENDMDL
MODEL       67
REMARK 921   NORMALIZED FREE ENERGY PREDICTED BY IDOCK:   -5.23 KCAL/MOL
REMARK 922        TOTAL FREE ENERGY PREDICTED BY IDOCK:  -11.65 KCAL/MOL
REMARK 923 INTER-LIGAND FREE ENERGY PREDICTED BY IDOCK:  -10.49 KCAL/MOL
REMARK 924 INTRA-LIGAND FREE ENERGY PREDICTED BY IDOCK:   -1.16 KCAL/MOL
REMARK 927      BINDING AFFINITY PREDICTED BY RF-SCORE:    0.00 PKD
ROOT
HETATM    1  C   UNL     1      -9.470   2.933  65.117  1.00  0.00    -0.083 C  
HETATM    2  O   UNL     1      -8.957   2.933  66.453  1.00  0.00    -0.140 OA 
ENDROOT
BRANCH   2   3
HETATM    3  C   UNL     1      -8.241   4.050  66.794  1.00  0.00    -0.100 A  
HETATM    4  C   UNL     1      -8.947   5.104  67.390  1.00  0.00    -0.109 A  
HETATM    5  F   UNL     1     -10.271   4.981  67.593  1.00  0.00    -0.199 F  
HETATM    6  C   UNL     1      -8.293   6.277  67.790  1.00  0.00    -0.117 A  
HETATM    7  C   UNL     1      -6.916   6.401  67.557  1.00  0.00    -0.078 A  
HETATM    8  C   UNL     1      -6.870   4.195  66.550  1.00  0.00    -0.055 A  
HETATM    9  C   UNL     1      -6.214   5.364  66.936  1.00  0.00    -0.035 A  
BRANCH   6  10
HETATM   10  C   UNL     1      -9.022   7.348  68.501  1.00  0.00    -0.128 C  
HETATM   11  C   UNL     1      -8.095   6.690  70.742  1.00  0.00    -0.119 C  
HETATM   12  C   UNL     1      -8.954   7.549  69.836  1.00  0.00    -0.141 C  
HETATM   13  N   UNL     1      -9.654   8.614  70.416  1.00  0.00    -0.168 N  
HETATM   14  C   UNL     1     -10.191   9.648  69.644  1.00  0.00    -0.222 C  
HETATM   15  C   UNL     1      -9.942   8.214  67.703  1.00  0.00    -0.185 C  
HETATM   16  O   UNL     1     -10.465  10.751  70.126  1.00  0.00    -0.061 OA 
HETATM   17  O   UNL     1     -10.258   7.892  66.557  1.00  0.00    -0.251 OA 
HETATM   18  N   UNL     1     -10.393   9.366  68.310  1.00  0.00    -0.204 N  
BRANCH  13  19
HETATM   19  C   UNL     1      -9.748   8.800  71.870  1.00  0.00    -0.316 C  
BRANCH  19  20
HETATM   20  C   UNL     1     -10.168   7.595  72.703  1.00  0.00    -0.321 A  
HETATM   21  F   UNL     1     -12.388   6.318  70.300  1.00  0.00    -0.315 F  
HETATM   22  C   UNL     1     -12.373   7.144  71.381  1.00  0.00    -0.377 C  
HETATM   23  C   UNL     1     -11.280   6.782  72.368  1.00  0.00    -0.300 A  
HETATM   24  F   UNL     1      -8.304   7.903  74.156  1.00  0.00    -0.215 F  
HETATM   25  C   UNL     1     -11.426   5.522  73.001  1.00  0.00    -0.288 A  
HETATM   26  C   UNL     1      -9.326   7.146  73.739  1.00  0.00    -0.232 A  
HETATM   27  F   UNL     1     -13.609   7.032  71.948  1.00  0.00    -0.385 F  
HETATM   28  F   UNL     1     -12.330   8.406  70.886  1.00  0.00    -0.287 F  
HETATM   29  C   UNL     1      -9.507   5.918  74.376  1.00  0.00    -0.164 A  
HETATM   30  C   UNL     1     -10.542   5.087  73.984  1.00  0.00    -0.348 A  
ENDBRANCH  19  20
ENDBRANCH  13  19
BRANCH  18  31
HETATM   31  C   UNL     1     -11.147  10.333  67.503  1.00  0.00    -0.232 C  
BRANCH  31  32
HETATM   32  C   UNL     1     -10.278  11.375  66.725  1.00  0.00    -0.223 C  
BRANCH  32  33
HETATM   33  N   UNL     1     -10.568  11.443  65.267  1.00  0.00    -0.280 NA 
HETATM   34  H   UNL     1     -10.616  10.504  64.873  1.00  0.00     0.000 HD 
BRANCH  33  35
HETATM   35  C   UNL     1     -11.764  12.201  64.911  1.00  0.00    -0.313 C  
BRANCH  35  36
HETATM   36  C   UNL     1     -11.388  13.590  64.374  1.00  0.00    -0.407 C  
BRANCH  36  37
HETATM   37  C   UNL     1     -11.531  14.700  65.416  1.00  0.00    -0.352 C  
HETATM   38  O   UNL     1     -10.044  16.594  65.488  1.00  0.00    -0.553 OA 
HETATM   39  C   UNL     1     -10.972  16.016  64.944  1.00  0.00    -0.384 C  
HETATM   40  O   UNL     1     -11.628  16.537  63.885  1.00  0.00    -1.175 OA 
ENDBRANCH  36  37
ENDBRANCH  35  36
ENDBRANCH  33  35
ENDBRANCH  32  33
BRANCH  32  41
HETATM   41  C   UNL     1      -8.776  11.115  66.881  1.00  0.00    -0.152 A  
HETATM   42  C   UNL     1      -6.768   9.928  66.181  1.00  0.00    -0.092 A  
HETATM   43  C   UNL     1      -6.661  11.433  68.058  1.00  0.00    -0.058 A  
HETATM   44  C   UNL     1      -8.127  10.214  66.023  1.00  0.00    -0.129 A  
HETATM   45  C   UNL     1      -8.017  11.729  67.895  1.00  0.00    -0.141 A  
HETATM   46  C   UNL     1      -6.036  10.533  67.199  1.00  0.00    -0.054 A  
ENDBRANCH  32  41
ENDBRANCH  31  32
ENDBRANCH  18  31
ENDBRANCH   6  10
ENDBRANCH   2   3
TORSDOF 11
ENDMDL
MODEL       68
REMARK 921   NORMALIZED FREE ENERGY PREDICTED BY IDOCK:   -5.16 KCAL/MOL
REMARK 922        TOTAL FREE ENERGY PREDICTED BY IDOCK:  -11.54 KCAL/MOL
REMARK 923 INTER-LIGAND FREE ENERGY PREDICTED BY IDOCK:   -8.62 KCAL/MOL
REMARK 924 INTRA-LIGAND FREE ENERGY PREDICTED BY IDOCK:   -2.92 KCAL/MOL
REMARK 927      BINDING AFFINITY PREDICTED BY RF-SCORE:    0.00 PKD
ROOT
HETATM    1  C   UNL     1      -6.468  17.467  69.131  1.00  0.00    -0.239 C  
HETATM    2  O   UNL     1      -6.491  16.052  68.918  1.00  0.00    -0.116 OA 
ENDROOT
BRANCH   2   3
HETATM    3  C   UNL     1      -7.452  15.617  68.044  1.00  0.00    -0.125 A  
HETATM    4  C   UNL     1      -7.887  14.291  68.181  1.00  0.00    -0.139 A  
HETATM    5  F   UNL     1      -7.350  13.516  69.139  1.00  0.00    -0.106 F  
HETATM    6  C   UNL     1      -8.882  13.767  67.345  1.00  0.00    -0.211 A  
HETATM    7  C   UNL     1      -9.421  14.579  66.337  1.00  0.00    -0.316 A  
HETATM    8  C   UNL     1      -7.986  16.411  67.022  1.00  0.00    -0.240 A  
HETATM    9  C   UNL     1      -8.970  15.893  66.179  1.00  0.00    -0.376 A  
BRANCH   6  10
HETATM   10  C   UNL     1      -9.403  12.399  67.550  1.00  0.00    -0.181 C  
HETATM   11  C   UNL     1     -11.120  13.150  69.224  1.00  0.00    -0.201 C  
HETATM   12  C   UNL     1     -10.409  12.095  68.400  1.00  0.00    -0.229 C  
HETATM   13  N   UNL     1     -10.859  10.773  68.502  1.00  0.00    -0.210 N  
HETATM   14  C   UNL     1     -10.510   9.803  67.558  1.00  0.00    -0.251 C  
HETATM   15  C   UNL     1      -8.729  11.280  66.826  1.00  0.00    -0.166 C  
HETATM   16  O   UNL     1     -11.169   8.771  67.404  1.00  0.00     0.202 OA 
HETATM   17  O   UNL     1      -7.642  11.462  66.276  1.00  0.00    -0.091 OA 
HETATM   18  N   UNL     1      -9.387  10.069  66.803  1.00  0.00    -0.157 N  
BRANCH  13  19
HETATM   19  C   UNL     1     -11.838  10.347  69.509  1.00  0.00    -0.147 C  
BRANCH  19  20
HETATM   20  C   UNL     1     -11.306   9.617  70.737  1.00  0.00    -0.409 A  
HETATM   21  F   UNL     1     -14.182   7.656  71.200  1.00  0.00    -0.442 F  
HETATM   22  C   UNL     1     -13.648   8.844  71.593  1.00  0.00    -0.383 C  
HETATM   23  C   UNL     1     -12.131   8.827  71.576  1.00  0.00    -0.388 A  
HETATM   24  F   UNL     1      -9.087  10.338  70.249  1.00  0.00    -0.153 F  
HETATM   25  C   UNL     1     -11.523   7.944  72.504  1.00  0.00    -0.455 A  
HETATM   26  C   UNL     1      -9.916   9.559  70.955  1.00  0.00    -0.238 A  
HETATM   27  F   UNL     1     -14.126   9.067  72.851  1.00  0.00    -0.475 F  
HETATM   28  F   UNL     1     -14.237   9.792  70.822  1.00  0.00    -0.217 F  
HETATM   29  C   UNL     1      -9.338   8.711  71.900  1.00  0.00    -0.357 A  
HETATM   30  C   UNL     1     -10.141   7.875  72.655  1.00  0.00    -0.343 A  
ENDBRANCH  19  20
ENDBRANCH  13  19
BRANCH  18  31
HETATM   31  C   UNL     1      -8.853   8.998  65.953  1.00  0.00    -0.175 C  
BRANCH  31  32
HETATM   32  C   UNL     1      -7.821   8.049  66.645  1.00  0.00    -0.098 C  
BRANCH  32  33
HETATM   33  N   UNL     1      -6.873   7.391  65.705  1.00  0.00    -0.055 NA 
HETATM   34  H   UNL     1      -6.679   8.004  64.914  1.00  0.00     0.000 HD 
BRANCH  33  35
HETATM   35  C   UNL     1      -5.623   6.936  66.308  1.00  0.00    -0.022 C  
BRANCH  35  36
HETATM   36  C   UNL     1      -5.474   5.413  66.167  1.00  0.00    -0.013 C  
BRANCH  36  37
HETATM   37  C   UNL     1      -5.196   4.965  64.732  1.00  0.00    -0.013 C  
HETATM   38  O   UNL     1      -6.180   2.975  63.795  1.00  0.00    -0.017 OA 
HETATM   39  C   UNL     1      -6.313   4.134  64.157  1.00  0.00    -0.034 C  
HETATM   40  O   UNL     1      -7.477   4.805  64.023  1.00  0.00    -0.057 OA 
ENDBRANCH  36  37
ENDBRANCH  35  36
ENDBRANCH  33  35
ENDBRANCH  32  33
BRANCH  32  41
HETATM   41  C   UNL     1      -8.498   6.943  67.460  1.00  0.00    -0.122 A  
HETATM   42  C   UNL     1      -9.894   4.949  67.539  1.00  0.00    -0.207 A  
HETATM   43  C   UNL     1      -9.119   5.934  69.595  1.00  0.00    -0.145 A  
HETATM   44  C   UNL     1      -9.229   5.938  66.809  1.00  0.00    -0.139 A  
HETATM   45  C   UNL     1      -8.443   6.917  68.867  1.00  0.00    -0.125 A  
HETATM   46  C   UNL     1      -9.842   4.948  68.931  1.00  0.00    -0.241 A  
ENDBRANCH  32  41
ENDBRANCH  31  32
ENDBRANCH  18  31
ENDBRANCH   6  10
ENDBRANCH   2   3
TORSDOF 11
ENDMDL
MODEL       69
REMARK 921   NORMALIZED FREE ENERGY PREDICTED BY IDOCK:   -5.12 KCAL/MOL
REMARK 922        TOTAL FREE ENERGY PREDICTED BY IDOCK:  -11.48 KCAL/MOL
REMARK 923 INTER-LIGAND FREE ENERGY PREDICTED BY IDOCK:   -9.89 KCAL/MOL
REMARK 924 INTRA-LIGAND FREE ENERGY PREDICTED BY IDOCK:   -1.58 KCAL/MOL
REMARK 927      BINDING AFFINITY PREDICTED BY RF-SCORE:    0.00 PKD
ROOT
HETATM    1  C   UNL     1     -12.030  12.866  63.689  1.00  0.00    -0.541 C  
HETATM    2  O   UNL     1     -12.596  12.198  64.821  1.00  0.00    -0.473 OA 
ENDROOT
BRANCH   2   3
HETATM    3  C   UNL     1     -12.153  12.650  66.036  1.00  0.00    -0.364 A  
HETATM    4  C   UNL     1     -11.596  11.701  66.905  1.00  0.00    -0.167 A  
HETATM    5  F   UNL     1     -11.528  10.414  66.521  1.00  0.00    -0.008 F  
HETATM    6  C   UNL     1     -11.098  12.075  68.160  1.00  0.00    -0.294 A  
HETATM    7  C   UNL     1     -11.191  13.417  68.556  1.00  0.00    -0.316 A  
HETATM    8  C   UNL     1     -12.257  13.982  66.452  1.00  0.00    -0.492 A  
HETATM    9  C   UNL     1     -11.772  14.361  67.704  1.00  0.00    -0.421 A  
BRANCH   6  10
HETATM   10  C   UNL     1     -10.429  11.090  69.036  1.00  0.00    -0.242 C  
HETATM   11  C   UNL     1     -12.328  11.046  70.681  1.00  0.00    -0.480 C  
HETATM   12  C   UNL     1     -10.962  10.616  70.184  1.00  0.00    -0.222 C  
HETATM   13  N   UNL     1     -10.267   9.657  70.930  1.00  0.00    -0.281 N  
HETATM   14  C   UNL     1      -9.180   8.957  70.398  1.00  0.00    -0.194 C  
HETATM   15  C   UNL     1      -9.052  10.648  68.662  1.00  0.00    -0.170 C  
HETATM   16  O   UNL     1      -8.803   7.879  70.864  1.00  0.00    -0.135 OA 
HETATM   17  O   UNL     1      -8.417  11.257  67.800  1.00  0.00    -0.120 OA 
HETATM   18  N   UNL     1      -8.557   9.539  69.314  1.00  0.00    -0.139 N  
BRANCH  13  19
HETATM   19  C   UNL     1     -10.712   9.213  72.257  1.00  0.00     0.184 C  
BRANCH  19  20
HETATM   20  C   UNL     1     -10.563   7.732  72.585  1.00  0.00    -0.377 A  
HETATM   21  F   UNL     1     -12.532   6.620  69.899  1.00  0.00    -0.264 F  
HETATM   22  C   UNL     1     -12.645   6.968  71.210  1.00  0.00    -0.373 C  
HETATM   23  C   UNL     1     -11.362   6.729  71.982  1.00  0.00    -0.308 A  
HETATM   24  F   UNL     1      -8.727   8.201  74.032  1.00  0.00    -0.300 F  
HETATM   25  C   UNL     1     -10.968   5.372  72.102  1.00  0.00    -0.265 A  
HETATM   26  C   UNL     1      -9.474   7.307  73.372  1.00  0.00    -0.208 A  
HETATM   27  F   UNL     1     -13.668   6.214  71.706  1.00  0.00    -0.018 F  
HETATM   28  F   UNL     1     -13.113   8.241  71.220  1.00  0.00    -0.311 F  
HETATM   29  C   UNL     1      -9.124   5.964  73.508  1.00  0.00    -0.131 A  
HETATM   30  C   UNL     1      -9.854   4.994  72.844  1.00  0.00    -0.180 A  
ENDBRANCH  19  20
ENDBRANCH  13  19
BRANCH  18  31
HETATM   31  C   UNL     1      -7.289   8.962  68.852  1.00  0.00    -0.075 C  
BRANCH  31  32
HETATM   32  C   UNL     1      -7.374   8.144  67.522  1.00  0.00    -0.093 C  
BRANCH  32  33
HETATM   33  N   UNL     1      -7.465   8.981  66.295  1.00  0.00    -0.091 NA 
HETATM   34  H   UNL     1      -7.262   9.955  66.518  1.00  0.00     0.000 HD 
BRANCH  33  35
HETATM   35  C   UNL     1      -6.634   8.535  65.181  1.00  0.00    -0.064 C  
BRANCH  35  36
HETATM   36  C   UNL     1      -7.495   8.246  63.942  1.00  0.00    -0.114 C  
BRANCH  36  37
HETATM   37  C   UNL     1      -8.881   8.890  64.007  1.00  0.00     0.023 C  
HETATM   38  O   UNL     1      -9.191  11.218  64.545  1.00  0.00    -0.165 OA 
HETATM   39  C   UNL     1      -8.847  10.371  63.736  1.00  0.00    -0.212 C  
HETATM   40  O   UNL     1      -8.448  10.684  62.484  1.00  0.00    -0.181 OA 
ENDBRANCH  36  37
ENDBRANCH  35  36
ENDBRANCH  33  35
ENDBRANCH  32  33
BRANCH  32  41
HETATM   41  C   UNL     1      -8.564   7.179  67.506  1.00  0.00    -0.122 A  
HETATM   42  C   UNL     1      -9.458   4.943  67.873  1.00  0.00    -0.172 A  
HETATM   43  C   UNL     1     -10.891   6.660  66.978  1.00  0.00    -0.467 A  
HETATM   44  C   UNL     1      -8.397   5.851  67.927  1.00  0.00    -0.111 A  
HETATM   45  C   UNL     1      -9.834   7.572  67.042  1.00  0.00    -0.280 A  
HETATM   46  C   UNL     1     -10.704   5.346  67.396  1.00  0.00    -0.161 A  
ENDBRANCH  32  41
ENDBRANCH  31  32
ENDBRANCH  18  31
ENDBRANCH   6  10
ENDBRANCH   2   3
TORSDOF 11
ENDMDL
MODEL       70
REMARK 921   NORMALIZED FREE ENERGY PREDICTED BY IDOCK:   -5.12 KCAL/MOL
REMARK 922        TOTAL FREE ENERGY PREDICTED BY IDOCK:  -11.46 KCAL/MOL
REMARK 923 INTER-LIGAND FREE ENERGY PREDICTED BY IDOCK:   -8.93 KCAL/MOL
REMARK 924 INTRA-LIGAND FREE ENERGY PREDICTED BY IDOCK:   -2.54 KCAL/MOL
REMARK 927      BINDING AFFINITY PREDICTED BY RF-SCORE:    0.00 PKD
ROOT
HETATM    1  C   UNL     1     -12.109  12.892  63.424  1.00  0.00    -0.530 C  
HETATM    2  O   UNL     1     -12.825  12.499  64.600  1.00  0.00    -0.716 OA 
ENDROOT
BRANCH   2   3
HETATM    3  C   UNL     1     -12.254  12.895  65.780  1.00  0.00    -0.439 A  
HETATM    4  C   UNL     1     -11.512  11.935  66.483  1.00  0.00    -0.314 A  
HETATM    5  F   UNL     1     -11.399  10.692  65.984  1.00  0.00    -0.038 F  
HETATM    6  C   UNL     1     -10.876  12.256  67.690  1.00  0.00    -0.262 A  
HETATM    7  C   UNL     1     -11.016  13.551  68.210  1.00  0.00    -0.280 A  
HETATM    8  C   UNL     1     -12.402  14.177  66.320  1.00  0.00    -0.451 A  
HETATM    9  C   UNL     1     -11.780  14.502  67.526  1.00  0.00    -0.413 A  
BRANCH   6  10
HETATM   10  C   UNL     1     -10.018  11.270  68.382  1.00  0.00    -0.201 C  
HETATM   11  C   UNL     1     -11.667  10.929  70.247  1.00  0.00    -0.437 C  
HETATM   12  C   UNL     1     -10.352  10.663  69.542  1.00  0.00    -0.182 C  
HETATM   13  N   UNL     1      -9.488   9.715  70.105  1.00  0.00    -0.244 N  
HETATM   14  C   UNL     1      -8.432   9.160  69.378  1.00  0.00    -0.130 C  
HETATM   15  C   UNL     1      -8.674  10.984  67.796  1.00  0.00    -0.130 C  
HETATM   16  O   UNL     1      -7.912   8.087  69.695  1.00  0.00    -0.111 OA 
HETATM   17  O   UNL     1      -8.211  11.713  66.918  1.00  0.00    -0.160 OA 
HETATM   18  N   UNL     1      -8.009   9.878  68.279  1.00  0.00    -0.099 N  
BRANCH  13  19
HETATM   19  C   UNL     1      -9.713   9.132  71.434  1.00  0.00    -0.268 C  
BRANCH  19  20
HETATM   20  C   UNL     1      -9.868   7.618  71.515  1.00  0.00    -0.192 A  
HETATM   21  F   UNL     1      -8.087   7.289  74.524  1.00  0.00    -0.150 F  
HETATM   22  C   UNL     1      -7.887   7.262  73.178  1.00  0.00    -0.097 C  
HETATM   23  C   UNL     1      -9.125   6.820  72.421  1.00  0.00    -0.142 A  
HETATM   24  F   UNL     1     -11.602   7.670  69.881  1.00  0.00    -0.169 F  
HETATM   25  C   UNL     1      -9.533   5.482  72.654  1.00  0.00    -0.160 A  
HETATM   26  C   UNL     1     -10.913   6.993  70.808  1.00  0.00    -0.255 A  
HETATM   27  F   UNL     1      -6.849   6.401  72.975  1.00  0.00    -0.070 F  
HETATM   28  F   UNL     1      -7.397   8.484  72.849  1.00  0.00    -0.148 F  
HETATM   29  C   UNL     1     -11.277   5.663  71.023  1.00  0.00    -0.120 A  
HETATM   30  C   UNL     1     -10.607   4.914  71.974  1.00  0.00    -0.210 A  
ENDBRANCH  19  20
ENDBRANCH  13  19
BRANCH  18  31
HETATM   31  C   UNL     1      -6.774   9.454  67.608  1.00  0.00    -0.068 C  
BRANCH  31  32
HETATM   32  C   UNL     1      -6.958   8.376  66.492  1.00  0.00    -0.071 C  
BRANCH  32  33
HETATM   33  N   UNL     1      -5.824   7.418  66.376  1.00  0.00    -0.035 NA 
HETATM   34  H   UNL     1      -5.299   7.387  67.249  1.00  0.00     0.000 HD 
BRANCH  33  35
HETATM   35  C   UNL     1      -6.197   6.068  65.965  1.00  0.00    -0.037 C  
BRANCH  35  36
HETATM   36  C   UNL     1      -7.615   5.724  66.449  1.00  0.00    -0.091 C  
BRANCH  36  37
HETATM   37  C   UNL     1      -8.585   5.421  65.306  1.00  0.00    -0.151 C  
HETATM   38  O   UNL     1      -9.356   3.188  64.834  1.00  0.00    -0.143 OA 
HETATM   39  C   UNL     1      -9.398   4.177  65.549  1.00  0.00    -0.162 C  
HETATM   40  O   UNL     1     -10.229   4.269  66.609  1.00  0.00    -0.186 OA 
ENDBRANCH  36  37
ENDBRANCH  35  36
ENDBRANCH  33  35
ENDBRANCH  32  33
BRANCH  32  41
HETATM   41  C   UNL     1      -7.173   8.998  65.108  1.00  0.00    -0.088 A  
HETATM   42  C   UNL     1      -8.663   9.539  63.259  1.00  0.00    -0.238 A  
HETATM   43  C   UNL     1      -6.314  10.033  63.071  1.00  0.00    -0.130 A  
HETATM   44  C   UNL     1      -8.456   9.019  64.540  1.00  0.00    -0.191 A  
HETATM   45  C   UNL     1      -6.106   9.525  64.356  1.00  0.00    -0.083 A  
HETATM   46  C   UNL     1      -7.593  10.042  62.523  1.00  0.00    -0.133 A  
ENDBRANCH  32  41
ENDBRANCH  31  32
ENDBRANCH  18  31
ENDBRANCH   6  10
ENDBRANCH   2   3
TORSDOF 11
ENDMDL
MODEL       71
REMARK 921   NORMALIZED FREE ENERGY PREDICTED BY IDOCK:   -5.11 KCAL/MOL
REMARK 922        TOTAL FREE ENERGY PREDICTED BY IDOCK:  -11.45 KCAL/MOL
REMARK 923 INTER-LIGAND FREE ENERGY PREDICTED BY IDOCK:  -10.78 KCAL/MOL
REMARK 924 INTRA-LIGAND FREE ENERGY PREDICTED BY IDOCK:   -0.67 KCAL/MOL
REMARK 927      BINDING AFFINITY PREDICTED BY RF-SCORE:    0.00 PKD
ROOT
HETATM    1  C   UNL     1     -12.435  15.416  71.906  1.00  0.00    -0.377 C  
HETATM    2  O   UNL     1     -12.313  14.569  70.758  1.00  0.00    -0.295 OA 
ENDROOT
BRANCH   2   3
HETATM    3  C   UNL     1     -12.530  13.239  70.999  1.00  0.00    -0.336 A  
HETATM    4  C   UNL     1     -11.738  12.324  70.290  1.00  0.00    -0.137 A  
HETATM    5  F   UNL     1     -10.823  12.782  69.417  1.00  0.00    -0.204 F  
HETATM    6  C   UNL     1     -11.876  10.944  70.487  1.00  0.00    -0.457 A  
HETATM    7  C   UNL     1     -12.846  10.479  71.387  1.00  0.00    -0.551 A  
HETATM    8  C   UNL     1     -13.507  12.760  71.880  1.00  0.00    -0.452 A  
HETATM    9  C   UNL     1     -13.657  11.387  72.074  1.00  0.00    -0.127 A  
BRANCH   6  10
HETATM   10  C   UNL     1     -10.978   9.986  69.808  1.00  0.00    -0.317 C  
HETATM   11  C   UNL     1     -10.094   9.060  71.970  1.00  0.00    -0.242 C  
HETATM   12  C   UNL     1     -10.158   9.130  70.458  1.00  0.00    -0.235 C  
HETATM   13  N   UNL     1      -9.368   8.234  69.727  1.00  0.00    -0.158 N  
HETATM   14  C   UNL     1      -9.598   7.989  68.370  1.00  0.00    -0.150 C  
HETATM   15  C   UNL     1     -10.925  10.019  68.315  1.00  0.00    -0.227 C  
HETATM   16  O   UNL     1      -9.192   6.966  67.811  1.00  0.00    -0.122 OA 
HETATM   17  O   UNL     1     -11.424  10.961  67.697  1.00  0.00    -0.468 OA 
HETATM   18  N   UNL     1     -10.311   8.955  67.692  1.00  0.00    -0.237 N  
BRANCH  13  19
HETATM   19  C   UNL     1      -8.348   7.386  70.356  1.00  0.00    -0.129 C  
BRANCH  19  20
HETATM   20  C   UNL     1      -8.813   6.422  71.441  1.00  0.00    -0.138 A  
HETATM   21  F   UNL     1      -7.047   8.002  74.033  1.00  0.00    -0.125 F  
HETATM   22  C   UNL     1      -6.900   7.006  73.118  1.00  0.00    -0.069 C  
HETATM   23  C   UNL     1      -8.225   6.378  72.730  1.00  0.00    -0.107 A  
HETATM   24  F   UNL     1     -10.548   5.606  70.025  1.00  0.00    -0.286 F  
HETATM   25  C   UNL     1      -8.896   5.686  73.769  1.00  0.00    -0.124 A  
HETATM   26  C   UNL     1      -9.987   5.671  71.238  1.00  0.00    -0.195 A  
HETATM   27  F   UNL     1      -6.071   6.091  73.698  1.00  0.00    -0.055 F  
HETATM   28  F   UNL     1      -6.176   7.537  72.101  1.00  0.00    -0.040 F  
HETATM   29  C   UNL     1     -10.613   4.964  72.265  1.00  0.00    -0.251 A  
HETATM   30  C   UNL     1     -10.085   4.998  73.544  1.00  0.00    -0.196 A  
ENDBRANCH  19  20
ENDBRANCH  13  19
BRANCH  18  31
HETATM   31  C   UNL     1     -10.397   8.855  66.230  1.00  0.00    -0.008 C  
BRANCH  31  32
HETATM   32  C   UNL     1      -9.496   9.858  65.438  1.00  0.00    -0.257 C  
BRANCH  32  33
HETATM   33  N   UNL     1     -10.022  10.219  64.094  1.00  0.00    -0.396 NA 
HETATM   34  H   UNL     1     -10.960   9.841  63.969  1.00  0.00     0.000 HD 
BRANCH  33  35
HETATM   35  C   UNL     1     -10.009  11.646  63.789  1.00  0.00    -0.349 C  
BRANCH  35  36
HETATM   36  C   UNL     1     -11.414  12.132  63.400  1.00  0.00    -0.501 C  
BRANCH  36  37
HETATM   37  C   UNL     1     -12.327  12.364  64.604  1.00  0.00    -0.518 C  
HETATM   38  O   UNL     1     -11.807  13.978  66.316  1.00  0.00    -0.372 OA 
HETATM   39  C   UNL     1     -12.189  13.749  65.179  1.00  0.00    -0.431 C  
HETATM   40  O   UNL     1     -12.579  14.729  64.335  1.00  0.00    -0.626 OA 
ENDBRANCH  36  37
ENDBRANCH  35  36
ENDBRANCH  33  35
ENDBRANCH  32  33
BRANCH  32  41
HETATM   41  C   UNL     1      -8.069   9.337  65.247  1.00  0.00    -0.121 A  
HETATM   42  C   UNL     1      -6.541   7.464  64.949  1.00  0.00    -0.043 A  
HETATM   43  C   UNL     1      -5.655   9.693  65.156  1.00  0.00    -0.057 A  
HETATM   44  C   UNL     1      -7.840   7.963  65.077  1.00  0.00    -0.120 A  
HETATM   45  C   UNL     1      -6.954  10.196  65.272  1.00  0.00    -0.137 A  
HETATM   46  C   UNL     1      -5.449   8.327  64.992  1.00  0.00    -0.040 A  
ENDBRANCH  32  41
ENDBRANCH  31  32
ENDBRANCH  18  31
ENDBRANCH   6  10
ENDBRANCH   2   3
TORSDOF 11
ENDMDL
MODEL       72
REMARK 921   NORMALIZED FREE ENERGY PREDICTED BY IDOCK:   -5.08 KCAL/MOL
REMARK 922        TOTAL FREE ENERGY PREDICTED BY IDOCK:  -11.40 KCAL/MOL
REMARK 923 INTER-LIGAND FREE ENERGY PREDICTED BY IDOCK:   -9.02 KCAL/MOL
REMARK 924 INTRA-LIGAND FREE ENERGY PREDICTED BY IDOCK:   -2.38 KCAL/MOL
REMARK 927      BINDING AFFINITY PREDICTED BY RF-SCORE:    0.00 PKD
ROOT
HETATM    1  C   UNL     1     -12.166  12.920  63.557  1.00  0.00    -0.512 C  
HETATM    2  O   UNL     1     -10.738  12.851  63.628  1.00  0.00    -0.366 OA 
ENDROOT
BRANCH   2   3
HETATM    3  C   UNL     1     -10.238  12.536  64.864  1.00  0.00    -0.278 A  
HETATM    4  C   UNL     1     -10.072  11.175  65.157  1.00  0.00    -0.281 A  
HETATM    5  F   UNL     1     -10.409  10.255  64.235  1.00  0.00    -0.402 F  
HETATM    6  C   UNL     1      -9.548  10.759  66.388  1.00  0.00    -0.226 A  
HETATM    7  C   UNL     1      -9.217  11.727  67.347  1.00  0.00    -0.174 A  
HETATM    8  C   UNL     1      -9.922  13.490  65.838  1.00  0.00    -0.295 A  
HETATM    9  C   UNL     1      -9.409  13.084  67.070  1.00  0.00    -0.236 A  
BRANCH   6  10
HETATM   10  C   UNL     1      -9.287   9.330  66.659  1.00  0.00    -0.219 C  
HETATM   11  C   UNL     1      -7.062   9.365  65.493  1.00  0.00    -0.087 C  
HETATM   12  C   UNL     1      -8.174   8.676  66.258  1.00  0.00    -0.116 C  
HETATM   13  N   UNL     1      -8.000   7.328  66.593  1.00  0.00    -0.112 N  
HETATM   14  C   UNL     1      -8.789   6.704  67.564  1.00  0.00    -0.116 C  
HETATM   15  C   UNL     1     -10.352   8.548  67.357  1.00  0.00    -0.286 C  
HETATM   16  O   UNL     1      -8.427   5.673  68.138  1.00  0.00    -0.100 OA 
HETATM   17  O   UNL     1     -11.485   9.016  67.482  1.00  0.00     0.649 OA 
HETATM   18  N   UNL     1      -9.994   7.311  67.848  1.00  0.00    -0.151 N  
BRANCH  13  19
HETATM   19  C   UNL     1      -6.895   6.519  66.064  1.00  0.00    -0.057 C  
BRANCH  19  20
HETATM   20  C   UNL     1      -7.253   5.379  65.118  1.00  0.00    -0.067 A  
HETATM   21  F   UNL     1      -6.910   2.853  67.533  1.00  0.00    -0.042 F  
HETATM   22  C   UNL     1      -6.184   3.502  66.583  1.00  0.00    -0.028 C  
HETATM   23  C   UNL     1      -7.048   4.016  65.447  1.00  0.00    -0.063 A  
HETATM   24  F   UNL     1      -8.149   6.923  63.538  1.00  0.00    -0.122 F  
HETATM   25  C   UNL     1      -7.676   3.017  64.663  1.00  0.00    -0.077 A  
HETATM   26  C   UNL     1      -7.986   5.660  63.948  1.00  0.00    -0.120 A  
HETATM   27  F   UNL     1      -5.266   2.597  66.137  1.00  0.00    -0.006 F  
HETATM   28  F   UNL     1      -5.457   4.438  67.244  1.00  0.00    -0.011 F  
HETATM   29  C   UNL     1      -8.565   4.660  63.166  1.00  0.00    -0.116 A  
HETATM   30  C   UNL     1      -8.439   3.334  63.543  1.00  0.00    -0.090 A  
ENDBRANCH  19  20
ENDBRANCH  13  19
BRANCH  18  31
HETATM   31  C   UNL     1     -10.950   6.590  68.697  1.00  0.00    -0.293 C  
BRANCH  31  32
HETATM   32  C   UNL     1     -11.006   7.060  70.187  1.00  0.00    -0.272 C  
BRANCH  32  33
HETATM   33  N   UNL     1     -10.031   8.132  70.525  1.00  0.00    -0.186 NA 
HETATM   34  H   UNL     1      -9.362   8.252  69.765  1.00  0.00     0.000 HD 
BRANCH  33  35
HETATM   35  C   UNL     1     -10.625   9.417  70.880  1.00  0.00    -0.320 C  
BRANCH  35  36
HETATM   36  C   UNL     1     -12.087   9.238  71.318  1.00  0.00    -0.412 C  
BRANCH  36  37
HETATM   37  C   UNL     1     -12.894  10.536  71.273  1.00  0.00    -0.532 C  
HETATM   38  O   UNL     1     -11.930  12.621  70.545  1.00  0.00    -0.325 OA 
HETATM   39  C   UNL     1     -12.362  11.515  70.259  1.00  0.00    -0.273 C  
HETATM   40  O   UNL     1     -12.454  11.080  68.984  1.00  0.00    -0.449 OA 
ENDBRANCH  36  37
ENDBRANCH  35  36
ENDBRANCH  33  35
ENDBRANCH  32  33
BRANCH  32  41
HETATM   41  C   UNL     1     -10.780   5.909  71.172  1.00  0.00    -0.328 A  
HETATM   42  C   UNL     1      -9.707   3.791  71.714  1.00  0.00    -0.245 A  
HETATM   43  C   UNL     1     -11.297   4.741  73.252  1.00  0.00    -0.408 A  
HETATM   44  C   UNL     1      -9.889   4.874  70.849  1.00  0.00    -0.277 A  
HETATM   45  C   UNL     1     -11.473   5.831  72.395  1.00  0.00    -0.343 A  
HETATM   46  C   UNL     1     -10.413   3.722  72.913  1.00  0.00    -0.246 A  
ENDBRANCH  32  41
ENDBRANCH  31  32
ENDBRANCH  18  31
ENDBRANCH   6  10
ENDBRANCH   2   3
TORSDOF 11
ENDMDL
MODEL       73
REMARK 921   NORMALIZED FREE ENERGY PREDICTED BY IDOCK:   -5.07 KCAL/MOL
REMARK 922        TOTAL FREE ENERGY PREDICTED BY IDOCK:  -11.39 KCAL/MOL
REMARK 923 INTER-LIGAND FREE ENERGY PREDICTED BY IDOCK:   -9.71 KCAL/MOL
REMARK 924 INTRA-LIGAND FREE ENERGY PREDICTED BY IDOCK:   -1.68 KCAL/MOL
REMARK 927      BINDING AFFINITY PREDICTED BY RF-SCORE:    0.00 PKD
ROOT
HETATM    1  C   UNL     1      -7.378   6.764  74.447  1.00  0.00    -0.098 C  
HETATM    2  O   UNL     1      -8.670   7.373  74.547  1.00  0.00    -0.205 OA 
ENDROOT
BRANCH   2   3
HETATM    3  C   UNL     1      -9.524   7.083  73.517  1.00  0.00    -0.192 A  
HETATM    4  C   UNL     1      -9.326   7.768  72.310  1.00  0.00    -0.158 A  
HETATM    5  F   UNL     1      -8.330   8.667  72.218  1.00  0.00    -0.212 F  
HETATM    6  C   UNL     1     -10.139   7.520  71.196  1.00  0.00    -0.195 A  
HETATM    7  C   UNL     1     -11.185   6.593  71.311  1.00  0.00    -0.329 A  
HETATM    8  C   UNL     1     -10.584   6.174  73.623  1.00  0.00    -0.279 A  
HETATM    9  C   UNL     1     -11.405   5.930  72.521  1.00  0.00    -0.352 A  
BRANCH   6  10
HETATM   10  C   UNL     1      -9.870   8.175  69.899  1.00  0.00    -0.186 C  
HETATM   11  C   UNL     1      -7.880   6.721  69.413  1.00  0.00    -0.113 C  
HETATM   12  C   UNL     1      -8.850   7.836  69.079  1.00  0.00    -0.138 C  
HETATM   13  N   UNL     1      -8.697   8.492  67.852  1.00  0.00    -0.137 N  
HETATM   14  C   UNL     1      -9.713   9.282  67.308  1.00  0.00    -0.167 C  
HETATM   15  C   UNL     1     -10.738   9.327  69.507  1.00  0.00    -0.222 C  
HETATM   16  O   UNL     1      -9.763   9.549  66.104  1.00  0.00    -0.216 OA 
HETATM   17  O   UNL     1     -11.482   9.854  70.335  1.00  0.00    -0.265 OA 
HETATM   18  N   UNL     1     -10.663   9.743  68.195  1.00  0.00    -0.237 N  
BRANCH  13  19
HETATM   19  C   UNL     1      -7.531   8.282  66.985  1.00  0.00    -0.088 C  
BRANCH  19  20
HETATM   20  C   UNL     1      -7.790   7.746  65.582  1.00  0.00    -0.107 A  
HETATM   21  F   UNL     1      -5.647  10.021  63.981  1.00  0.00    -0.077 F  
HETATM   22  C   UNL     1      -6.951   9.886  64.345  1.00  0.00    -0.128 C  
HETATM   23  C   UNL     1      -7.384   8.433  64.411  1.00  0.00    -0.091 A  
HETATM   24  F   UNL     1      -8.753   5.759  66.480  1.00  0.00    -0.116 F  
HETATM   25  C   UNL     1      -7.382   7.743  63.173  1.00  0.00    -0.104 A  
HETATM   26  C   UNL     1      -8.281   6.435  65.426  1.00  0.00    -0.142 A  
HETATM   27  F   UNL     1      -7.669  10.574  63.412  1.00  0.00    -0.150 F  
HETATM   28  F   UNL     1      -7.094  10.599  65.491  1.00  0.00    -0.140 F  
HETATM   29  C   UNL     1      -8.307   5.784  64.192  1.00  0.00    -0.047 A  
HETATM   30  C   UNL     1      -7.825   6.428  63.066  1.00  0.00    -0.099 A  
ENDBRANCH  19  20
ENDBRANCH  13  19
BRANCH  18  31
HETATM   31  C   UNL     1     -11.625  10.746  67.722  1.00  0.00    -0.069 C  
BRANCH  31  32
HETATM   32  C   UNL     1     -11.319  12.218  68.150  1.00  0.00    -0.295 C  
BRANCH  32  33
HETATM   33  N   UNL     1     -12.384  12.846  68.979  1.00  0.00     0.008 NA 
HETATM   34  H   UNL     1     -13.209  12.248  69.004  1.00  0.00     0.000 HD 
BRANCH  33  35
HETATM   35  C   UNL     1     -11.979  13.203  70.335  1.00  0.00    -0.266 C  
BRANCH  35  36
HETATM   36  C   UNL     1     -11.438  14.640  70.381  1.00  0.00    -0.283 C  
BRANCH  36  37
HETATM   37  C   UNL     1     -12.505  15.676  70.739  1.00  0.00    -0.484 C  
HETATM   38  O   UNL     1     -13.732  15.590  72.811  1.00  0.00    -0.520 OA 
HETATM   39  C   UNL     1     -12.687  15.830  72.226  1.00  0.00    -0.446 C  
HETATM   40  O   UNL     1     -11.598  16.316  72.860  1.00  0.00    -0.352 OA 
ENDBRANCH  36  37
ENDBRANCH  35  36
ENDBRANCH  33  35
ENDBRANCH  32  33
BRANCH  32  41
HETATM   41  C   UNL     1     -11.073  13.136  66.949  1.00  0.00    -0.308 A  
HETATM   42  C   UNL     1     -11.246  15.336  65.919  1.00  0.00    -0.237 A  
HETATM   43  C   UNL     1     -10.377  13.493  64.636  1.00  0.00    -0.406 A  
HETATM   44  C   UNL     1     -11.418  14.494  67.021  1.00  0.00    -0.383 A  
HETATM   45  C   UNL     1     -10.537  12.652  65.740  1.00  0.00    -0.296 A  
HETATM   46  C   UNL     1     -10.730  14.836  64.726  1.00  0.00    -0.380 A  
ENDBRANCH  32  41
ENDBRANCH  31  32
ENDBRANCH  18  31
ENDBRANCH   6  10
ENDBRANCH   2   3
TORSDOF 11
ENDMDL
MODEL       74
REMARK 921   NORMALIZED FREE ENERGY PREDICTED BY IDOCK:   -5.07 KCAL/MOL
REMARK 922        TOTAL FREE ENERGY PREDICTED BY IDOCK:  -11.39 KCAL/MOL
REMARK 923 INTER-LIGAND FREE ENERGY PREDICTED BY IDOCK:   -9.35 KCAL/MOL
REMARK 924 INTRA-LIGAND FREE ENERGY PREDICTED BY IDOCK:   -2.04 KCAL/MOL
REMARK 927      BINDING AFFINITY PREDICTED BY RF-SCORE:    0.00 PKD
ROOT
HETATM    1  C   UNL     1      -9.543   3.014  63.588  1.00  0.00    -0.115 C  
HETATM    2  O   UNL     1      -9.786   3.649  64.847  1.00  0.00    -0.163 OA 
ENDROOT
BRANCH   2   3
HETATM    3  C   UNL     1      -9.033   4.770  65.081  1.00  0.00    -0.152 A  
HETATM    4  C   UNL     1      -9.431   5.595  66.142  1.00  0.00    -0.139 A  
HETATM    5  F   UNL     1     -10.514   5.264  66.867  1.00  0.00    -0.215 F  
HETATM    6  C   UNL     1      -8.710   6.752  66.467  1.00  0.00    -0.139 A  
HETATM    7  C   UNL     1      -7.592   7.097  65.693  1.00  0.00    -0.093 A  
HETATM    8  C   UNL     1      -7.928   5.136  64.305  1.00  0.00    -0.108 A  
HETATM    9  C   UNL     1      -7.210   6.292  64.616  1.00  0.00    -0.064 A  
BRANCH   6  10
HETATM   10  C   UNL     1      -9.076   7.570  67.643  1.00  0.00    -0.127 C  
HETATM   11  C   UNL     1      -7.613   6.248  69.200  1.00  0.00    -0.099 C  
HETATM   12  C   UNL     1      -8.598   7.357  68.889  1.00  0.00    -0.129 C  
HETATM   13  N   UNL     1      -8.977   8.208  69.935  1.00  0.00    -0.143 N  
HETATM   14  C   UNL     1      -9.599   9.436  69.694  1.00  0.00    -0.188 C  
HETATM   15  C   UNL     1     -10.088   8.652  67.450  1.00  0.00    -0.229 C  
HETATM   16  O   UNL     1      -9.596  10.346  70.527  1.00  0.00     0.383 OA 
HETATM   17  O   UNL     1     -10.758   8.699  66.418  1.00  0.00     0.014 OA 
HETATM   18  N   UNL     1     -10.211   9.575  68.466  1.00  0.00    -0.192 N  
BRANCH  13  19
HETATM   19  C   UNL     1      -8.620   7.947  71.334  1.00  0.00    -0.123 C  
BRANCH  19  20
HETATM   20  C   UNL     1      -9.362   6.822  72.047  1.00  0.00    -0.144 A  
HETATM   21  F   UNL     1      -6.948   6.405  74.562  1.00  0.00    -0.087 F  
HETATM   22  C   UNL     1      -7.272   5.928  73.330  1.00  0.00    -0.086 C  
HETATM   23  C   UNL     1      -8.760   6.021  73.049  1.00  0.00    -0.122 A  
HETATM   24  F   UNL     1     -11.366   7.348  70.868  1.00  0.00    -0.262 F  
HETATM   25  C   UNL     1      -9.585   5.212  73.871  1.00  0.00    -0.137 A  
HETATM   26  C   UNL     1     -10.750   6.679  71.850  1.00  0.00    -0.223 A  
HETATM   27  F   UNL     1      -6.845   4.632  73.310  1.00  0.00    -0.057 F  
HETATM   28  F   UNL     1      -6.463   6.575  72.454  1.00  0.00    -0.054 F  
HETATM   29  C   UNL     1     -11.540   5.849  72.645  1.00  0.00    -0.289 A  
HETATM   30  C   UNL     1     -10.962   5.137  73.682  1.00  0.00    -0.350 A  
ENDBRANCH  19  20
ENDBRANCH  13  19
BRANCH  18  31
HETATM   31  C   UNL     1     -11.057  10.754  68.243  1.00  0.00    -0.271 C  
BRANCH  31  32
HETATM   32  C   UNL     1     -10.289  12.066  67.876  1.00  0.00    -0.197 C  
BRANCH  32  33
HETATM   33  N   UNL     1     -10.334  13.114  68.931  1.00  0.00    -0.423 NA 
HETATM   34  H   UNL     1      -9.689  13.870  68.704  1.00  0.00     0.000 HD 
BRANCH  33  35
HETATM   35  C   UNL     1     -11.663  13.653  69.208  1.00  0.00    -0.325 C  
BRANCH  35  36
HETATM   36  C   UNL     1     -12.115  13.280  70.628  1.00  0.00    -0.361 C  
BRANCH  36  37
HETATM   37  C   UNL     1     -12.811  14.428  71.360  1.00  0.00    -0.410 C  
HETATM   38  O   UNL     1     -11.795  15.563  73.228  1.00  0.00    -0.450 OA 
HETATM   39  C   UNL     1     -11.838  15.368  72.023  1.00  0.00    -0.442 C  
HETATM   40  O   UNL     1     -11.043  16.028  71.154  1.00  0.00    -0.296 OA 
ENDBRANCH  36  37
ENDBRANCH  35  36
ENDBRANCH  33  35
ENDBRANCH  32  33
BRANCH  32  41
HETATM   41  C   UNL     1     -10.802  12.699  66.579  1.00  0.00    -0.285 A  
HETATM   42  C   UNL     1     -10.612  14.420  64.866  1.00  0.00    -0.456 A  
HETATM   43  C   UNL     1     -12.449  12.865  64.784  1.00  0.00    -0.517 A  
HETATM   44  C   UNL     1     -10.131  13.798  66.021  1.00  0.00    -0.320 A  
HETATM   45  C   UNL     1     -11.964  12.235  65.933  1.00  0.00    -0.358 A  
HETATM   46  C   UNL     1     -11.772  13.957  64.249  1.00  0.00    -0.406 A  
ENDBRANCH  32  41
ENDBRANCH  31  32
ENDBRANCH  18  31
ENDBRANCH   6  10
ENDBRANCH   2   3
TORSDOF 11
ENDMDL
MODEL       75
REMARK 921   NORMALIZED FREE ENERGY PREDICTED BY IDOCK:   -5.04 KCAL/MOL
REMARK 922        TOTAL FREE ENERGY PREDICTED BY IDOCK:  -11.33 KCAL/MOL
REMARK 923 INTER-LIGAND FREE ENERGY PREDICTED BY IDOCK:   -9.69 KCAL/MOL
REMARK 924 INTRA-LIGAND FREE ENERGY PREDICTED BY IDOCK:   -1.64 KCAL/MOL
REMARK 927      BINDING AFFINITY PREDICTED BY RF-SCORE:    0.00 PKD
ROOT
HETATM    1  C   UNL     1     -14.372   8.332  71.776  1.00  0.00    -0.483 C  
HETATM    2  O   UNL     1     -13.671   9.519  71.392  1.00  0.00    -0.345 OA 
ENDROOT
BRANCH   2   3
HETATM    3  C   UNL     1     -12.312   9.378  71.291  1.00  0.00    -0.341 A  
HETATM    4  C   UNL     1     -11.714   9.800  70.096  1.00  0.00    -0.130 A  
HETATM    5  F   UNL     1     -12.482  10.308  69.116  1.00  0.00    -0.072 F  
HETATM    6  C   UNL     1     -10.327   9.712  69.911  1.00  0.00    -0.282 A  
HETATM    7  C   UNL     1      -9.539   9.164  70.933  1.00  0.00    -0.347 A  
HETATM    8  C   UNL     1     -11.516   8.815  72.295  1.00  0.00    -0.376 A  
HETATM    9  C   UNL     1     -10.135   8.716  72.115  1.00  0.00    -0.388 A  
BRANCH   6  10
HETATM   10  C   UNL     1      -9.689  10.242  68.688  1.00  0.00    -0.171 C  
HETATM   11  C   UNL     1     -10.365  12.610  69.186  1.00  0.00     0.156 C  
HETATM   12  C   UNL     1      -9.699  11.547  68.336  1.00  0.00    -0.202 C  
HETATM   13  N   UNL     1      -9.036  11.959  67.174  1.00  0.00    -0.172 N  
HETATM   14  C   UNL     1      -8.124  11.130  66.514  1.00  0.00    -0.163 C  
HETATM   15  C   UNL     1      -9.056   9.263  67.753  1.00  0.00    -0.126 C  
HETATM   16  O   UNL     1      -7.269  11.578  65.746  1.00  0.00     0.305 OA 
HETATM   17  O   UNL     1      -9.270   8.057  67.879  1.00  0.00    -0.132 OA 
HETATM   18  N   UNL     1      -8.233   9.781  66.776  1.00  0.00    -0.119 N  
BRANCH  13  19
HETATM   19  C   UNL     1      -9.133  13.328  66.652  1.00  0.00    -0.171 C  
BRANCH  19  20
HETATM   20  C   UNL     1      -8.581  14.450  67.523  1.00  0.00    -0.199 A  
HETATM   21  F   UNL     1     -11.727  15.770  68.357  1.00  0.00    -0.352 F  
HETATM   22  C   UNL     1     -10.740  15.914  67.431  1.00  0.00    -0.313 C  
HETATM   23  C   UNL     1      -9.377  15.531  67.976  1.00  0.00    -0.193 A  
HETATM   24  F   UNL     1      -6.455  13.376  67.621  1.00  0.00    -0.120 F  
HETATM   25  C   UNL     1      -8.886  16.359  69.017  1.00  0.00    -0.240 A  
HETATM   26  C   UNL     1      -7.285  14.328  68.063  1.00  0.00    -0.142 A  
HETATM   27  F   UNL     1     -10.773  17.225  67.056  1.00  0.00    -0.324 F  
HETATM   28  F   UNL     1     -11.153  15.228  66.336  1.00  0.00    -0.326 F  
HETATM   29  C   UNL     1      -6.805  15.177  69.061  1.00  0.00    -0.122 A  
HETATM   30  C   UNL     1      -7.619  16.176  69.564  1.00  0.00    -0.052 A  
ENDBRANCH  19  20
ENDBRANCH  13  19
BRANCH  18  31
HETATM   31  C   UNL     1      -7.450   8.850  65.955  1.00  0.00    -0.093 C  
BRANCH  31  32
HETATM   32  C   UNL     1      -7.974   8.643  64.496  1.00  0.00    -0.144 C  
BRANCH  32  33
HETATM   33  N   UNL     1      -9.263   9.330  64.209  1.00  0.00    -0.425 NA 
HETATM   34  H   UNL     1      -9.643   9.739  65.062  1.00  0.00     0.000 HD 
BRANCH  33  35
HETATM   35  C   UNL     1      -9.203  10.336  63.152  1.00  0.00    -0.287 C  
BRANCH  35  36
HETATM   36  C   UNL     1     -10.574  11.004  62.960  1.00  0.00     0.034 C  
BRANCH  36  37
HETATM   37  C   UNL     1     -10.663  12.391  63.595  1.00  0.00    -0.497 C  
HETATM   38  O   UNL     1     -12.366  13.980  62.976  1.00  0.00    -0.566 OA 
HETATM   39  C   UNL     1     -12.060  12.955  63.565  1.00  0.00    -0.555 C  
HETATM   40  O   UNL     1     -12.946  12.250  64.300  1.00  0.00    -0.701 OA 
ENDBRANCH  36  37
ENDBRANCH  35  36
ENDBRANCH  33  35
ENDBRANCH  32  33
BRANCH  32  41
HETATM   41  C   UNL     1      -8.157   7.164  64.145  1.00  0.00    -0.026 A  
HETATM   42  C   UNL     1      -8.407   5.422  62.461  1.00  0.00    -0.114 A  
HETATM   43  C   UNL     1      -8.555   4.844  64.794  1.00  0.00    -0.149 A  
HETATM   44  C   UNL     1      -8.193   6.760  62.801  1.00  0.00     0.018 A  
HETATM   45  C   UNL     1      -8.329   6.180  65.137  1.00  0.00    -0.129 A  
HETATM   46  C   UNL     1      -8.592   4.464  63.456  1.00  0.00    -0.115 A  
ENDBRANCH  32  41
ENDBRANCH  31  32
ENDBRANCH  18  31
ENDBRANCH   6  10
ENDBRANCH   2   3
TORSDOF 11
ENDMDL
MODEL       76
REMARK 921   NORMALIZED FREE ENERGY PREDICTED BY IDOCK:   -5.03 KCAL/MOL
REMARK 922        TOTAL FREE ENERGY PREDICTED BY IDOCK:  -11.32 KCAL/MOL
REMARK 923 INTER-LIGAND FREE ENERGY PREDICTED BY IDOCK:   -8.83 KCAL/MOL
REMARK 924 INTRA-LIGAND FREE ENERGY PREDICTED BY IDOCK:   -2.49 KCAL/MOL
REMARK 927      BINDING AFFINITY PREDICTED BY RF-SCORE:    0.00 PKD
ROOT
HETATM    1  C   UNL     1     -10.127  15.775  66.924  1.00  0.00    -0.266 C  
HETATM    2  O   UNL     1      -8.905  15.233  66.413  1.00  0.00    -0.290 OA 
ENDROOT
BRANCH   2   3
HETATM    3  C   UNL     1      -8.243  14.397  67.274  1.00  0.00    -0.203 A  
HETATM    4  C   UNL     1      -8.651  13.056  67.301  1.00  0.00    -0.206 A  
HETATM    5  F   UNL     1      -9.658  12.656  66.503  1.00  0.00    -0.223 F  
HETATM    6  C   UNL     1      -8.019  12.124  68.135  1.00  0.00    -0.151 A  
HETATM    7  C   UNL     1      -6.983  12.557  68.975  1.00  0.00    -0.066 A  
HETATM    8  C   UNL     1      -7.221  14.819  68.131  1.00  0.00    -0.125 A  
HETATM    9  C   UNL     1      -6.592  13.900  68.972  1.00  0.00    -0.107 A  
BRANCH   6  10
HETATM   10  C   UNL     1      -8.389  10.694  68.094  1.00  0.00    -0.121 C  
HETATM   11  C   UNL     1     -10.364  11.013  69.613  1.00  0.00     0.001 C  
HETATM   12  C   UNL     1      -9.440  10.167  68.760  1.00  0.00    -0.171 C  
HETATM   13  N   UNL     1      -9.733   8.804  68.632  1.00  0.00    -0.159 N  
HETATM   14  C   UNL     1      -9.162   8.021  67.625  1.00  0.00    -0.133 C  
HETATM   15  C   UNL     1      -7.503   9.767  67.326  1.00  0.00    -0.088 C  
HETATM   16  O   UNL     1      -9.667   6.957  67.256  1.00  0.00    -0.134 OA 
HETATM   17  O   UNL     1      -6.392  10.140  66.950  1.00  0.00    -0.066 OA 
HETATM   18  N   UNL     1      -8.001   8.509  67.063  1.00  0.00    -0.099 N  
BRANCH  13  19
HETATM   19  C   UNL     1     -10.761   8.138  69.440  1.00  0.00    -0.156 C  
BRANCH  19  20
HETATM   20  C   UNL     1     -10.483   7.975  70.930  1.00  0.00    -0.223 A  
HETATM   21  F   UNL     1     -13.851   8.200  71.899  1.00  0.00    -0.350 F  
HETATM   22  C   UNL     1     -12.757   8.988  71.713  1.00  0.00    -0.366 C  
HETATM   23  C   UNL     1     -11.459   8.232  71.925  1.00  0.00    -0.372 A  
HETATM   24  F   UNL     1      -8.287   7.170  70.469  1.00  0.00    -0.121 F  
HETATM   25  C   UNL     1     -11.232   7.773  73.246  1.00  0.00    -0.106 A  
HETATM   26  C   UNL     1      -9.280   7.369  71.344  1.00  0.00    -0.141 A  
HETATM   27  F   UNL     1     -12.884  10.012  72.605  1.00  0.00    -0.339 F  
HETATM   28  F   UNL     1     -12.915   9.564  70.496  1.00  0.00    -0.173 F  
HETATM   29  C   UNL     1      -9.060   6.958  72.658  1.00  0.00    -0.150 A  
HETATM   30  C   UNL     1     -10.052   7.130  73.608  1.00  0.00    -0.389 A  
ENDBRANCH  19  20
ENDBRANCH  13  19
BRANCH  18  31
HETATM   31  C   UNL     1      -7.246   7.632  66.160  1.00  0.00    -0.070 C  
BRANCH  31  32
HETATM   32  C   UNL     1      -7.642   7.730  64.650  1.00  0.00    -0.113 C  
BRANCH  32  33
HETATM   33  N   UNL     1      -8.904   8.478  64.399  1.00  0.00    -0.407 NA 
HETATM   34  H   UNL     1      -9.363   8.702  65.281  1.00  0.00     0.000 HD 
BRANCH  33  35
HETATM   35  C   UNL     1      -8.755   9.684  63.589  1.00  0.00    -0.224 C  
BRANCH  35  36
HETATM   36  C   UNL     1      -9.715  10.783  64.069  1.00  0.00    -0.367 C  
BRANCH  36  37
HETATM   37  C   UNL     1     -10.617  11.323  62.960  1.00  0.00    -0.117 C  
HETATM   38  O   UNL     1     -12.881  12.035  63.378  1.00  0.00    -0.760 OA 
HETATM   39  C   UNL     1     -11.684  12.252  63.478  1.00  0.00    -0.499 C  
HETATM   40  O   UNL     1     -11.197  13.387  64.024  1.00  0.00    -0.369 OA 
ENDBRANCH  36  37
ENDBRANCH  35  36
ENDBRANCH  33  35
ENDBRANCH  32  33
BRANCH  32  41
HETATM   41  C   UNL     1      -7.787   6.354  63.994  1.00  0.00    -0.111 A  
HETATM   42  C   UNL     1      -8.836   4.157  63.934  1.00  0.00    -0.127 A  
HETATM   43  C   UNL     1      -7.083   4.675  62.367  1.00  0.00    -0.031 A  
HETATM   44  C   UNL     1      -8.724   5.434  64.490  1.00  0.00    -0.028 A  
HETATM   45  C   UNL     1      -6.976   5.957  62.913  1.00  0.00    -0.044 A  
HETATM   46  C   UNL     1      -8.015   3.775  62.876  1.00  0.00    -0.071 A  
ENDBRANCH  32  41
ENDBRANCH  31  32
ENDBRANCH  18  31
ENDBRANCH   6  10
ENDBRANCH   2   3
TORSDOF 11
ENDMDL
MODEL       77
REMARK 921   NORMALIZED FREE ENERGY PREDICTED BY IDOCK:   -5.01 KCAL/MOL
REMARK 922        TOTAL FREE ENERGY PREDICTED BY IDOCK:  -11.30 KCAL/MOL
REMARK 923 INTER-LIGAND FREE ENERGY PREDICTED BY IDOCK:   -9.23 KCAL/MOL
REMARK 924 INTRA-LIGAND FREE ENERGY PREDICTED BY IDOCK:   -2.06 KCAL/MOL
REMARK 927      BINDING AFFINITY PREDICTED BY RF-SCORE:    0.00 PKD
ROOT
HETATM    1  C   UNL     1     -10.233   6.911  74.285  1.00  0.00    -0.207 C  
HETATM    2  O   UNL     1     -10.199   6.114  73.097  1.00  0.00    -0.181 OA 
ENDROOT
BRANCH   2   3
HETATM    3  C   UNL     1      -9.148   6.376  72.259  1.00  0.00    -0.139 A  
HETATM    4  C   UNL     1      -9.438   7.049  71.063  1.00  0.00    -0.159 A  
HETATM    5  F   UNL     1     -10.709   7.395  70.792  1.00  0.00    -0.220 F  
HETATM    6  C   UNL     1      -8.423   7.377  70.154  1.00  0.00    -0.137 A  
HETATM    7  C   UNL     1      -7.105   6.995  70.440  1.00  0.00    -0.067 A  
HETATM    8  C   UNL     1      -7.831   5.983  72.522  1.00  0.00    -0.104 A  
HETATM    9  C   UNL     1      -6.816   6.298  71.617  1.00  0.00    -0.064 A  
BRANCH   6  10
HETATM   10  C   UNL     1      -8.717   8.167  68.940  1.00  0.00    -0.137 C  
HETATM   11  C   UNL     1      -8.504   6.178  67.420  1.00  0.00    -0.107 C  
HETATM   12  C   UNL     1      -8.752   7.648  67.693  1.00  0.00    -0.122 C  
HETATM   13  N   UNL     1      -9.075   8.469  66.606  1.00  0.00    -0.155 N  
HETATM   14  C   UNL     1      -9.641   9.735  66.784  1.00  0.00    -0.177 C  
HETATM   15  C   UNL     1      -8.918   9.639  69.098  1.00  0.00    -0.154 C  
HETATM   16  O   UNL     1     -10.269  10.304  65.887  1.00  0.00    -0.254 OA 
HETATM   17  O   UNL     1      -8.614  10.197  70.153  1.00  0.00    -0.104 OA 
HETATM   18  N   UNL     1      -9.461  10.310  68.024  1.00  0.00    -0.145 N  
BRANCH  13  19
HETATM   19  C   UNL     1      -8.984   8.011  65.214  1.00  0.00     0.137 C  
BRANCH  19  20
HETATM   20  C   UNL     1      -7.591   7.896  64.606  1.00  0.00    -0.109 A  
HETATM   21  F   UNL     1      -8.425   5.280  62.417  1.00  0.00    -0.092 F  
HETATM   22  C   UNL     1      -7.934   5.484  63.669  1.00  0.00    -0.108 C  
HETATM   23  C   UNL     1      -7.198   6.805  63.792  1.00  0.00    -0.065 A  
HETATM   24  F   UNL     1      -6.985  10.021  65.501  1.00  0.00    -0.097 F  
HETATM   25  C   UNL     1      -6.012   6.913  63.022  1.00  0.00    -0.040 A  
HETATM   26  C   UNL     1      -6.710   8.993  64.689  1.00  0.00    -0.077 A  
HETATM   27  F   UNL     1      -7.103   4.430  63.917  1.00  0.00    -0.043 F  
HETATM   28  F   UNL     1      -8.981   5.310  64.514  1.00  0.00    -0.150 F  
HETATM   29  C   UNL     1      -5.528   9.065  63.952  1.00  0.00    -0.062 A  
HETATM   30  C   UNL     1      -5.193   8.036  63.089  1.00  0.00    -0.050 A  
ENDBRANCH  19  20
ENDBRANCH  13  19
BRANCH  18  31
HETATM   31  C   UNL     1      -9.845  11.717  68.198  1.00  0.00    -0.191 C  
BRANCH  31  32
HETATM   32  C   UNL     1     -11.383  11.983  68.277  1.00  0.00    -0.286 C  
BRANCH  32  33
HETATM   33  N   UNL     1     -11.776  13.385  67.967  1.00  0.00    -0.336 NA 
HETATM   34  H   UNL     1     -11.092  14.036  68.353  1.00  0.00     0.000 HD 
BRANCH  33  35
HETATM   35  C   UNL     1     -11.995  13.666  66.551  1.00  0.00    -0.424 C  
BRANCH  35  36
HETATM   36  C   UNL     1     -10.667  13.987  65.849  1.00  0.00    -0.293 C  
BRANCH  36  37
HETATM   37  C   UNL     1     -10.625  13.515  64.395  1.00  0.00    -0.394 C  
HETATM   38  O   UNL     1     -12.396  12.204  63.419  1.00  0.00    -0.552 OA 
HETATM   39  C   UNL     1     -11.998  13.288  63.818  1.00  0.00    -0.491 C  
HETATM   40  O   UNL     1     -12.742  14.411  63.729  1.00  0.00    -0.785 OA 
ENDBRANCH  36  37
ENDBRANCH  35  36
ENDBRANCH  33  35
ENDBRANCH  32  33
BRANCH  32  41
HETATM   41  C   UNL     1     -11.967  11.638  69.651  1.00  0.00    -0.390 A  
HETATM   42  C   UNL     1     -12.840   9.976  71.202  1.00  0.00    -0.480 A  
HETATM   43  C   UNL     1     -12.845  12.301  71.830  1.00  0.00    -0.359 A  
HETATM   44  C   UNL     1     -12.262  10.305  69.973  1.00  0.00    -0.191 A  
HETATM   45  C   UNL     1     -12.256  12.631  70.605  1.00  0.00    -0.373 A  
HETATM   46  C   UNL     1     -13.135  10.974  72.129  1.00  0.00    -0.300 A  
ENDBRANCH  32  41
ENDBRANCH  31  32
ENDBRANCH  18  31
ENDBRANCH   6  10
ENDBRANCH   2   3
TORSDOF 11
ENDMDL
MODEL       78
REMARK 921   NORMALIZED FREE ENERGY PREDICTED BY IDOCK:   -4.98 KCAL/MOL
REMARK 922        TOTAL FREE ENERGY PREDICTED BY IDOCK:  -11.24 KCAL/MOL
REMARK 923 INTER-LIGAND FREE ENERGY PREDICTED BY IDOCK:   -8.73 KCAL/MOL
REMARK 924 INTRA-LIGAND FREE ENERGY PREDICTED BY IDOCK:   -2.51 KCAL/MOL
REMARK 927      BINDING AFFINITY PREDICTED BY RF-SCORE:    0.00 PKD
ROOT
HETATM    1  C   UNL     1     -13.143  11.367  71.930  1.00  0.00    -0.400 C  
HETATM    2  O   UNL     1     -13.054   9.944  71.798  1.00  0.00    -0.387 OA 
ENDROOT
BRANCH   2   3
HETATM    3  C   UNL     1     -11.810   9.473  71.474  1.00  0.00    -0.405 A  
HETATM    4  C   UNL     1     -11.413   9.589  70.133  1.00  0.00    -0.162 A  
HETATM    5  F   UNL     1     -12.256  10.139  69.241  1.00  0.00    -0.119 F  
HETATM    6  C   UNL     1     -10.150   9.153  69.713  1.00  0.00    -0.211 A  
HETATM    7  C   UNL     1      -9.287   8.565  70.649  1.00  0.00    -0.202 A  
HETATM    8  C   UNL     1     -10.946   8.867  72.393  1.00  0.00    -0.104 A  
HETATM    9  C   UNL     1      -9.690   8.421  71.980  1.00  0.00    -0.353 A  
BRANCH   6  10
HETATM   10  C   UNL     1      -9.700   9.359  68.320  1.00  0.00    -0.162 C  
HETATM   11  C   UNL     1      -9.630  11.859  68.561  1.00  0.00    -0.160 C  
HETATM   12  C   UNL     1      -9.465  10.573  67.775  1.00  0.00    -0.149 C  
HETATM   13  N   UNL     1      -9.007  10.667  66.455  1.00  0.00    -0.153 N  
HETATM   14  C   UNL     1      -8.508   9.556  65.770  1.00  0.00    -0.134 C  
HETATM   15  C   UNL     1      -9.564   8.155  67.446  1.00  0.00    -0.160 C  
HETATM   16  O   UNL     1      -7.769   9.669  64.788  1.00  0.00    -0.111 OA 
HETATM   17  O   UNL     1     -10.037   7.074  67.801  1.00  0.00    -0.148 OA 
HETATM   18  N   UNL     1      -8.886   8.323  66.258  1.00  0.00    -0.152 N  
BRANCH  13  19
HETATM   19  C   UNL     1      -8.878  11.950  65.753  1.00  0.00     0.128 C  
BRANCH  19  20
HETATM   20  C   UNL     1     -10.161  12.614  65.269  1.00  0.00    -0.302 A  
HETATM   21  F   UNL     1      -9.028  15.896  65.797  1.00  0.00    -0.353 F  
HETATM   22  C   UNL     1      -9.705  14.903  66.437  1.00  0.00    -0.285 C  
HETATM   23  C   UNL     1     -10.436  13.989  65.472  1.00  0.00    -0.339 A  
HETATM   24  F   UNL     1     -10.874  10.579  64.252  1.00  0.00    -0.333 F  
HETATM   25  C   UNL     1     -11.487  14.596  64.739  1.00  0.00    -0.410 A  
HETATM   26  C   UNL     1     -11.032  11.897  64.424  1.00  0.00    -0.337 A  
HETATM   27  F   UNL     1     -10.575  15.532  67.278  1.00  0.00    -0.273 F  
HETATM   28  F   UNL     1      -8.803  14.302  67.252  1.00  0.00    -0.172 F  
HETATM   29  C   UNL     1     -12.085  12.504  63.741  1.00  0.00    -0.615 A  
HETATM   30  C   UNL     1     -12.294  13.866  63.872  1.00  0.00    -0.323 A  
ENDBRANCH  19  20
ENDBRANCH  13  19
BRANCH  18  31
HETATM   31  C   UNL     1      -8.571   7.133  65.457  1.00  0.00    -0.080 C  
BRANCH  31  32
HETATM   32  C   UNL     1      -7.142   6.540  65.679  1.00  0.00    -0.061 C  
BRANCH  32  33
HETATM   33  N   UNL     1      -6.769   5.471  64.714  1.00  0.00    -0.043 NA 
HETATM   34  H   UNL     1      -6.991   4.554  65.100  1.00  0.00     0.000 HD 
BRANCH  33  35
HETATM   35  C   UNL     1      -7.352   5.611  63.382  1.00  0.00    -0.060 C  
BRANCH  35  36
HETATM   36  C   UNL     1      -8.067   4.318  62.963  1.00  0.00    -0.082 C  
BRANCH  36  37
HETATM   37  C   UNL     1      -8.672   3.554  64.141  1.00  0.00    -0.097 C  
HETATM   38  O   UNL     1     -10.519   4.422  65.421  1.00  0.00    -0.264 OA 
HETATM   39  C   UNL     1     -10.113   3.913  64.388  1.00  0.00    -0.215 C  
HETATM   40  O   UNL     1     -10.939   3.572  63.375  1.00  0.00    -0.207 OA 
ENDBRANCH  36  37
ENDBRANCH  35  36
ENDBRANCH  33  35
ENDBRANCH  32  33
BRANCH  32  41
HETATM   41  C   UNL     1      -6.960   5.967  67.088  1.00  0.00    -0.069 A  
HETATM   42  C   UNL     1      -7.232   4.122  68.655  1.00  0.00    -0.055 A  
HETATM   43  C   UNL     1      -6.342   6.219  69.437  1.00  0.00    -0.035 A  
HETATM   44  C   UNL     1      -7.345   4.646  67.364  1.00  0.00    -0.074 A  
HETATM   45  C   UNL     1      -6.444   6.741  68.145  1.00  0.00    -0.053 A  
HETATM   46  C   UNL     1      -6.734   4.908  69.692  1.00  0.00    -0.051 A  
ENDBRANCH  32  41
ENDBRANCH  31  32
ENDBRANCH  18  31
ENDBRANCH   6  10
ENDBRANCH   2   3
TORSDOF 11
ENDMDL
MODEL       79
REMARK 921   NORMALIZED FREE ENERGY PREDICTED BY IDOCK:   -4.97 KCAL/MOL
REMARK 922        TOTAL FREE ENERGY PREDICTED BY IDOCK:  -11.22 KCAL/MOL
REMARK 923 INTER-LIGAND FREE ENERGY PREDICTED BY IDOCK:   -9.63 KCAL/MOL
REMARK 924 INTRA-LIGAND FREE ENERGY PREDICTED BY IDOCK:   -1.58 KCAL/MOL
REMARK 927      BINDING AFFINITY PREDICTED BY RF-SCORE:    0.00 PKD
ROOT
HETATM    1  C   UNL     1     -11.121  15.779  67.966  1.00  0.00    -0.337 C  
HETATM    2  O   UNL     1      -9.895  15.416  67.323  1.00  0.00    -0.216 OA 
ENDROOT
BRANCH   2   3
HETATM    3  C   UNL     1      -9.970  14.303  66.528  1.00  0.00    -0.281 A  
HETATM    4  C   UNL     1      -9.556  13.088  67.091  1.00  0.00    -0.230 A  
HETATM    5  F   UNL     1      -9.106  13.067  68.359  1.00  0.00    -0.189 F  
HETATM    6  C   UNL     1      -9.617  11.894  66.360  1.00  0.00    -0.239 A  
HETATM    7  C   UNL     1     -10.071  11.932  65.034  1.00  0.00    -0.297 A  
HETATM    8  C   UNL     1     -10.403  14.329  65.198  1.00  0.00    -0.440 A  
HETATM    9  C   UNL     1     -10.457  13.147  64.459  1.00  0.00    -0.425 A  
BRANCH   6  10
HETATM   10  C   UNL     1      -9.267  10.601  66.985  1.00  0.00    -0.167 C  
HETATM   11  C   UNL     1      -6.890  10.689  66.176  1.00  0.00    -0.135 C  
HETATM   12  C   UNL     1      -8.043  10.033  66.909  1.00  0.00    -0.117 C  
HETATM   13  N   UNL     1      -7.797   8.820  67.565  1.00  0.00    -0.101 N  
HETATM   14  C   UNL     1      -8.674   8.315  68.528  1.00  0.00    -0.133 C  
HETATM   15  C   UNL     1     -10.353   9.848  67.682  1.00  0.00    -0.225 C  
HETATM   16  O   UNL     1      -8.315   7.485  69.369  1.00  0.00    -0.128 OA 
HETATM   17  O   UNL     1     -11.530  10.176  67.532  1.00  0.00    -0.249 OA 
HETATM   18  N   UNL     1      -9.963   8.801  68.489  1.00  0.00    -0.177 N  
BRANCH  13  19
HETATM   19  C   UNL     1      -6.543   8.074  67.400  1.00  0.00    -0.058 C  
BRANCH  19  20
HETATM   20  C   UNL     1      -6.634   6.553  67.372  1.00  0.00    -0.061 A  
HETATM   21  F   UNL     1      -7.161   6.340  63.906  1.00  0.00    -0.048 F  
HETATM   22  C   UNL     1      -7.860   6.426  65.071  1.00  0.00    -0.112 C  
HETATM   23  C   UNL     1      -7.102   5.834  66.244  1.00  0.00    -0.068 A  
HETATM   24  F   UNL     1      -5.674   6.418  69.549  1.00  0.00    -0.012 F  
HETATM   25  C   UNL     1      -6.874   4.436  66.175  1.00  0.00    -0.058 A  
HETATM   26  C   UNL     1      -6.063   5.809  68.423  1.00  0.00    -0.025 A  
HETATM   27  F   UNL     1      -9.030   5.760  64.850  1.00  0.00    -0.119 F  
HETATM   28  F   UNL     1      -8.219   7.729  65.195  1.00  0.00    -0.120 F  
HETATM   29  C   UNL     1      -5.881   4.427  68.353  1.00  0.00    -0.025 A  
HETATM   30  C   UNL     1      -6.257   3.742  67.212  1.00  0.00    -0.036 A  
ENDBRANCH  19  20
ENDBRANCH  13  19
BRANCH  18  31
HETATM   31  C   UNL     1     -10.975   8.153  69.333  1.00  0.00    -0.002 C  
BRANCH  31  32
HETATM   32  C   UNL     1     -11.338   8.919  70.647  1.00  0.00    -0.259 C  
BRANCH  32  33
HETATM   33  N   UNL     1     -11.035  10.375  70.607  1.00  0.00    -0.414 NA 
HETATM   34  H   UNL     1     -10.519  10.605  69.758  1.00  0.00     0.000 HD 
BRANCH  33  35
HETATM   35  C   UNL     1     -12.195  11.250  70.743  1.00  0.00    -0.380 C  
BRANCH  35  36
HETATM   36  C   UNL     1     -11.883  12.654  70.203  1.00  0.00    -0.326 C  
BRANCH  36  37
HETATM   37  C   UNL     1     -12.929  13.698  70.597  1.00  0.00    -0.134 C  
HETATM   38  O   UNL     1     -13.488  14.149  72.897  1.00  0.00    -0.628 OA 
HETATM   39  C   UNL     1     -12.696  14.262  71.974  1.00  0.00    -0.324 C  
HETATM   40  O   UNL     1     -11.545  14.958  72.089  1.00  0.00    -0.345 OA 
ENDBRANCH  36  37
ENDBRANCH  35  36
ENDBRANCH  33  35
ENDBRANCH  32  33
BRANCH  32  41
HETATM   41  C   UNL     1     -10.631   8.338  71.875  1.00  0.00    -0.350 A  
HETATM   42  C   UNL     1      -8.626   8.136  73.243  1.00  0.00    -0.308 A  
HETATM   43  C   UNL     1     -10.582   6.851  73.812  1.00  0.00    -0.333 A  
HETATM   44  C   UNL     1      -9.302   8.693  72.154  1.00  0.00    -0.343 A  
HETATM   45  C   UNL     1     -11.264   7.416  72.730  1.00  0.00    -0.380 A  
HETATM   46  C   UNL     1      -9.263   7.213  74.069  1.00  0.00    -0.281 A  
ENDBRANCH  32  41
ENDBRANCH  31  32
ENDBRANCH  18  31
ENDBRANCH   6  10
ENDBRANCH   2   3
TORSDOF 11
ENDMDL
MODEL       80
REMARK 921   NORMALIZED FREE ENERGY PREDICTED BY IDOCK:   -4.95 KCAL/MOL
REMARK 922        TOTAL FREE ENERGY PREDICTED BY IDOCK:  -11.19 KCAL/MOL
REMARK 923 INTER-LIGAND FREE ENERGY PREDICTED BY IDOCK:   -8.69 KCAL/MOL
REMARK 924 INTRA-LIGAND FREE ENERGY PREDICTED BY IDOCK:   -2.50 KCAL/MOL
REMARK 927      BINDING AFFINITY PREDICTED BY RF-SCORE:    0.00 PKD
ROOT
HETATM    1  C   UNL     1     -10.723   3.455  63.590  1.00  0.00    -0.255 C  
HETATM    2  O   UNL     1      -9.978   3.414  64.811  1.00  0.00    -0.156 OA 
ENDROOT
BRANCH   2   3
HETATM    3  C   UNL     1      -9.294   4.563  65.106  1.00  0.00    -0.159 A  
HETATM    4  C   UNL     1      -9.654   5.237  66.281  1.00  0.00    -0.161 A  
HETATM    5  F   UNL     1     -10.640   4.741  67.051  1.00  0.00    -0.233 F  
HETATM    6  C   UNL     1      -8.994   6.409  66.674  1.00  0.00    -0.145 A  
HETATM    7  C   UNL     1      -7.981   6.926  65.854  1.00  0.00    -0.112 A  
HETATM    8  C   UNL     1      -8.293   5.100  64.287  1.00  0.00    -0.137 A  
HETATM    9  C   UNL     1      -7.639   6.273  64.666  1.00  0.00    -0.098 A  
BRANCH   6  10
HETATM   10  C   UNL     1      -9.313   7.066  67.959  1.00  0.00    -0.127 C  
HETATM   11  C   UNL     1      -7.828   5.528  69.278  1.00  0.00    -0.091 C  
HETATM   12  C   UNL     1      -8.803   6.681  69.150  1.00  0.00    -0.129 C  
HETATM   13  N   UNL     1      -9.137   7.388  70.311  1.00  0.00    -0.151 N  
HETATM   14  C   UNL     1      -9.745   8.645  70.257  1.00  0.00    -0.174 C  
HETATM   15  C   UNL     1     -10.312   8.177  67.944  1.00  0.00    -0.220 C  
HETATM   16  O   UNL     1      -9.704   9.435  71.205  1.00  0.00    -0.270 OA 
HETATM   17  O   UNL     1     -11.011   8.370  66.949  1.00  0.00    -0.086 OA 
HETATM   18  N   UNL     1     -10.391   8.956  69.079  1.00  0.00    -0.210 N  
BRANCH  13  19
HETATM   19  C   UNL     1      -8.745   6.936  71.652  1.00  0.00    -0.124 C  
BRANCH  19  20
HETATM   20  C   UNL     1      -9.464   5.717  72.217  1.00  0.00    -0.160 A  
HETATM   21  F   UNL     1      -6.789   4.698  74.252  1.00  0.00    -0.059 F  
HETATM   22  C   UNL     1      -7.293   4.499  73.004  1.00  0.00    -0.080 C  
HETATM   23  C   UNL     1      -8.795   4.704  72.949  1.00  0.00    -0.118 A  
HETATM   24  F   UNL     1     -11.560   6.550  71.447  1.00  0.00    -0.304 F  
HETATM   25  C   UNL     1      -9.562   3.774  73.695  1.00  0.00    -0.131 A  
HETATM   26  C   UNL     1     -10.871   5.670  72.184  1.00  0.00    -0.245 A  
HETATM   27  F   UNL     1      -6.956   3.220  72.668  1.00  0.00    -0.035 F  
HETATM   28  F   UNL     1      -6.559   5.283  72.175  1.00  0.00    -0.043 F  
HETATM   29  C   UNL     1     -11.609   4.724  72.895  1.00  0.00    -0.181 A  
HETATM   30  C   UNL     1     -10.954   3.792  73.681  1.00  0.00    -0.334 A  
ENDBRANCH  19  20
ENDBRANCH  13  19
BRANCH  18  31
HETATM   31  C   UNL     1     -11.223  10.165  69.042  1.00  0.00    -0.173 C  
BRANCH  31  32
HETATM   32  C   UNL     1     -10.582  11.393  68.318  1.00  0.00    -0.195 C  
BRANCH  32  33
HETATM   33  N   UNL     1      -9.096  11.358  68.256  1.00  0.00    -0.173 NA 
HETATM   34  H   UNL     1      -8.755  10.428  68.498  1.00  0.00     0.000 HD 
BRANCH  33  35
HETATM   35  C   UNL     1      -8.520  11.790  66.986  1.00  0.00    -0.175 C  
BRANCH  35  36
HETATM   36  C   UNL     1      -8.615  10.671  65.938  1.00  0.00    -0.177 C  
BRANCH  36  37
HETATM   37  C   UNL     1      -9.786  10.849  64.970  1.00  0.00    -0.319 C  
HETATM   38  O   UNL     1      -9.487  11.699  62.735  1.00  0.00    -0.348 OA 
HETATM   39  C   UNL     1      -9.362  10.777  63.526  1.00  0.00    -0.279 C  
HETATM   40  O   UNL     1      -8.874   9.572  63.162  1.00  0.00    -0.228 OA 
ENDBRANCH  36  37
ENDBRANCH  35  36
ENDBRANCH  33  35
ENDBRANCH  32  33
BRANCH  32  41
HETATM   41  C   UNL     1     -10.981  12.725  68.962  1.00  0.00    -0.241 A  
HETATM   42  C   UNL     1     -12.288  13.949  70.612  1.00  0.00    -0.451 A  
HETATM   43  C   UNL     1     -10.928  15.164  69.041  1.00  0.00    -0.245 A  
HETATM   44  C   UNL     1     -11.875  12.741  70.044  1.00  0.00    -0.352 A  
HETATM   45  C   UNL     1     -10.504  13.957  68.477  1.00  0.00    -0.253 A  
HETATM   46  C   UNL     1     -11.818  15.160  70.110  1.00  0.00    -0.351 A  
ENDBRANCH  32  41
ENDBRANCH  31  32
ENDBRANCH  18  31
ENDBRANCH   6  10
ENDBRANCH   2   3
TORSDOF 11
ENDMDL
MODEL       81
REMARK 921   NORMALIZED FREE ENERGY PREDICTED BY IDOCK:   -4.94 KCAL/MOL
REMARK 922        TOTAL FREE ENERGY PREDICTED BY IDOCK:  -11.17 KCAL/MOL
REMARK 923 INTER-LIGAND FREE ENERGY PREDICTED BY IDOCK:   -9.86 KCAL/MOL
REMARK 924 INTRA-LIGAND FREE ENERGY PREDICTED BY IDOCK:   -1.30 KCAL/MOL
REMARK 927      BINDING AFFINITY PREDICTED BY RF-SCORE:    0.00 PKD
ROOT
HETATM    1  C   UNL     1      -9.743   2.938  63.781  1.00  0.00    -0.133 C  
HETATM    2  O   UNL     1      -9.309   3.242  65.111  1.00  0.00    -0.146 OA 
ENDROOT
BRANCH   2   3
HETATM    3  C   UNL     1      -8.747   4.482  65.262  1.00  0.00    -0.132 A  
HETATM    4  C   UNL     1      -9.195   5.258  66.340  1.00  0.00    -0.144 A  
HETATM    5  F   UNL     1     -10.143   4.767  67.158  1.00  0.00    -0.188 F  
HETATM    6  C   UNL     1      -8.662   6.531  66.586  1.00  0.00    -0.128 A  
HETATM    7  C   UNL     1      -7.687   7.039  65.715  1.00  0.00    -0.103 A  
HETATM    8  C   UNL     1      -7.787   5.009  64.390  1.00  0.00    -0.090 A  
HETATM    9  C   UNL     1      -7.259   6.280  64.622  1.00  0.00    -0.064 A  
BRANCH   6  10
HETATM   10  C   UNL     1      -9.069   7.309  67.775  1.00  0.00    -0.124 C  
HETATM   11  C   UNL     1      -7.456   6.117  69.287  1.00  0.00    -0.089 C  
HETATM   12  C   UNL     1      -8.543   7.134  69.007  1.00  0.00    -0.129 C  
HETATM   13  N   UNL     1      -8.969   7.944  70.067  1.00  0.00    -0.145 N  
HETATM   14  C   UNL     1      -9.704   9.113  69.849  1.00  0.00    -0.191 C  
HETATM   15  C   UNL     1     -10.178   8.297  67.614  1.00  0.00    -0.231 C  
HETATM   16  O   UNL     1      -9.761  10.017  70.688  1.00  0.00    -0.054 OA 
HETATM   17  O   UNL     1     -10.876   8.288  66.599  1.00  0.00    -0.094 OA 
HETATM   18  N   UNL     1     -10.358   9.202  68.638  1.00  0.00    -0.205 N  
BRANCH  13  19
HETATM   19  C   UNL     1      -8.556   7.711  71.456  1.00  0.00    -0.116 C  
BRANCH  19  20
HETATM   20  C   UNL     1      -8.792   6.319  72.031  1.00  0.00    -0.138 A  
HETATM   21  F   UNL     1     -11.641   5.661  70.086  1.00  0.00    -0.281 F  
HETATM   22  C   UNL     1     -11.292   6.175  71.297  1.00  0.00    -0.272 C  
HETATM   23  C   UNL     1      -9.991   5.595  71.817  1.00  0.00    -0.222 A  
HETATM   24  F   UNL     1      -6.590   6.282  72.943  1.00  0.00    -0.060 F  
HETATM   25  C   UNL     1     -10.021   4.209  72.117  1.00  0.00    -0.243 A  
HETATM   26  C   UNL     1      -7.722   5.636  72.642  1.00  0.00    -0.102 A  
HETATM   27  F   UNL     1     -12.331   5.887  72.133  1.00  0.00    -0.359 F  
HETATM   28  F   UNL     1     -11.324   7.523  71.153  1.00  0.00    -0.254 F  
HETATM   29  C   UNL     1      -7.783   4.280  72.965  1.00  0.00    -0.082 A  
HETATM   30  C   UNL     1      -8.925   3.555  72.671  1.00  0.00    -0.110 A  
ENDBRANCH  19  20
ENDBRANCH  13  19
BRANCH  18  31
HETATM   31  C   UNL     1     -11.310  10.301  68.443  1.00  0.00    -0.178 C  
BRANCH  31  32
HETATM   32  C   UNL     1     -10.696  11.623  67.877  1.00  0.00    -0.202 C  
BRANCH  32  33
HETATM   33  N   UNL     1     -11.113  12.851  68.606  1.00  0.00    -0.257 NA 
HETATM   34  H   UNL     1     -11.134  13.649  67.971  1.00  0.00     0.000 HD 
BRANCH  33  35
HETATM   35  C   UNL     1     -12.382  12.743  69.320  1.00  0.00     0.113 C  
BRANCH  35  36
HETATM   36  C   UNL     1     -12.203  13.098  70.804  1.00  0.00    -0.375 C  
BRANCH  36  37
HETATM   37  C   UNL     1     -13.515  13.467  71.498  1.00  0.00    -0.288 C  
HETATM   38  O   UNL     1     -13.649  15.226  73.139  1.00  0.00    -0.459 OA 
HETATM   39  C   UNL     1     -13.541  14.898  71.968  1.00  0.00    -0.407 C  
HETATM   40  O   UNL     1     -13.489  15.800  70.964  1.00  0.00    -0.581 OA 
ENDBRANCH  36  37
ENDBRANCH  35  36
ENDBRANCH  33  35
ENDBRANCH  32  33
BRANCH  32  41
HETATM   41  C   UNL     1     -11.029  11.835  66.397  1.00  0.00    -0.341 A  
HETATM   42  C   UNL     1     -10.474  11.492  64.051  1.00  0.00    -0.424 A  
HETATM   43  C   UNL     1     -12.373  12.854  64.631  1.00  0.00    -0.501 A  
HETATM   44  C   UNL     1     -10.214  11.268  65.405  1.00  0.00    -0.323 A  
HETATM   45  C   UNL     1     -12.122  12.622  65.987  1.00  0.00    -0.429 A  
HETATM   46  C   UNL     1     -11.551  12.286  63.663  1.00  0.00    -0.581 A  
ENDBRANCH  32  41
ENDBRANCH  31  32
ENDBRANCH  18  31
ENDBRANCH   6  10
ENDBRANCH   2   3
TORSDOF 11
ENDMDL
MODEL       82
REMARK 921   NORMALIZED FREE ENERGY PREDICTED BY IDOCK:   -4.93 KCAL/MOL
REMARK 922        TOTAL FREE ENERGY PREDICTED BY IDOCK:  -11.16 KCAL/MOL
REMARK 923 INTER-LIGAND FREE ENERGY PREDICTED BY IDOCK:  -10.02 KCAL/MOL
REMARK 924 INTRA-LIGAND FREE ENERGY PREDICTED BY IDOCK:   -1.15 KCAL/MOL
REMARK 927      BINDING AFFINITY PREDICTED BY RF-SCORE:    0.00 PKD
ROOT
HETATM    1  C   UNL     1      -5.551  18.920  64.704  1.00  0.00    -0.252 C  
HETATM    2  O   UNL     1      -6.931  18.889  65.084  1.00  0.00    -0.490 OA 
ENDROOT
BRANCH   2   3
HETATM    3  C   UNL     1      -7.159  18.571  66.397  1.00  0.00    -0.235 A  
HETATM    4  C   UNL     1      -7.775  17.339  66.657  1.00  0.00    -0.263 A  
HETATM    5  F   UNL     1      -8.116  16.541  65.629  1.00  0.00    -0.192 F  
HETATM    6  C   UNL     1      -8.029  16.920  67.970  1.00  0.00    -0.185 A  
HETATM    7  C   UNL     1      -7.686  17.769  69.032  1.00  0.00    -0.126 A  
HETATM    8  C   UNL     1      -6.839  19.416  67.466  1.00  0.00    -0.227 A  
HETATM    9  C   UNL     1      -7.098  19.011  68.776  1.00  0.00    -0.353 A  
BRANCH   6  10
HETATM   10  C   UNL     1      -8.595  15.583  68.245  1.00  0.00    -0.161 C  
HETATM   11  C   UNL     1     -10.959  16.345  67.869  1.00  0.00    -0.298 C  
HETATM   12  C   UNL     1      -9.916  15.301  68.212  1.00  0.00    -0.222 C  
HETATM   13  N   UNL     1     -10.355  13.993  68.453  1.00  0.00    -0.245 N  
HETATM   14  C   UNL     1      -9.473  12.908  68.445  1.00  0.00    -0.162 C  
HETATM   15  C   UNL     1      -7.651  14.498  68.651  1.00  0.00    -0.131 C  
HETATM   16  O   UNL     1      -9.861  11.749  68.275  1.00  0.00    -0.187 OA 
HETATM   17  O   UNL     1      -6.494  14.770  68.974  1.00  0.00    -0.089 OA 
HETATM   18  N   UNL     1      -8.140  13.209  68.632  1.00  0.00    -0.071 N  
BRANCH  13  19
HETATM   19  C   UNL     1     -11.775  13.647  68.584  1.00  0.00    -0.354 C  
BRANCH  19  20
HETATM   20  C   UNL     1     -12.393  13.740  69.974  1.00  0.00    -0.364 A  
HETATM   21  F   UNL     1     -11.231  10.602  71.038  1.00  0.00    -0.364 F  
HETATM   22  C   UNL     1     -12.314  11.174  70.446  1.00  0.00    -0.344 C  
HETATM   23  C   UNL     1     -12.489  12.627  70.846  1.00  0.00    -0.368 A  
HETATM   24  F   UNL     1     -12.719  16.087  69.712  1.00  0.00    -0.250 F  
HETATM   25  C   UNL     1     -12.788  12.849  72.214  1.00  0.00    -0.178 A  
HETATM   26  C   UNL     1     -12.715  15.006  70.502  1.00  0.00    -0.357 A  
HETATM   27  F   UNL     1     -13.386  10.423  70.831  1.00  0.00    -0.430 F  
HETATM   28  F   UNL     1     -12.182  10.938  69.117  1.00  0.00    -0.379 F  
HETATM   29  C   UNL     1     -13.043  15.200  71.844  1.00  0.00    -0.456 A  
HETATM   30  C   UNL     1     -13.048  14.122  72.712  1.00  0.00    -0.573 A  
ENDBRANCH  19  20
ENDBRANCH  13  19
BRANCH  18  31
HETATM   31  C   UNL     1      -7.202  12.101  68.844  1.00  0.00    -0.079 C  
BRANCH  31  32
HETATM   32  C   UNL     1      -7.636  10.732  68.226  1.00  0.00    -0.098 C  
BRANCH  32  33
HETATM   33  N   UNL     1      -7.457   9.567  69.135  1.00  0.00    -0.071 NA 
HETATM   34  H   UNL     1      -6.469   9.437  69.350  1.00  0.00     0.000 HD 
BRANCH  33  35
HETATM   35  C   UNL     1      -8.237   9.621  70.367  1.00  0.00    -0.160 C  
BRANCH  35  36
HETATM   36  C   UNL     1      -8.244   8.254  71.067  1.00  0.00    -0.123 C  
BRANCH  36  37
HETATM   37  C   UNL     1      -9.469   7.406  70.724  1.00  0.00    -0.167 C  
HETATM   38  O   UNL     1     -10.760   7.768  68.722  1.00  0.00    -0.170 OA 
HETATM   39  C   UNL     1      -9.739   7.348  69.243  1.00  0.00    -0.165 C  
HETATM   40  O   UNL     1      -8.765   6.735  68.537  1.00  0.00    -0.125 OA 
ENDBRANCH  36  37
ENDBRANCH  35  36
ENDBRANCH  33  35
ENDBRANCH  32  33
BRANCH  32  41
HETATM   41  C   UNL     1      -6.890  10.416  66.925  1.00  0.00    -0.088 A  
HETATM   42  C   UNL     1      -6.454   8.898  65.072  1.00  0.00    -0.065 A  
HETATM   43  C   UNL     1      -5.188  10.937  65.255  1.00  0.00    -0.109 A  
HETATM   44  C   UNL     1      -7.160   9.226  66.233  1.00  0.00    -0.087 A  
HETATM   45  C   UNL     1      -5.900  11.273  66.410  1.00  0.00    -0.136 A  
HETATM   46  C   UNL     1      -5.466   9.750  64.584  1.00  0.00    -0.069 A  
ENDBRANCH  32  41
ENDBRANCH  31  32
ENDBRANCH  18  31
ENDBRANCH   6  10
ENDBRANCH   2   3
TORSDOF 11
ENDMDL
MODEL       83
REMARK 921   NORMALIZED FREE ENERGY PREDICTED BY IDOCK:   -4.91 KCAL/MOL
REMARK 922        TOTAL FREE ENERGY PREDICTED BY IDOCK:  -11.12 KCAL/MOL
REMARK 923 INTER-LIGAND FREE ENERGY PREDICTED BY IDOCK:   -9.84 KCAL/MOL
REMARK 924 INTRA-LIGAND FREE ENERGY PREDICTED BY IDOCK:   -1.28 KCAL/MOL
REMARK 927      BINDING AFFINITY PREDICTED BY RF-SCORE:    0.00 PKD
ROOT
HETATM    1  C   UNL     1      -7.013  19.510  65.827  1.00  0.00    -0.286 C  
HETATM    2  O   UNL     1      -5.982  18.556  66.100  1.00  0.00    -0.151 OA 
ENDROOT
BRANCH   2   3
HETATM    3  C   UNL     1      -6.234  17.725  67.160  1.00  0.00    -0.150 A  
HETATM    4  C   UNL     1      -7.265  16.788  67.005  1.00  0.00    -0.201 A  
HETATM    5  F   UNL     1      -7.953  16.748  65.851  1.00  0.00    -0.344 F  
HETATM    6  C   UNL     1      -7.580  15.884  68.029  1.00  0.00    -0.137 A  
HETATM    7  C   UNL     1      -6.867  15.948  69.235  1.00  0.00    -0.189 A  
HETATM    8  C   UNL     1      -5.544  17.790  68.376  1.00  0.00    -0.159 A  
HETATM    9  C   UNL     1      -5.858  16.900  69.404  1.00  0.00    -0.192 A  
BRANCH   6  10
HETATM   10  C   UNL     1      -8.604  14.837  67.829  1.00  0.00    -0.169 C  
HETATM   11  C   UNL     1     -10.362  16.113  69.091  1.00  0.00    -0.259 C  
HETATM   12  C   UNL     1      -9.866  14.915  68.307  1.00  0.00    -0.218 C  
HETATM   13  N   UNL     1     -10.777  13.887  68.036  1.00  0.00    -0.242 N  
HETATM   14  C   UNL     1     -10.526  12.921  67.057  1.00  0.00    -0.238 C  
HETATM   15  C   UNL     1      -8.194  13.589  67.117  1.00  0.00    -0.112 C  
HETATM   16  O   UNL     1     -11.432  12.259  66.543  1.00  0.00    -0.342 OA 
HETATM   17  O   UNL     1      -7.002  13.348  66.922  1.00  0.00     0.121 OA 
HETATM   18  N   UNL     1      -9.206  12.754  66.695  1.00  0.00    -0.228 N  
BRANCH  13  19
HETATM   19  C   UNL     1     -12.111  13.833  68.647  1.00  0.00    -0.298 C  
BRANCH  19  20
HETATM   20  C   UNL     1     -12.252  13.056  69.951  1.00  0.00    -0.271 A  
HETATM   21  F   UNL     1     -14.385  15.395  71.472  1.00  0.00    -0.526 F  
HETATM   22  C   UNL     1     -13.062  15.098  71.361  1.00  0.00    -0.423 C  
HETATM   23  C   UNL     1     -12.821  13.620  71.120  1.00  0.00    -0.399 A  
HETATM   24  F   UNL     1     -11.380  11.093  68.919  1.00  0.00    -0.224 F  
HETATM   25  C   UNL     1     -13.196  12.762  72.185  1.00  0.00    -0.546 A  
HETATM   26  C   UNL     1     -11.987  11.673  69.961  1.00  0.00    -0.351 A  
HETATM   27  F   UNL     1     -12.492  15.507  72.531  1.00  0.00    -0.368 F  
HETATM   28  F   UNL     1     -12.568  15.939  70.419  1.00  0.00    -0.421 F  
HETATM   29  C   UNL     1     -12.329  10.850  71.034  1.00  0.00    -0.498 A  
HETATM   30  C   UNL     1     -12.967  11.390  72.137  1.00  0.00    -0.210 A  
ENDBRANCH  19  20
ENDBRANCH  13  19
BRANCH  18  31
HETATM   31  C   UNL     1      -8.862  11.615  65.835  1.00  0.00    -0.057 C  
BRANCH  31  32
HETATM   32  C   UNL     1      -8.629  10.262  66.582  1.00  0.00    -0.127 C  
BRANCH  32  33
HETATM   33  N   UNL     1      -9.876   9.606  67.060  1.00  0.00    -0.183 NA 
HETATM   34  H   UNL     1     -10.675  10.225  66.922  1.00  0.00     0.000 HD 
BRANCH  33  35
HETATM   35  C   UNL     1     -10.148   8.297  66.474  1.00  0.00    -0.233 C  
BRANCH  35  36
HETATM   36  C   UNL     1     -10.014   7.190  67.531  1.00  0.00    -0.214 C  
BRANCH  36  37
HETATM   37  C   UNL     1     -10.700   5.884  67.127  1.00  0.00    -0.387 C  
HETATM   38  O   UNL     1      -9.671   4.306  65.625  1.00  0.00    -0.173 OA 
HETATM   39  C   UNL     1      -9.719   4.810  66.736  1.00  0.00    -0.189 C  
HETATM   40  O   UNL     1      -8.920   4.409  67.749  1.00  0.00    -0.109 OA 
ENDBRANCH  36  37
ENDBRANCH  35  36
ENDBRANCH  33  35
ENDBRANCH  32  33
BRANCH  32  41
HETATM   41  C   UNL     1      -7.701  10.415  67.792  1.00  0.00    -0.089 A  
HETATM   42  C   UNL     1      -5.463  10.314  68.747  1.00  0.00    -0.038 A  
HETATM   43  C   UNL     1      -7.341  10.784  70.178  1.00  0.00     0.279 A  
HETATM   44  C   UNL     1      -6.319  10.226  67.645  1.00  0.00    -0.058 A  
HETATM   45  C   UNL     1      -8.198  10.708  69.076  1.00  0.00    -0.151 A  
HETATM   46  C   UNL     1      -5.973  10.589  70.013  1.00  0.00    -0.080 A  
ENDBRANCH  32  41
ENDBRANCH  31  32
ENDBRANCH  18  31
ENDBRANCH   6  10
ENDBRANCH   2   3
TORSDOF 11
ENDMDL
MODEL       84
REMARK 921   NORMALIZED FREE ENERGY PREDICTED BY IDOCK:   -4.91 KCAL/MOL
REMARK 922        TOTAL FREE ENERGY PREDICTED BY IDOCK:  -11.12 KCAL/MOL
REMARK 923 INTER-LIGAND FREE ENERGY PREDICTED BY IDOCK:   -8.95 KCAL/MOL
REMARK 924 INTRA-LIGAND FREE ENERGY PREDICTED BY IDOCK:   -2.17 KCAL/MOL
REMARK 927      BINDING AFFINITY PREDICTED BY RF-SCORE:    0.00 PKD
ROOT
HETATM    1  C   UNL     1     -10.123   7.334  73.291  1.00  0.00    -0.295 C  
HETATM    2  O   UNL     1     -10.067   8.565  72.563  1.00  0.00    -0.298 OA 
ENDROOT
BRANCH   2   3
HETATM    3  C   UNL     1      -9.019   8.667  71.686  1.00  0.00    -0.235 A  
HETATM    4  C   UNL     1      -9.329   8.989  70.357  1.00  0.00    -0.208 A  
HETATM    5  F   UNL     1     -10.613   9.173  70.004  1.00  0.00    -0.201 F  
HETATM    6  C   UNL     1      -8.320   9.134  69.395  1.00  0.00    -0.124 A  
HETATM    7  C   UNL     1      -6.986   8.922  69.771  1.00  0.00    -0.050 A  
HETATM    8  C   UNL     1      -7.685   8.440  72.043  1.00  0.00    -0.163 A  
HETATM    9  C   UNL     1      -6.676   8.573  71.088  1.00  0.00    -0.061 A  
BRANCH   6  10
HETATM   10  C   UNL     1      -8.641   9.563  68.017  1.00  0.00    -0.120 C  
HETATM   11  C   UNL     1      -8.423   7.239  67.088  1.00  0.00    -0.118 C  
HETATM   12  C   UNL     1      -8.686   8.726  66.957  1.00  0.00    -0.123 C  
HETATM   13  N   UNL     1      -9.034   9.220  65.694  1.00  0.00    -0.185 N  
HETATM   14  C   UNL     1      -9.614  10.481  65.532  1.00  0.00    -0.230 C  
HETATM   15  C   UNL     1      -8.860  11.021  67.775  1.00  0.00    -0.133 C  
HETATM   16  O   UNL     1     -10.262  10.780  64.525  1.00  0.00    -0.328 OA 
HETATM   17  O   UNL     1      -8.549  11.847  68.634  1.00  0.00    -0.131 OA 
HETATM   18  N   UNL     1      -9.425  11.372  66.568  1.00  0.00    -0.195 N  
BRANCH  13  19
HETATM   19  C   UNL     1      -8.955   8.403  64.477  1.00  0.00     0.393 C  
BRANCH  19  20
HETATM   20  C   UNL     1      -7.641   7.680  64.204  1.00  0.00    -0.113 A  
HETATM   21  F   UNL     1      -5.614  10.476  64.837  1.00  0.00    -0.099 F  
HETATM   22  C   UNL     1      -6.248   9.851  63.808  1.00  0.00    -0.125 C  
HETATM   23  C   UNL     1      -6.409   8.362  64.049  1.00  0.00    -0.071 A  
HETATM   24  F   UNL     1      -8.730   5.565  64.359  1.00  0.00    -0.143 F  
HETATM   25  C   UNL     1      -5.201   7.622  64.104  1.00  0.00    -0.029 A  
HETATM   26  C   UNL     1      -7.597   6.275  64.291  1.00  0.00    -0.097 A  
HETATM   27  F   UNL     1      -5.487  10.094  62.703  1.00  0.00    -0.088 F  
HETATM   28  F   UNL     1      -7.395  10.545  63.601  1.00  0.00    -0.132 F  
HETATM   29  C   UNL     1      -6.400   5.560  64.305  1.00  0.00    -0.022 A  
HETATM   30  C   UNL     1      -5.195   6.238  64.245  1.00  0.00    -0.018 A  
ENDBRANCH  19  20
ENDBRANCH  13  19
BRANCH  18  31
HETATM   31  C   UNL     1      -9.825  12.770  66.361  1.00  0.00    -0.269 C  
BRANCH  31  32
HETATM   32  C   UNL     1     -11.339  13.073  66.605  1.00  0.00    -0.325 C  
BRANCH  32  33
HETATM   33  N   UNL     1     -11.848  14.265  65.874  1.00  0.00    -0.371 NA 
HETATM   34  H   UNL     1     -12.218  14.951  66.532  1.00  0.00     0.000 HD 
BRANCH  33  35
HETATM   35  C   UNL     1     -10.884  14.897  64.978  1.00  0.00    -0.423 C  
BRANCH  35  36
HETATM   36  C   UNL     1     -10.884  16.422  65.167  1.00  0.00    -0.289 C  
BRANCH  36  37
HETATM   37  C   UNL     1     -10.239  16.867  66.480  1.00  0.00    -0.320 C  
HETATM   38  O   UNL     1      -8.182  15.908  67.290  1.00  0.00    -0.159 OA 
HETATM   39  C   UNL     1      -8.749  16.646  66.499  1.00  0.00    -0.282 C  
HETATM   40  O   UNL     1      -8.079  17.385  65.589  1.00  0.00    -0.485 OA 
ENDBRANCH  36  37
ENDBRANCH  35  36
ENDBRANCH  33  35
ENDBRANCH  32  33
BRANCH  32  41
HETATM   41  C   UNL     1     -11.663  13.274  68.089  1.00  0.00    -0.397 A  
HETATM   42  C   UNL     1     -12.206  12.326  70.266  1.00  0.00    -0.342 A  
HETATM   43  C   UNL     1     -12.164  14.718  69.993  1.00  0.00    -0.383 A  
HETATM   44  C   UNL     1     -11.862  12.161  68.921  1.00  0.00    -0.358 A  
HETATM   45  C   UNL     1     -11.808  14.556  68.651  1.00  0.00    -0.355 A  
HETATM   46  C   UNL     1     -12.361  13.602  70.801  1.00  0.00    -0.446 A  
ENDBRANCH  32  41
ENDBRANCH  31  32
ENDBRANCH  18  31
ENDBRANCH   6  10
ENDBRANCH   2   3
TORSDOF 11
ENDMDL
MODEL       85
REMARK 921   NORMALIZED FREE ENERGY PREDICTED BY IDOCK:   -4.90 KCAL/MOL
REMARK 922        TOTAL FREE ENERGY PREDICTED BY IDOCK:  -11.11 KCAL/MOL
REMARK 923 INTER-LIGAND FREE ENERGY PREDICTED BY IDOCK:   -7.76 KCAL/MOL
REMARK 924 INTRA-LIGAND FREE ENERGY PREDICTED BY IDOCK:   -3.34 KCAL/MOL
REMARK 927      BINDING AFFINITY PREDICTED BY RF-SCORE:    0.00 PKD
ROOT
HETATM    1  C   UNL     1      -9.470  16.374  67.464  1.00  0.00    -0.224 C  
HETATM    2  O   UNL     1      -8.962  15.146  66.931  1.00  0.00    -0.218 OA 
ENDROOT
BRANCH   2   3
HETATM    3  C   UNL     1      -9.920  14.240  66.561  1.00  0.00    -0.281 A  
HETATM    4  C   UNL     1      -9.790  12.935  67.058  1.00  0.00    -0.233 A  
HETATM    5  F   UNL     1      -8.749  12.634  67.855  1.00  0.00    -0.147 F  
HETATM    6  C   UNL     1     -10.733  11.946  66.749  1.00  0.00    -0.282 A  
HETATM    7  C   UNL     1     -11.803  12.269  65.903  1.00  0.00    -0.420 A  
HETATM    8  C   UNL     1     -10.982  14.543  65.702  1.00  0.00    -0.323 A  
HETATM    9  C   UNL     1     -11.921  13.561  65.381  1.00  0.00    -0.406 A  
BRANCH   6  10
HETATM   10  C   UNL     1     -10.644  10.598  67.348  1.00  0.00    -0.304 C  
HETATM   11  C   UNL     1     -11.496  11.376  69.580  1.00  0.00    -0.380 C  
HETATM   12  C   UNL     1     -10.976  10.318  68.628  1.00  0.00    -0.244 C  
HETATM   13  N   UNL     1     -10.892   9.001  69.097  1.00  0.00    -0.149 N  
HETATM   14  C   UNL     1     -10.753   7.918  68.224  1.00  0.00    -0.031 C  
HETATM   15  C   UNL     1     -10.087   9.497  66.506  1.00  0.00    -0.256 C  
HETATM   16  O   UNL     1     -11.052   6.767  68.556  1.00  0.00    -0.213 OA 
HETATM   17  O   UNL     1      -9.509   9.755  65.450  1.00  0.00    -0.230 OA 
HETATM   18  N   UNL     1     -10.267   8.211  66.967  1.00  0.00    -0.280 N  
BRANCH  13  19
HETATM   19  C   UNL     1     -11.089   8.651  70.509  1.00  0.00    -0.242 C  
BRANCH  19  20
HETATM   20  C   UNL     1      -9.878   8.135  71.277  1.00  0.00    -0.207 A  
HETATM   21  F   UNL     1     -11.055   4.836  71.528  1.00  0.00    -0.074 F  
HETATM   22  C   UNL     1     -11.073   6.011  72.214  1.00  0.00    -0.278 C  
HETATM   23  C   UNL     1      -9.858   6.870  71.916  1.00  0.00    -0.173 A  
HETATM   24  F   UNL     1      -8.629  10.075  70.683  1.00  0.00    -0.145 F  
HETATM   25  C   UNL     1      -8.617   6.334  72.342  1.00  0.00    -0.121 A  
HETATM   26  C   UNL     1      -8.663   8.843  71.203  1.00  0.00    -0.222 A  
HETATM   27  F   UNL     1     -11.126   5.669  73.533  1.00  0.00    -0.286 F  
HETATM   28  F   UNL     1     -12.277   6.578  71.952  1.00  0.00    -0.351 F  
HETATM   29  C   UNL     1      -7.456   8.314  71.663  1.00  0.00    -0.105 A  
HETATM   30  C   UNL     1      -7.426   7.041  72.204  1.00  0.00    -0.090 A  
ENDBRANCH  19  20
ENDBRANCH  13  19
BRANCH  18  31
HETATM   31  C   UNL     1      -9.901   7.094  66.088  1.00  0.00     0.170 C  
BRANCH  31  32
HETATM   32  C   UNL     1      -8.400   6.661  66.149  1.00  0.00    -0.130 C  
BRANCH  32  33
HETATM   33  N   UNL     1      -7.918   5.956  64.931  1.00  0.00    -0.119 NA 
HETATM   34  H   UNL     1      -8.545   6.138  64.147  1.00  0.00     0.000 HD 
BRANCH  33  35
HETATM   35  C   UNL     1      -6.540   6.252  64.551  1.00  0.00    -0.034 C  
BRANCH  35  36
HETATM   36  C   UNL     1      -5.704   4.964  64.489  1.00  0.00    -0.017 C  
BRANCH  36  37
HETATM   37  C   UNL     1      -6.531   3.698  64.720  1.00  0.00    -0.035 C  
HETATM   38  O   UNL     1      -8.273   3.009  63.204  1.00  0.00    -0.079 OA 
HETATM   39  C   UNL     1      -7.080   3.122  63.441  1.00  0.00    -0.048 C  
HETATM   40  O   UNL     1      -6.128   2.687  62.587  1.00  0.00    -0.009 OA 
ENDBRANCH  36  37
ENDBRANCH  35  36
ENDBRANCH  33  35
ENDBRANCH  32  33
BRANCH  32  41
HETATM   41  C   UNL     1      -8.101   5.756  67.349  1.00  0.00    -0.102 A  
HETATM   42  C   UNL     1      -8.799   3.985  68.867  1.00  0.00    -0.149 A  
HETATM   43  C   UNL     1      -6.693   5.094  69.231  1.00  0.00    -0.052 A  
HETATM   44  C   UNL     1      -9.034   4.786  67.746  1.00  0.00    -0.122 A  
HETATM   45  C   UNL     1      -6.920   5.888  68.103  1.00  0.00    -0.069 A  
HETATM   46  C   UNL     1      -7.632   4.140  69.612  1.00  0.00    -0.053 A  
ENDBRANCH  32  41
ENDBRANCH  31  32
ENDBRANCH  18  31
ENDBRANCH   6  10
ENDBRANCH   2   3
TORSDOF 11
ENDMDL
MODEL       86
REMARK 921   NORMALIZED FREE ENERGY PREDICTED BY IDOCK:   -4.89 KCAL/MOL
REMARK 922        TOTAL FREE ENERGY PREDICTED BY IDOCK:  -11.10 KCAL/MOL
REMARK 923 INTER-LIGAND FREE ENERGY PREDICTED BY IDOCK:   -9.06 KCAL/MOL
REMARK 924 INTRA-LIGAND FREE ENERGY PREDICTED BY IDOCK:   -2.04 KCAL/MOL
REMARK 927      BINDING AFFINITY PREDICTED BY RF-SCORE:    0.00 PKD
ROOT
HETATM    1  C   UNL     1     -10.749   3.922  64.004  1.00  0.00    -0.208 C  
HETATM    2  O   UNL     1     -11.177   4.459  65.259  1.00  0.00    -0.121 OA 
ENDROOT
BRANCH   2   3
HETATM    3  C   UNL     1     -10.214   4.486  66.232  1.00  0.00    -0.239 A  
HETATM    4  C   UNL     1      -9.919   5.732  66.803  1.00  0.00    -0.175 A  
HETATM    5  F   UNL     1     -10.575   6.826  66.377  1.00  0.00    -0.246 F  
HETATM    6  C   UNL     1      -8.962   5.853  67.820  1.00  0.00    -0.111 A  
HETATM    7  C   UNL     1      -8.272   4.708  68.244  1.00  0.00    -0.090 A  
HETATM    8  C   UNL     1      -9.504   3.355  66.652  1.00  0.00    -0.151 A  
HETATM    9  C   UNL     1      -8.543   3.469  67.656  1.00  0.00    -0.116 A  
BRANCH   6  10
HETATM   10  C   UNL     1      -8.719   7.151  68.484  1.00  0.00    -0.126 C  
HETATM   11  C   UNL     1     -10.062   6.529  70.514  1.00  0.00    -0.213 C  
HETATM   12  C   UNL     1      -9.212   7.482  69.698  1.00  0.00    -0.146 C  
HETATM   13  N   UNL     1      -8.897   8.725  70.262  1.00  0.00    -0.149 N  
HETATM   14  C   UNL     1      -7.868   9.522  69.755  1.00  0.00    -0.128 C  
HETATM   15  C   UNL     1      -7.939   8.182  67.734  1.00  0.00    -0.127 C  
HETATM   16  O   UNL     1      -7.329  10.404  70.431  1.00  0.00    -0.245 OA 
HETATM   17  O   UNL     1      -7.720   8.040  66.530  1.00  0.00    -0.090 OA 
HETATM   18  N   UNL     1      -7.484   9.264  68.456  1.00  0.00    -0.080 N  
BRANCH  13  19
HETATM   19  C   UNL     1      -9.518   9.209  71.501  1.00  0.00    -0.169 C  
BRANCH  19  20
HETATM   20  C   UNL     1     -11.039   9.160  71.588  1.00  0.00    -0.445 A  
HETATM   21  F   UNL     1     -11.572  10.419  68.353  1.00  0.00    -0.326 F  
HETATM   22  C   UNL     1     -11.447  10.847  69.638  1.00  0.00    -0.305 C  
HETATM   23  C   UNL     1     -11.881   9.796  70.642  1.00  0.00    -0.360 A  
HETATM   24  F   UNL     1     -10.920   7.733  73.493  1.00  0.00    -0.416 F  
HETATM   25  C   UNL     1     -13.257   9.458  70.609  1.00  0.00     0.179 A  
HETATM   26  C   UNL     1     -11.648   8.303  72.525  1.00  0.00    -0.385 A  
HETATM   27  F   UNL     1     -12.218  11.969  69.731  1.00  0.00    -0.330 F  
HETATM   28  F   UNL     1     -10.170  11.291  69.761  1.00  0.00    -0.079 F  
HETATM   29  C   UNL     1     -13.012   8.011  72.501  1.00  0.00     0.003 A  
HETATM   30  C   UNL     1     -13.815   8.564  71.519  1.00  0.00    -0.378 A  
ENDBRANCH  19  20
ENDBRANCH  13  19
BRANCH  18  31
HETATM   31  C   UNL     1      -6.563  10.204  67.805  1.00  0.00    -0.067 C  
BRANCH  31  32
HETATM   32  C   UNL     1      -7.237  11.457  67.159  1.00  0.00    -0.134 C  
BRANCH  32  33
HETATM   33  N   UNL     1      -7.975  12.318  68.123  1.00  0.00    -0.147 NA 
HETATM   34  H   UNL     1      -7.799  12.009  69.078  1.00  0.00     0.000 HD 
BRANCH  33  35
HETATM   35  C   UNL     1      -7.712  13.749  68.000  1.00  0.00    -0.152 C  
BRANCH  35  36
HETATM   36  C   UNL     1      -9.007  14.516  67.694  1.00  0.00    -0.193 C  
BRANCH  36  37
HETATM   37  C   UNL     1      -9.044  15.096  66.279  1.00  0.00    -0.313 C  
HETATM   38  O   UNL     1     -10.044  17.234  65.795  1.00  0.00    -0.533 OA 
HETATM   39  C   UNL     1      -9.115  16.601  66.270  1.00  0.00    -0.298 C  
HETATM   40  O   UNL     1      -8.023  17.199  66.793  1.00  0.00    -0.195 OA 
ENDBRANCH  36  37
ENDBRANCH  35  36
ENDBRANCH  33  35
ENDBRANCH  32  33
BRANCH  32  41
HETATM   41  C   UNL     1      -8.213  11.084  66.039  1.00  0.00    -0.129 A  
HETATM   42  C   UNL     1      -8.600  10.252  63.783  1.00  0.00    -0.190 A  
HETATM   43  C   UNL     1     -10.468  11.001  65.105  1.00  0.00    -0.329 A  
HETATM   44  C   UNL     1      -7.729  10.553  64.834  1.00  0.00    -0.021 A  
HETATM   45  C   UNL     1      -9.600  11.292  66.162  1.00  0.00    -0.241 A  
HETATM   46  C   UNL     1      -9.968  10.479  63.916  1.00  0.00    -0.348 A  
ENDBRANCH  32  41
ENDBRANCH  31  32
ENDBRANCH  18  31
ENDBRANCH   6  10
ENDBRANCH   2   3
TORSDOF 11
ENDMDL
MODEL       87
REMARK 921   NORMALIZED FREE ENERGY PREDICTED BY IDOCK:   -4.88 KCAL/MOL
REMARK 922        TOTAL FREE ENERGY PREDICTED BY IDOCK:  -11.07 KCAL/MOL
REMARK 923 INTER-LIGAND FREE ENERGY PREDICTED BY IDOCK:   -8.85 KCAL/MOL
REMARK 924 INTRA-LIGAND FREE ENERGY PREDICTED BY IDOCK:   -2.22 KCAL/MOL
REMARK 927      BINDING AFFINITY PREDICTED BY RF-SCORE:    0.00 PKD
ROOT
HETATM    1  C   UNL     1     -10.766   4.513  73.626  1.00  0.00    -0.272 C  
HETATM    2  O   UNL     1      -9.967   5.690  73.470  1.00  0.00    -0.161 OA 
ENDROOT
BRANCH   2   3
HETATM    3  C   UNL     1     -10.519   6.659  72.676  1.00  0.00    -0.212 A  
HETATM    4  C   UNL     1      -9.857   6.955  71.476  1.00  0.00    -0.169 A  
HETATM    5  F   UNL     1      -8.729   6.293  71.164  1.00  0.00    -0.125 F  
HETATM    6  C   UNL     1     -10.360   7.918  70.591  1.00  0.00    -0.205 A  
HETATM    7  C   UNL     1     -11.528   8.614  70.936  1.00  0.00    -0.315 A  
HETATM    8  C   UNL     1     -11.673   7.375  73.016  1.00  0.00     0.005 A  
HETATM    9  C   UNL     1     -12.174   8.343  72.145  1.00  0.00    -0.434 A  
BRANCH   6  10
HETATM   10  C   UNL     1      -9.712   8.162  69.285  1.00  0.00    -0.170 C  
HETATM   11  C   UNL     1     -10.536   5.998  68.310  1.00  0.00    -0.289 C  
HETATM   12  C   UNL     1      -9.772   7.305  68.242  1.00  0.00    -0.147 C  
HETATM   13  N   UNL     1      -9.154   7.639  67.030  1.00  0.00    -0.130 N  
HETATM   14  C   UNL     1      -8.722   8.941  66.760  1.00  0.00    -0.119 C  
HETATM   15  C   UNL     1      -8.885   9.397  69.138  1.00  0.00    -0.143 C  
HETATM   16  O   UNL     1      -8.535   9.343  65.609  1.00  0.00    -0.125 OA 
HETATM   17  O   UNL     1      -8.566  10.052  70.131  1.00  0.00    -0.168 OA 
HETATM   18  N   UNL     1      -8.523   9.753  67.856  1.00  0.00    -0.124 N  
BRANCH  13  19
HETATM   19  C   UNL     1      -9.048   6.696  65.910  1.00  0.00    -0.029 C  
BRANCH  19  20
HETATM   20  C   UNL     1      -8.014   5.583  66.029  1.00  0.00    -0.106 A  
HETATM   21  F   UNL     1      -9.592   3.451  63.727  1.00  0.00    -0.113 F  
HETATM   22  C   UNL     1      -9.559   3.714  65.062  1.00  0.00    -0.171 C  
HETATM   23  C   UNL     1      -8.225   4.283  65.505  1.00  0.00    -0.109 A  
HETATM   24  F   UNL     1      -6.480   7.070  67.085  1.00  0.00    -0.044 F  
HETATM   25  C   UNL     1      -7.119   3.404  65.381  1.00  0.00    -0.062 A  
HETATM   26  C   UNL     1      -6.725   5.888  66.507  1.00  0.00    -0.057 A  
HETATM   27  F   UNL     1      -9.820   2.526  65.680  1.00  0.00     0.054 F  
HETATM   28  F   UNL     1     -10.645   4.486  65.317  1.00  0.00    -0.253 F  
HETATM   29  C   UNL     1      -5.657   4.995  66.411  1.00  0.00    -0.017 A  
HETATM   30  C   UNL     1      -5.846   3.760  65.815  1.00  0.00    -0.022 A  
ENDBRANCH  19  20
ENDBRANCH  13  19
BRANCH  18  31
HETATM   31  C   UNL     1      -7.871  11.052  67.648  1.00  0.00    -0.114 C  
BRANCH  31  32
HETATM   32  C   UNL     1      -8.833  12.233  67.296  1.00  0.00    -0.190 C  
BRANCH  32  33
HETATM   33  N   UNL     1      -8.916  12.539  65.842  1.00  0.00    -0.411 NA 
HETATM   34  H   UNL     1      -8.863  11.678  65.297  1.00  0.00     0.000 HD 
BRANCH  33  35
HETATM   35  C   UNL     1     -10.085  13.316  65.442  1.00  0.00    -0.253 C  
BRANCH  35  36
HETATM   36  C   UNL     1     -11.381  12.603  65.857  1.00  0.00    -0.373 C  
BRANCH  36  37
HETATM   37  C   UNL     1     -12.644  13.368  65.460  1.00  0.00    -0.520 C  
HETATM   38  O   UNL     1     -12.593  15.216  63.914  1.00  0.00    -0.794 OA 
HETATM   39  C   UNL     1     -12.531  14.011  64.102  1.00  0.00    -0.234 C  
HETATM   40  O   UNL     1     -12.408  13.125  63.090  1.00  0.00    -0.677 OA 
ENDBRANCH  36  37
ENDBRANCH  35  36
ENDBRANCH  33  35
ENDBRANCH  32  33
BRANCH  32  41
HETATM   41  C   UNL     1      -8.452  13.531  68.015  1.00  0.00    -0.176 A  
HETATM   42  C   UNL     1      -6.741  15.112  68.726  1.00  0.00    -0.099 A  
HETATM   43  C   UNL     1      -9.027  15.457  69.401  1.00  0.00    -0.258 A  
HETATM   44  C   UNL     1      -7.115  13.956  68.034  1.00  0.00    -0.145 A  
HETATM   45  C   UNL     1      -9.405  14.308  68.700  1.00  0.00    -0.172 A  
HETATM   46  C   UNL     1      -7.695  15.860  69.412  1.00  0.00    -0.199 A  
ENDBRANCH  32  41
ENDBRANCH  31  32
ENDBRANCH  18  31
ENDBRANCH   6  10
ENDBRANCH   2   3
TORSDOF 11
ENDMDL
MODEL       88
REMARK 921   NORMALIZED FREE ENERGY PREDICTED BY IDOCK:   -4.87 KCAL/MOL
REMARK 922        TOTAL FREE ENERGY PREDICTED BY IDOCK:  -11.06 KCAL/MOL
REMARK 923 INTER-LIGAND FREE ENERGY PREDICTED BY IDOCK:   -8.28 KCAL/MOL
REMARK 924 INTRA-LIGAND FREE ENERGY PREDICTED BY IDOCK:   -2.78 KCAL/MOL
REMARK 927      BINDING AFFINITY PREDICTED BY RF-SCORE:    0.00 PKD
ROOT
HETATM    1  C   UNL     1      -5.200   3.183  68.539  1.00  0.00    -0.012 C  
HETATM    2  O   UNL     1      -5.195   3.890  67.294  1.00  0.00    -0.010 OA 
ENDROOT
BRANCH   2   3
HETATM    3  C   UNL     1      -6.433   4.090  66.742  1.00  0.00    -0.041 A  
HETATM    4  C   UNL     1      -7.078   5.298  67.044  1.00  0.00    -0.070 A  
HETATM    5  F   UNL     1      -6.471   6.187  67.851  1.00  0.00    -0.040 F  
HETATM    6  C   UNL     1      -8.337   5.598  66.508  1.00  0.00    -0.110 A  
HETATM    7  C   UNL     1      -8.967   4.656  65.683  1.00  0.00    -0.138 A  
HETATM    8  C   UNL     1      -7.081   3.151  65.932  1.00  0.00    -0.065 A  
HETATM    9  C   UNL     1      -8.340   3.438  65.403  1.00  0.00    -0.098 A  
BRANCH   6  10
HETATM   10  C   UNL     1      -8.974   6.910  66.754  1.00  0.00    -0.141 C  
HETATM   11  C   UNL     1      -8.253   7.838  64.533  1.00  0.00    -0.060 C  
HETATM   12  C   UNL     1      -8.942   7.939  65.878  1.00  0.00    -0.123 C  
HETATM   13  N   UNL     1      -9.606   9.134  66.185  1.00  0.00    -0.246 N  
HETATM   14  C   UNL     1     -10.536   9.212  67.225  1.00  0.00    -0.233 C  
HETATM   15  C   UNL     1      -9.630   7.128  68.078  1.00  0.00    -0.134 C  
HETATM   16  O   UNL     1     -11.389  10.102  67.276  1.00  0.00    -0.221 OA 
HETATM   17  O   UNL     1      -9.437   6.340  69.004  1.00  0.00    -0.129 OA 
HETATM   18  N   UNL     1     -10.450   8.230  68.190  1.00  0.00    -0.199 N  
BRANCH  13  19
HETATM   19  C   UNL     1      -9.487  10.339  65.355  1.00  0.00    -0.232 C  
BRANCH  19  20
HETATM   20  C   UNL     1      -9.143  11.644  66.063  1.00  0.00    -0.188 A  
HETATM   21  F   UNL     1     -12.412  12.925  65.953  1.00  0.00    -0.484 F  
HETATM   22  C   UNL     1     -11.256  12.933  65.234  1.00  0.00    -0.288 C  
HETATM   23  C   UNL     1     -10.031  12.748  66.109  1.00  0.00    -0.272 A  
HETATM   24  F   UNL     1      -7.069  10.736  66.809  1.00  0.00    -0.098 F  
HETATM   25  C   UNL     1      -9.778  13.797  67.028  1.00  0.00    -0.251 A  
HETATM   26  C   UNL     1      -7.987  11.709  66.864  1.00  0.00    -0.161 A  
HETATM   27  F   UNL     1     -11.229  14.137  64.592  1.00  0.00    -0.338 F  
HETATM   28  F   UNL     1     -11.423  12.016  64.248  1.00  0.00    -0.359 F  
HETATM   29  C   UNL     1      -7.735  12.769  67.736  1.00  0.00    -0.152 A  
HETATM   30  C   UNL     1      -8.650  13.802  67.844  1.00  0.00    -0.183 A  
ENDBRANCH  19  20
ENDBRANCH  13  19
BRANCH  18  31
HETATM   31  C   UNL     1     -11.255   8.383  69.408  1.00  0.00     0.227 C  
BRANCH  31  32
HETATM   32  C   UNL     1     -10.664   9.355  70.481  1.00  0.00    -0.276 C  
BRANCH  32  33
HETATM   33  N   UNL     1     -10.518   8.753  71.834  1.00  0.00    -0.335 NA 
HETATM   34  H   UNL     1     -11.170   7.977  71.947  1.00  0.00     0.000 HD 
BRANCH  33  35
HETATM   35  C   UNL     1      -9.165   8.327  72.178  1.00  0.00    -0.222 C  
BRANCH  35  36
HETATM   36  C   UNL     1      -9.048   8.050  73.684  1.00  0.00    -0.299 C  
BRANCH  36  37
HETATM   37  C   UNL     1      -8.020   6.969  74.020  1.00  0.00    -0.130 C  
HETATM   38  O   UNL     1      -6.169   6.460  72.563  1.00  0.00    -0.048 OA 
HETATM   39  C   UNL     1      -6.683   7.217  73.372  1.00  0.00    -0.065 C  
HETATM   40  O   UNL     1      -6.068   8.338  73.808  1.00  0.00    -0.096 OA 
ENDBRANCH  36  37
ENDBRANCH  35  36
ENDBRANCH  33  35
ENDBRANCH  32  33
BRANCH  32  41
HETATM   41  C   UNL     1     -11.497  10.631  70.636  1.00  0.00    -0.374 A  
HETATM   42  C   UNL     1     -11.892  12.963  70.054  1.00  0.00    -0.356 A  
HETATM   43  C   UNL     1     -13.280  11.904  71.712  1.00  0.00    -0.426 A  
HETATM   44  C   UNL     1     -11.174  11.775  69.890  1.00  0.00    -0.093 A  
HETATM   45  C   UNL     1     -12.571  10.712  71.542  1.00  0.00    -0.517 A  
HETATM   46  C   UNL     1     -12.942  13.029  70.967  1.00  0.00    -0.196 A  
ENDBRANCH  32  41
ENDBRANCH  31  32
ENDBRANCH  18  31
ENDBRANCH   6  10
ENDBRANCH   2   3
TORSDOF 11
ENDMDL
MODEL       89
REMARK 921   NORMALIZED FREE ENERGY PREDICTED BY IDOCK:   -4.86 KCAL/MOL
REMARK 922        TOTAL FREE ENERGY PREDICTED BY IDOCK:  -11.04 KCAL/MOL
REMARK 923 INTER-LIGAND FREE ENERGY PREDICTED BY IDOCK:   -9.06 KCAL/MOL
REMARK 924 INTRA-LIGAND FREE ENERGY PREDICTED BY IDOCK:   -1.97 KCAL/MOL
REMARK 927      BINDING AFFINITY PREDICTED BY RF-SCORE:    0.00 PKD
ROOT
HETATM    1  C   UNL     1     -12.991  14.022  65.887  1.00  0.00    -0.178 C  
HETATM    2  O   UNL     1     -11.928  14.462  66.739  1.00  0.00    -0.411 OA 
ENDROOT
BRANCH   2   3
HETATM    3  C   UNL     1     -11.908  13.881  67.980  1.00  0.00    -0.375 A  
HETATM    4  C   UNL     1     -11.423  12.568  68.062  1.00  0.00    -0.317 A  
HETATM    5  F   UNL     1     -11.013  11.945  66.943  1.00  0.00    -0.264 F  
HETATM    6  C   UNL     1     -11.347  11.902  69.292  1.00  0.00    -0.338 A  
HETATM    7  C   UNL     1     -11.794  12.556  70.449  1.00  0.00    -0.246 A  
HETATM    8  C   UNL     1     -12.369  14.515  69.139  1.00  0.00    -0.152 A  
HETATM    9  C   UNL     1     -12.305  13.855  70.367  1.00  0.00    -0.433 A  
BRANCH   6  10
HETATM   10  C   UNL     1     -10.750  10.553  69.390  1.00  0.00    -0.277 C  
HETATM   11  C   UNL     1     -12.856   9.530  70.302  1.00  0.00     0.440 C  
HETATM   12  C   UNL     1     -11.411   9.467  69.850  1.00  0.00    -0.126 C  
HETATM   13  N   UNL     1     -10.771   8.222  69.872  1.00  0.00    -0.240 N  
HETATM   14  C   UNL     1      -9.581   7.994  69.176  1.00  0.00    -0.156 C  
HETATM   15  C   UNL     1      -9.310  10.400  69.023  1.00  0.00    -0.194 C  
HETATM   16  O   UNL     1      -9.209   6.858  68.868  1.00  0.00    -0.134 OA 
HETATM   17  O   UNL     1      -8.597  11.394  68.879  1.00  0.00    -0.120 OA 
HETATM   18  N   UNL     1      -8.846   9.114  68.849  1.00  0.00    -0.137 N  
BRANCH  13  19
HETATM   19  C   UNL     1     -11.372   7.037  70.497  1.00  0.00    -0.312 C  
BRANCH  19  20
HETATM   20  C   UNL     1     -10.781   6.570  71.822  1.00  0.00    -0.262 A  
HETATM   21  F   UNL     1      -8.379   4.463  70.365  1.00  0.00    -0.069 F  
HETATM   22  C   UNL     1      -9.653   4.429  70.844  1.00  0.00    -0.185 C  
HETATM   23  C   UNL     1      -9.892   5.471  71.920  1.00  0.00    -0.210 A  
HETATM   24  F   UNL     1     -11.851   8.363  72.972  1.00  0.00    -0.429 F  
HETATM   25  C   UNL     1      -9.154   5.288  73.117  1.00  0.00    -0.127 A  
HETATM   26  C   UNL     1     -10.966   7.359  72.975  1.00  0.00    -0.374 A  
HETATM   27  F   UNL     1      -9.832   3.167  71.329  1.00  0.00    -0.222 F  
HETATM   28  F   UNL     1     -10.462   4.504  69.758  1.00  0.00    -0.279 F  
HETATM   29  C   UNL     1     -10.258   7.140  74.157  1.00  0.00    -0.172 A  
HETATM   30  C   UNL     1      -9.324   6.121  74.219  1.00  0.00    -0.167 A  
ENDBRANCH  19  20
ENDBRANCH  13  19
BRANCH  18  31
HETATM   31  C   UNL     1      -7.493   8.924  68.312  1.00  0.00    -0.087 C  
BRANCH  31  32
HETATM   32  C   UNL     1      -7.417   8.680  66.769  1.00  0.00    -0.086 C  
BRANCH  32  33
HETATM   33  N   UNL     1      -8.743   8.573  66.102  1.00  0.00    -0.142 NA 
HETATM   34  H   UNL     1      -9.454   9.056  66.651  1.00  0.00     0.000 HD 
BRANCH  33  35
HETATM   35  C   UNL     1      -8.776   9.035  64.718  1.00  0.00    -0.153 C  
BRANCH  35  36
HETATM   36  C   UNL     1      -9.017  10.551  64.656  1.00  0.00    -0.229 C  
BRANCH  36  37
HETATM   37  C   UNL     1      -9.694  11.002  63.361  1.00  0.00    -0.383 C  
HETATM   38  O   UNL     1     -11.945  11.860  63.320  1.00  0.00    -0.445 OA 
HETATM   39  C   UNL     1     -10.768  12.032  63.595  1.00  0.00    -0.449 C  
HETATM   40  O   UNL     1     -10.302  13.198  64.092  1.00  0.00    -0.421 OA 
ENDBRANCH  36  37
ENDBRANCH  35  36
ENDBRANCH  33  35
ENDBRANCH  32  33
BRANCH  32  41
HETATM   41  C   UNL     1      -6.624   7.418  66.415  1.00  0.00    -0.053 A  
HETATM   42  C   UNL     1      -5.212   6.196  64.852  1.00  0.00    -0.014 A  
HETATM   43  C   UNL     1      -5.942   5.120  66.879  1.00  0.00    -0.026 A  
HETATM   44  C   UNL     1      -5.902   7.356  65.214  1.00  0.00    -0.037 A  
HETATM   45  C   UNL     1      -6.622   6.284  67.249  1.00  0.00    -0.058 A  
HETATM   46  C   UNL     1      -5.235   5.077  65.682  1.00  0.00    -0.012 A  
ENDBRANCH  32  41
ENDBRANCH  31  32
ENDBRANCH  18  31
ENDBRANCH   6  10
ENDBRANCH   2   3
TORSDOF 11
ENDMDL
MODEL       90
REMARK 921   NORMALIZED FREE ENERGY PREDICTED BY IDOCK:   -4.85 KCAL/MOL
REMARK 922        TOTAL FREE ENERGY PREDICTED BY IDOCK:  -11.03 KCAL/MOL
REMARK 923 INTER-LIGAND FREE ENERGY PREDICTED BY IDOCK:   -8.20 KCAL/MOL
REMARK 924 INTRA-LIGAND FREE ENERGY PREDICTED BY IDOCK:   -2.83 KCAL/MOL
REMARK 927      BINDING AFFINITY PREDICTED BY RF-SCORE:    0.00 PKD
ROOT
HETATM    1  C   UNL     1     -12.350  13.911  66.226  1.00  0.00    -0.449 C  
HETATM    2  O   UNL     1     -11.085  13.545  65.665  1.00  0.00    -0.289 OA 
ENDROOT
BRANCH   2   3
HETATM    3  C   UNL     1     -10.135  13.178  66.581  1.00  0.00    -0.264 A  
HETATM    4  C   UNL     1     -10.128  11.837  66.990  1.00  0.00    -0.209 A  
HETATM    5  F   UNL     1     -11.039  10.987  66.482  1.00  0.00    -0.322 F  
HETATM    6  C   UNL     1      -9.179  11.366  67.907  1.00  0.00    -0.164 A  
HETATM    7  C   UNL     1      -8.246  12.266  68.443  1.00  0.00    -0.146 A  
HETATM    8  C   UNL     1      -9.210  14.069  67.138  1.00  0.00    -0.240 A  
HETATM    9  C   UNL     1      -8.269  13.610  68.060  1.00  0.00    -0.162 A  
BRANCH   6  10
HETATM   10  C   UNL     1      -9.116   9.934  68.266  1.00  0.00    -0.122 C  
HETATM   11  C   UNL     1     -11.107  10.079  69.791  1.00  0.00    -0.319 C  
HETATM   12  C   UNL     1      -9.972   9.331  69.121  1.00  0.00    -0.179 C  
HETATM   13  N   UNL     1      -9.853   7.959  69.373  1.00  0.00    -0.177 N  
HETATM   14  C   UNL     1      -9.072   7.128  68.565  1.00  0.00    -0.132 C  
HETATM   15  C   UNL     1      -7.994   9.123  67.702  1.00  0.00    -0.100 C  
HETATM   16  O   UNL     1      -9.244   5.906  68.522  1.00  0.00    -0.118 OA 
HETATM   17  O   UNL     1      -7.038   9.679  67.161  1.00  0.00    -0.084 OA 
HETATM   18  N   UNL     1      -8.101   7.753  67.812  1.00  0.00    -0.123 N  
BRANCH  13  19
HETATM   19  C   UNL     1     -10.647   7.273  70.400  1.00  0.00    -0.226 C  
BRANCH  19  20
HETATM   20  C   UNL     1      -9.971   6.999  71.739  1.00  0.00    -0.187 A  
HETATM   21  F   UNL     1      -8.789   3.816  70.841  1.00  0.00    -0.097 F  
HETATM   22  C   UNL     1      -9.863   4.409  71.430  1.00  0.00    -0.192 C  
HETATM   23  C   UNL     1      -9.500   5.715  72.111  1.00  0.00    -0.166 A  
HETATM   24  F   UNL     1     -10.103   9.307  72.320  1.00  0.00    -0.307 F  
HETATM   25  C   UNL     1      -8.623   5.598  73.218  1.00  0.00    -0.116 A  
HETATM   26  C   UNL     1      -9.626   8.082  72.571  1.00  0.00    -0.240 A  
HETATM   27  F   UNL     1     -10.342   3.500  72.327  1.00  0.00    -0.233 F  
HETATM   28  F   UNL     1     -10.818   4.488  70.470  1.00  0.00    -0.016 F  
HETATM   29  C   UNL     1      -8.791   7.941  73.680  1.00  0.00    -0.336 A  
HETATM   30  C   UNL     1      -8.259   6.701  73.986  1.00  0.00    -0.135 A  
ENDBRANCH  19  20
ENDBRANCH  13  19
BRANCH  18  31
HETATM   31  C   UNL     1      -7.118   6.916  67.114  1.00  0.00    -0.080 C  
BRANCH  31  32
HETATM   32  C   UNL     1      -7.442   6.619  65.613  1.00  0.00    -0.082 C  
BRANCH  32  33
HETATM   33  N   UNL     1      -8.384   7.587  64.989  1.00  0.00    -0.286 NA 
HETATM   34  H   UNL     1      -8.868   8.122  65.710  1.00  0.00     0.000 HD 
BRANCH  33  35
HETATM   35  C   UNL     1      -7.783   8.490  64.012  1.00  0.00    -0.137 C  
BRANCH  35  36
HETATM   36  C   UNL     1      -8.414   9.888  64.102  1.00  0.00    -0.179 C  
BRANCH  36  37
HETATM   37  C   UNL     1      -9.410  10.174  62.978  1.00  0.00    -0.330 C  
HETATM   38  O   UNL     1     -11.422  11.451  63.338  1.00  0.00    -0.316 OA 
HETATM   39  C   UNL     1     -10.207  11.430  63.213  1.00  0.00    -0.385 C  
HETATM   40  O   UNL     1      -9.459  12.555  63.222  1.00  0.00     0.004 OA 
ENDBRANCH  36  37
ENDBRANCH  35  36
ENDBRANCH  33  35
ENDBRANCH  32  33
BRANCH  32  41
HETATM   41  C   UNL     1      -8.024   5.217  65.407  1.00  0.00    -0.108 A  
HETATM   42  C   UNL     1      -9.793   3.786  64.539  1.00  0.00    -0.190 A  
HETATM   43  C   UNL     1      -7.990   2.808  65.799  1.00  0.00    -0.082 A  
HETATM   44  C   UNL     1      -9.222   5.052  64.695  1.00  0.00     0.025 A  
HETATM   45  C   UNL     1      -7.410   4.071  65.946  1.00  0.00    -0.076 A  
HETATM   46  C   UNL     1      -9.180   2.665  65.093  1.00  0.00    -0.131 A  
ENDBRANCH  32  41
ENDBRANCH  31  32
ENDBRANCH  18  31
ENDBRANCH   6  10
ENDBRANCH   2   3
TORSDOF 11
ENDMDL
MODEL       91
REMARK 921   NORMALIZED FREE ENERGY PREDICTED BY IDOCK:   -4.85 KCAL/MOL
REMARK 922        TOTAL FREE ENERGY PREDICTED BY IDOCK:  -11.02 KCAL/MOL
REMARK 923 INTER-LIGAND FREE ENERGY PREDICTED BY IDOCK:   -8.63 KCAL/MOL
REMARK 924 INTRA-LIGAND FREE ENERGY PREDICTED BY IDOCK:   -2.39 KCAL/MOL
REMARK 927      BINDING AFFINITY PREDICTED BY RF-SCORE:    0.00 PKD
ROOT
HETATM    1  C   UNL     1      -6.011  19.999  69.619  1.00  0.00    -0.335 C  
HETATM    2  O   UNL     1      -6.022  18.580  69.811  1.00  0.00    -0.246 OA 
ENDROOT
BRANCH   2   3
HETATM    3  C   UNL     1      -6.480  17.859  68.740  1.00  0.00    -0.230 A  
HETATM    4  C   UNL     1      -6.702  16.489  68.942  1.00  0.00    -0.179 A  
HETATM    5  F   UNL     1      -6.455  15.951  70.150  1.00  0.00    -0.177 F  
HETATM    6  C   UNL     1      -7.189  15.676  67.910  1.00  0.00    -0.152 A  
HETATM    7  C   UNL     1      -7.426  16.245  66.651  1.00  0.00    -0.238 A  
HETATM    8  C   UNL     1      -6.703  18.409  67.473  1.00  0.00    -0.201 A  
HETATM    9  C   UNL     1      -7.179  17.604  66.437  1.00  0.00    -0.319 A  
BRANCH   6  10
HETATM   10  C   UNL     1      -7.509  14.253  68.151  1.00  0.00    -0.131 C  
HETATM   11  C   UNL     1      -5.152  13.500  67.715  1.00  0.00    -0.036 C  
HETATM   12  C   UNL     1      -6.606  13.251  68.061  1.00  0.00    -0.129 C  
HETATM   13  N   UNL     1      -6.996  11.936  68.342  1.00  0.00    -0.072 N  
HETATM   14  C   UNL     1      -8.203  11.649  68.986  1.00  0.00     0.114 C  
HETATM   15  C   UNL     1      -8.931  13.898  68.442  1.00  0.00    -0.178 C  
HETATM   16  O   UNL     1      -8.394  10.580  69.572  1.00  0.00    -0.144 OA 
HETATM   17  O   UNL     1      -9.828  14.721  68.251  1.00  0.00    -0.211 OA 
HETATM   18  N   UNL     1      -9.167  12.633  68.934  1.00  0.00     0.192 N  
BRANCH  13  19
HETATM   19  C   UNL     1      -6.113  10.785  68.118  1.00  0.00    -0.050 C  
BRANCH  19  20
HETATM   20  C   UNL     1      -6.491   9.819  67.001  1.00  0.00    -0.066 A  
HETATM   21  F   UNL     1      -8.397   7.704  69.056  1.00  0.00    -0.121 F  
HETATM   22  C   UNL     1      -7.127   7.849  68.590  1.00  0.00    -0.076 C  
HETATM   23  C   UNL     1      -7.082   8.555  67.249  1.00  0.00    -0.076 A  
HETATM   24  F   UNL     1      -5.819  11.405  65.353  1.00  0.00    -0.011 F  
HETATM   25  C   UNL     1      -7.679   7.852  66.172  1.00  0.00    -0.091 A  
HETATM   26  C   UNL     1      -6.433  10.257  65.663  1.00  0.00    -0.118 A  
HETATM   27  F   UNL     1      -6.619   6.586  68.502  1.00  0.00    -0.042 F  
HETATM   28  F   UNL     1      -6.427   8.437  69.593  1.00  0.00    -0.035 F  
HETATM   29  C   UNL     1      -6.994   9.533  64.611  1.00  0.00    -0.102 A  
HETATM   30  C   UNL     1      -7.649   8.342  64.870  1.00  0.00    -0.097 A  
ENDBRANCH  19  20
ENDBRANCH  13  19
BRANCH  18  31
HETATM   31  C   UNL     1     -10.519  12.305  69.404  1.00  0.00     0.325 C  
BRANCH  31  32
HETATM   32  C   UNL     1     -11.056  10.904  68.966  1.00  0.00    -0.246 C  
BRANCH  32  33
HETATM   33  N   UNL     1     -12.114  10.956  67.921  1.00  0.00    -0.587 NA 
HETATM   34  H   UNL     1     -13.022  11.141  68.348  1.00  0.00     0.000 HD 
BRANCH  33  35
HETATM   35  C   UNL     1     -11.866  11.903  66.838  1.00  0.00    -0.096 C  
BRANCH  35  36
HETATM   36  C   UNL     1     -10.741  11.398  65.921  1.00  0.00    -0.311 C  
BRANCH  36  37
HETATM   37  C   UNL     1     -11.042  11.594  64.435  1.00  0.00    -0.382 C  
HETATM   38  O   UNL     1     -12.346  13.450  63.622  1.00  0.00    -0.680 OA 
HETATM   39  C   UNL     1     -11.291  13.036  64.078  1.00  0.00    -0.410 C  
HETATM   40  O   UNL     1     -10.216  13.834  64.257  1.00  0.00    -0.322 OA 
ENDBRANCH  36  37
ENDBRANCH  35  36
ENDBRANCH  33  35
ENDBRANCH  32  33
BRANCH  32  41
HETATM   41  C   UNL     1     -11.614  10.098  70.143  1.00  0.00    -0.350 A  
HETATM   42  C   UNL     1     -13.073   9.960  72.088  1.00  0.00    -0.497 A  
HETATM   43  C   UNL     1     -11.632   8.106  71.555  1.00  0.00    -0.315 A  
HETATM   44  C   UNL     1     -12.587  10.662  70.982  1.00  0.00    -0.516 A  
HETATM   45  C   UNL     1     -11.153   8.801  70.441  1.00  0.00    -0.261 A  
HETATM   46  C   UNL     1     -12.593   8.685  72.378  1.00  0.00    -0.426 A  
ENDBRANCH  32  41
ENDBRANCH  31  32
ENDBRANCH  18  31
ENDBRANCH   6  10
ENDBRANCH   2   3
TORSDOF 11
ENDMDL
MODEL       92
REMARK 921   NORMALIZED FREE ENERGY PREDICTED BY IDOCK:   -4.84 KCAL/MOL
REMARK 922        TOTAL FREE ENERGY PREDICTED BY IDOCK:  -11.00 KCAL/MOL
REMARK 923 INTER-LIGAND FREE ENERGY PREDICTED BY IDOCK:   -7.98 KCAL/MOL
REMARK 924 INTRA-LIGAND FREE ENERGY PREDICTED BY IDOCK:   -3.03 KCAL/MOL
REMARK 927      BINDING AFFINITY PREDICTED BY RF-SCORE:    0.00 PKD
ROOT
HETATM    1  C   UNL     1      -9.315  16.042  67.207  1.00  0.00    -0.210 C  
HETATM    2  O   UNL     1      -8.811  14.786  66.743  1.00  0.00    -0.246 OA 
ENDROOT
BRANCH   2   3
HETATM    3  C   UNL     1      -9.771  13.865  66.418  1.00  0.00    -0.297 A  
HETATM    4  C   UNL     1      -9.652  12.590  66.988  1.00  0.00    -0.216 A  
HETATM    5  F   UNL     1      -8.618  12.327  67.807  1.00  0.00    -0.139 F  
HETATM    6  C   UNL     1     -10.599  11.590  66.728  1.00  0.00    -0.289 A  
HETATM    7  C   UNL     1     -11.662  11.870  65.858  1.00  0.00    -0.208 A  
HETATM    8  C   UNL     1     -10.826  14.125  65.536  1.00  0.00    -0.312 A  
HETATM    9  C   UNL     1     -11.768  13.132  65.265  1.00  0.00    -0.375 A  
BRANCH   6  10
HETATM   10  C   UNL     1     -10.521  10.277  67.402  1.00  0.00    -0.303 C  
HETATM   11  C   UNL     1     -11.439  11.170  69.564  1.00  0.00    -0.374 C  
HETATM   12  C   UNL     1     -10.889  10.065  68.686  1.00  0.00    -0.229 C  
HETATM   13  N   UNL     1     -10.812   8.776  69.228  1.00  0.00    -0.140 N  
HETATM   14  C   UNL     1     -10.644   7.648  68.420  1.00  0.00    -0.122 C  
HETATM   15  C   UNL     1      -9.936   9.134  66.637  1.00  0.00    -0.273 C  
HETATM   16  O   UNL     1     -10.948   6.515  68.805  1.00  0.00    -0.282 OA 
HETATM   17  O   UNL     1      -9.329   9.338  65.586  1.00  0.00    -0.217 OA 
HETATM   18  N   UNL     1     -10.124   7.874  67.163  1.00  0.00    -0.229 N  
BRANCH  13  19
HETATM   19  C   UNL     1     -11.048   8.502  70.650  1.00  0.00    -0.252 C  
BRANCH  19  20
HETATM   20  C   UNL     1      -9.851   8.065  71.486  1.00  0.00    -0.217 A  
HETATM   21  F   UNL     1     -11.009   4.788  71.994  1.00  0.00    -0.224 F  
HETATM   22  C   UNL     1     -11.051   6.018  72.576  1.00  0.00    -0.279 C  
HETATM   23  C   UNL     1      -9.836   6.860  72.232  1.00  0.00    -0.163 A  
HETATM   24  F   UNL     1      -8.603   9.959  70.755  1.00  0.00    -0.176 F  
HETATM   25  C   UNL     1      -8.601   6.374  72.730  1.00  0.00    -0.125 A  
HETATM   26  C   UNL     1      -8.640   8.775  71.379  1.00  0.00    -0.194 A  
HETATM   27  F   UNL     1     -11.131   5.790  73.918  1.00  0.00    -0.245 F  
HETATM   28  F   UNL     1     -12.253   6.549  72.240  1.00  0.00    -0.334 F  
HETATM   29  C   UNL     1      -7.440   8.299  71.908  1.00  0.00    -0.118 A  
HETATM   30  C   UNL     1      -7.412   7.078  72.557  1.00  0.00    -0.088 A  
ENDBRANCH  19  20
ENDBRANCH  13  19
BRANCH  18  31
HETATM   31  C   UNL     1      -9.728   6.713  66.357  1.00  0.00    -0.070 C  
BRANCH  31  32
HETATM   32  C   UNL     1      -8.334   6.100  66.710  1.00  0.00    -0.110 C  
BRANCH  32  33
HETATM   33  N   UNL     1      -8.367   5.111  67.822  1.00  0.00    -0.105 NA 
HETATM   34  H   UNL     1      -8.568   5.580  68.704  1.00  0.00     0.000 HD 
BRANCH  33  35
HETATM   35  C   UNL     1      -9.283   3.992  67.625  1.00  0.00    -0.160 C  
BRANCH  35  36
HETATM   36  C   UNL     1      -8.734   3.017  66.573  1.00  0.00    -0.136 C  
BRANCH  36  37
HETATM   37  C   UNL     1      -9.663   2.842  65.371  1.00  0.00     0.136 C  
HETATM   38  O   UNL     1      -9.756   4.447  63.575  1.00  0.00    -0.100 OA 
HETATM   39  C   UNL     1      -9.156   3.544  64.138  1.00  0.00    -0.124 C  
HETATM   40  O   UNL     1      -7.991   3.047  63.670  1.00  0.00    -0.079 OA 
ENDBRANCH  36  37
ENDBRANCH  35  36
ENDBRANCH  33  35
ENDBRANCH  32  33
BRANCH  32  41
HETATM   41  C   UNL     1      -7.302   7.170  67.079  1.00  0.00    -0.089 A  
HETATM   42  C   UNL     1      -5.811   8.971  66.399  1.00  0.00    -0.058 A  
HETATM   43  C   UNL     1      -5.826   8.250  68.697  1.00  0.00    -0.040 A  
HETATM   44  C   UNL     1      -6.789   8.022  66.090  1.00  0.00    -0.058 A  
HETATM   45  C   UNL     1      -6.813   7.308  68.392  1.00  0.00    -0.073 A  
HETATM   46  C   UNL     1      -5.327   9.084  67.700  1.00  0.00    -0.034 A  
ENDBRANCH  32  41
ENDBRANCH  31  32
ENDBRANCH  18  31
ENDBRANCH   6  10
ENDBRANCH   2   3
TORSDOF 11
ENDMDL
MODEL       93
REMARK 921   NORMALIZED FREE ENERGY PREDICTED BY IDOCK:   -4.84 KCAL/MOL
REMARK 922        TOTAL FREE ENERGY PREDICTED BY IDOCK:  -11.00 KCAL/MOL
REMARK 923 INTER-LIGAND FREE ENERGY PREDICTED BY IDOCK:   -8.76 KCAL/MOL
REMARK 924 INTRA-LIGAND FREE ENERGY PREDICTED BY IDOCK:   -2.24 KCAL/MOL
REMARK 927      BINDING AFFINITY PREDICTED BY RF-SCORE:    0.00 PKD
ROOT
HETATM    1  C   UNL     1     -12.212  14.063  68.831  1.00  0.00    -0.226 C  
HETATM    2  O   UNL     1     -11.396  13.745  67.699  1.00  0.00    -0.279 OA 
ENDROOT
BRANCH   2   3
HETATM    3  C   UNL     1     -10.091  13.454  67.996  1.00  0.00    -0.241 A  
HETATM    4  C   UNL     1      -9.718  12.102  67.975  1.00  0.00    -0.203 A  
HETATM    5  F   UNL     1     -10.638  11.168  67.678  1.00  0.00    -0.201 F  
HETATM    6  C   UNL     1      -8.399  11.712  68.245  1.00  0.00    -0.159 A  
HETATM    7  C   UNL     1      -7.453  12.694  68.571  1.00  0.00    -0.121 A  
HETATM    8  C   UNL     1      -9.140  14.421  68.342  1.00  0.00    -0.193 A  
HETATM    9  C   UNL     1      -7.828  14.040  68.622  1.00  0.00    -0.130 A  
BRANCH   6  10
HETATM   10  C   UNL     1      -7.988  10.297  68.132  1.00  0.00    -0.109 C  
HETATM   11  C   UNL     1      -8.902   9.700  70.395  1.00  0.00    -0.227 C  
HETATM   12  C   UNL     1      -8.198   9.371  69.094  1.00  0.00    -0.112 C  
HETATM   13  N   UNL     1      -7.803   8.044  68.881  1.00  0.00    -0.111 N  
HETATM   14  C   UNL     1      -7.460   7.574  67.611  1.00  0.00    -0.104 C  
HETATM   15  C   UNL     1      -7.233   9.886  66.910  1.00  0.00    -0.090 C  
HETATM   16  O   UNL     1      -7.481   6.373  67.329  1.00  0.00    -0.085 OA 
HETATM   17  O   UNL     1      -6.769  10.738  66.151  1.00  0.00    -0.124 OA 
HETATM   18  N   UNL     1      -7.102   8.533  66.686  1.00  0.00    -0.076 N  
BRANCH  13  19
HETATM   19  C   UNL     1      -7.861   7.024  69.935  1.00  0.00    -0.114 C  
BRANCH  19  20
HETATM   20  C   UNL     1      -9.228   6.712  70.532  1.00  0.00    -0.156 A  
HETATM   21  F   UNL     1      -8.577   8.251  73.620  1.00  0.00    -0.272 F  
HETATM   22  C   UNL     1      -8.490   7.035  73.014  1.00  0.00    -0.113 C  
HETATM   23  C   UNL     1      -9.517   6.867  71.910  1.00  0.00    -0.146 A  
HETATM   24  F   UNL     1     -10.095   6.203  68.370  1.00  0.00    -0.130 F  
HETATM   25  C   UNL     1     -10.869   6.853  72.336  1.00  0.00    -0.267 A  
HETATM   26  C   UNL     1     -10.309   6.438  69.670  1.00  0.00    -0.204 A  
HETATM   27  F   UNL     1      -8.672   6.115  74.004  1.00  0.00    -0.118 F  
HETATM   28  F   UNL     1      -7.193   6.896  72.642  1.00  0.00    -0.076 F  
HETATM   29  C   UNL     1     -11.631   6.391  70.115  1.00  0.00    -0.449 A  
HETATM   30  C   UNL     1     -11.916   6.633  71.447  1.00  0.00    -0.405 A  
ENDBRANCH  19  20
ENDBRANCH  13  19
BRANCH  18  31
HETATM   31  C   UNL     1      -6.531   8.086  65.410  1.00  0.00    -0.048 C  
BRANCH  31  32
HETATM   32  C   UNL     1      -7.558   7.911  64.244  1.00  0.00    -0.118 C  
BRANCH  32  33
HETATM   33  N   UNL     1      -8.883   8.538  64.500  1.00  0.00    -0.409 NA 
HETATM   34  H   UNL     1      -9.002   8.718  65.496  1.00  0.00     0.000 HD 
BRANCH  33  35
HETATM   35  C   UNL     1      -9.148   9.753  63.734  1.00  0.00    -0.230 C  
BRANCH  35  36
HETATM   36  C   UNL     1     -10.144  10.657  64.477  1.00  0.00    -0.421 C  
BRANCH  36  37
HETATM   37  C   UNL     1     -10.996  11.513  63.539  1.00  0.00    -0.453 C  
HETATM   38  O   UNL     1     -12.605  13.107  64.363  1.00  0.00    -0.606 OA 
HETATM   39  C   UNL     1     -11.436  12.807  64.173  1.00  0.00    -0.393 C  
HETATM   40  O   UNL     1     -10.416  13.641  64.469  1.00  0.00    -0.430 OA 
ENDBRANCH  36  37
ENDBRANCH  35  36
ENDBRANCH  33  35
ENDBRANCH  32  33
BRANCH  32  41
HETATM   41  C   UNL     1      -7.808   6.439  63.902  1.00  0.00    -0.109 A  
HETATM   42  C   UNL     1      -8.988   4.354  64.338  1.00  0.00    -0.151 A  
HETATM   43  C   UNL     1      -7.262   4.409  62.660  1.00  0.00    -0.040 A  
HETATM   44  C   UNL     1      -8.780   5.710  64.603  1.00  0.00     0.028 A  
HETATM   45  C   UNL     1      -7.060   5.768  62.916  1.00  0.00    -0.049 A  
HETATM   46  C   UNL     1      -8.228   3.702  63.370  1.00  0.00    -0.089 A  
ENDBRANCH  32  41
ENDBRANCH  31  32
ENDBRANCH  18  31
ENDBRANCH   6  10
ENDBRANCH   2   3
TORSDOF 11
ENDMDL
MODEL       94
REMARK 921   NORMALIZED FREE ENERGY PREDICTED BY IDOCK:   -4.82 KCAL/MOL
REMARK 922        TOTAL FREE ENERGY PREDICTED BY IDOCK:  -10.98 KCAL/MOL
REMARK 923 INTER-LIGAND FREE ENERGY PREDICTED BY IDOCK:   -9.40 KCAL/MOL
REMARK 924 INTRA-LIGAND FREE ENERGY PREDICTED BY IDOCK:   -1.58 KCAL/MOL
REMARK 927      BINDING AFFINITY PREDICTED BY RF-SCORE:    0.00 PKD
ROOT
HETATM    1  C   UNL     1     -12.392   6.221  72.334  1.00  0.00    -0.024 C  
HETATM    2  O   UNL     1     -13.206   6.978  71.433  1.00  0.00    -0.365 OA 
ENDROOT
BRANCH   2   3
HETATM    3  C   UNL     1     -12.879   8.305  71.339  1.00  0.00    -0.247 A  
HETATM    4  C   UNL     1     -11.771   8.635  70.546  1.00  0.00    -0.081 A  
HETATM    5  F   UNL     1     -11.086   7.655  69.929  1.00  0.00    -0.252 F  
HETATM    6  C   UNL     1     -11.375   9.968  70.375  1.00  0.00    -0.392 A  
HETATM    7  C   UNL     1     -12.086  10.978  71.038  1.00  0.00    -0.406 A  
HETATM    8  C   UNL     1     -13.568   9.322  72.010  1.00  0.00    -0.519 A  
HETATM    9  C   UNL     1     -13.174  10.651  71.853  1.00  0.00    -0.528 A  
BRANCH   6  10
HETATM   10  C   UNL     1     -10.265  10.320  69.465  1.00  0.00    -0.261 C  
HETATM   11  C   UNL     1     -11.804  11.261  67.717  1.00  0.00    -0.164 C  
HETATM   12  C   UNL     1     -10.435  10.898  68.256  1.00  0.00    -0.179 C  
HETATM   13  N   UNL     1      -9.317  11.227  67.478  1.00  0.00    -0.161 N  
HETATM   14  C   UNL     1      -8.027  11.246  68.016  1.00  0.00    -0.119 C  
HETATM   15  C   UNL     1      -8.879   9.949  69.882  1.00  0.00    -0.195 C  
HETATM   16  O   UNL     1      -7.107  11.878  67.490  1.00  0.00    -0.102 OA 
HETATM   17  O   UNL     1      -8.700   9.174  70.823  1.00  0.00    -0.205 OA 
HETATM   18  N   UNL     1      -7.843  10.521  69.175  1.00  0.00    -0.128 N  
BRANCH  13  19
HETATM   19  C   UNL     1      -9.431  11.715  66.098  1.00  0.00    -0.224 C  
BRANCH  19  20
HETATM   20  C   UNL     1      -9.981  13.122  65.897  1.00  0.00    -0.275 A  
HETATM   21  F   UNL     1     -12.972  12.069  64.387  1.00  0.00    -0.504 F  
HETATM   22  C   UNL     1     -11.706  12.445  64.058  1.00  0.00    -0.420 C  
HETATM   23  C   UNL     1     -11.104  13.395  65.076  1.00  0.00    -0.332 A  
HETATM   24  F   UNL     1      -8.383  14.006  67.428  1.00  0.00    -0.151 F  
HETATM   25  C   UNL     1     -11.738  14.659  65.177  1.00  0.00    -0.364 A  
HETATM   26  C   UNL     1      -9.487  14.175  66.691  1.00  0.00    -0.289 A  
HETATM   27  F   UNL     1     -11.802  13.032  62.830  1.00  0.00    -0.540 F  
HETATM   28  F   UNL     1     -11.019  11.296  63.842  1.00  0.00    -0.409 F  
HETATM   29  C   UNL     1     -10.103  15.425  66.748  1.00  0.00    -0.266 A  
HETATM   30  C   UNL     1     -11.253  15.659  66.014  1.00  0.00    -0.045 A  
ENDBRANCH  19  20
ENDBRANCH  13  19
BRANCH  18  31
HETATM   31  C   UNL     1      -6.472  10.331  69.663  1.00  0.00    -0.069 C  
BRANCH  31  32
HETATM   32  C   UNL     1      -5.923   8.871  69.558  1.00  0.00    -0.036 C  
BRANCH  32  33
HETATM   33  N   UNL     1      -6.756   7.965  68.721  1.00  0.00    -0.056 NA 
HETATM   34  H   UNL     1      -7.743   8.083  68.948  1.00  0.00     0.000 HD 
BRANCH  33  35
HETATM   35  C   UNL     1      -6.553   8.096  67.281  1.00  0.00    -0.058 C  
BRANCH  35  36
HETATM   36  C   UNL     1      -7.697   7.424  66.507  1.00  0.00    -0.093 C  
BRANCH  36  37
HETATM   37  C   UNL     1      -9.047   7.526  67.217  1.00  0.00    -0.137 C  
HETATM   38  O   UNL     1     -10.840   5.971  66.797  1.00  0.00    -0.315 OA 
HETATM   39  C   UNL     1      -9.755   6.200  67.311  1.00  0.00    -0.128 C  
HETATM   40  O   UNL     1      -9.106   5.289  68.067  1.00  0.00    -0.109 OA 
ENDBRANCH  36  37
ENDBRANCH  35  36
ENDBRANCH  33  35
ENDBRANCH  32  33
BRANCH  32  41
HETATM   41  C   UNL     1      -5.764   8.206  70.929  1.00  0.00    -0.033 A  
HETATM   42  C   UNL     1      -5.996   6.242  72.350  1.00  0.00    -0.038 A  
HETATM   43  C   UNL     1      -5.247   8.318  73.313  1.00  0.00    -0.044 A  
HETATM   44  C   UNL     1      -6.089   6.852  71.096  1.00  0.00    -0.036 A  
HETATM   45  C   UNL     1      -5.328   8.927  72.058  1.00  0.00    -0.053 A  
HETATM   46  C   UNL     1      -5.579   6.974  73.459  1.00  0.00    -0.046 A  
ENDBRANCH  32  41
ENDBRANCH  31  32
ENDBRANCH  18  31
ENDBRANCH   6  10
ENDBRANCH   2   3
TORSDOF 11
ENDMDL
MODEL       95
REMARK 921   NORMALIZED FREE ENERGY PREDICTED BY IDOCK:   -4.82 KCAL/MOL
REMARK 922        TOTAL FREE ENERGY PREDICTED BY IDOCK:  -10.97 KCAL/MOL
REMARK 923 INTER-LIGAND FREE ENERGY PREDICTED BY IDOCK:   -9.08 KCAL/MOL
REMARK 924 INTRA-LIGAND FREE ENERGY PREDICTED BY IDOCK:   -1.89 KCAL/MOL
REMARK 927      BINDING AFFINITY PREDICTED BY RF-SCORE:    0.00 PKD
ROOT
HETATM    1  C   UNL     1      -6.090  19.131  67.077  1.00  0.00    -0.174 C  
HETATM    2  O   UNL     1      -5.420  17.867  67.028  1.00  0.00    -0.128 OA 
ENDROOT
BRANCH   2   3
HETATM    3  C   UNL     1      -5.763  16.995  68.027  1.00  0.00    -0.120 A  
HETATM    4  C   UNL     1      -6.822  16.113  67.768  1.00  0.00    -0.145 A  
HETATM    5  F   UNL     1      -7.446  16.162  66.578  1.00  0.00    -0.257 F  
HETATM    6  C   UNL     1      -7.229  15.172  68.724  1.00  0.00    -0.127 A  
HETATM    7  C   UNL     1      -6.582  15.142  69.967  1.00  0.00    -0.146 A  
HETATM    8  C   UNL     1      -5.139  16.967  69.280  1.00  0.00    -0.133 A  
HETATM    9  C   UNL     1      -5.546  16.040  70.240  1.00  0.00    -0.160 A  
BRANCH   6  10
HETATM   10  C   UNL     1      -8.282  14.182  68.414  1.00  0.00    -0.149 C  
HETATM   11  C   UNL     1     -10.144  15.783  68.945  1.00  0.00    -0.222 C  
HETATM   12  C   UNL     1      -9.607  14.434  68.514  1.00  0.00    -0.217 C  
HETATM   13  N   UNL     1     -10.532  13.442  68.165  1.00  0.00    -0.238 N  
HETATM   14  C   UNL     1     -10.153  12.303  67.449  1.00  0.00    -0.200 C  
HETATM   15  C   UNL     1      -7.852  12.802  68.037  1.00  0.00    -0.150 C  
HETATM   16  O   UNL     1     -10.968  11.628  66.814  1.00  0.00    -0.264 OA 
HETATM   17  O   UNL     1      -6.686  12.446  68.210  1.00  0.00    -0.060 OA 
HETATM   18  N   UNL     1      -8.813  11.981  67.486  1.00  0.00    -0.165 N  
BRANCH  13  19
HETATM   19  C   UNL     1     -11.974  13.592  68.393  1.00  0.00    -0.343 C  
BRANCH  19  20
HETATM   20  C   UNL     1     -12.463  13.549  69.836  1.00  0.00    -0.194 A  
HETATM   21  F   UNL     1     -11.096  10.390  70.530  1.00  0.00    -0.332 F  
HETATM   22  C   UNL     1     -12.249  10.960  70.086  1.00  0.00    -0.343 C  
HETATM   23  C   UNL     1     -12.438  12.368  70.618  1.00  0.00    -0.320 A  
HETATM   24  F   UNL     1     -12.896  15.892  69.797  1.00  0.00    -0.238 F  
HETATM   25  C   UNL     1     -12.617  12.468  72.021  1.00  0.00     0.056 A  
HETATM   26  C   UNL     1     -12.779  14.754  70.492  1.00  0.00    -0.343 A  
HETATM   27  F   UNL     1     -13.253  10.135  70.502  1.00  0.00    -0.393 F  
HETATM   28  F   UNL     1     -12.232  10.834  68.736  1.00  0.00    -0.354 F  
HETATM   29  C   UNL     1     -12.989  14.828  71.869  1.00  0.00    -0.405 A  
HETATM   30  C   UNL     1     -12.874  13.686  72.643  1.00  0.00    -0.249 A  
ENDBRANCH  19  20
ENDBRANCH  13  19
BRANCH  18  31
HETATM   31  C   UNL     1      -8.395  10.687  66.934  1.00  0.00    -0.125 C  
BRANCH  31  32
HETATM   32  C   UNL     1      -8.342   9.509  67.961  1.00  0.00    -0.118 C  
BRANCH  32  33
HETATM   33  N   UNL     1      -6.965   9.105  68.355  1.00  0.00    -0.067 NA 
HETATM   34  H   UNL     1      -6.283   9.762  67.977  1.00  0.00     0.000 HD 
BRANCH  33  35
HETATM   35  C   UNL     1      -6.759   8.936  69.790  1.00  0.00    -0.045 C  
BRANCH  35  36
HETATM   36  C   UNL     1      -8.024   8.376  70.459  1.00  0.00    -0.098 C  
BRANCH  36  37
HETATM   37  C   UNL     1      -8.023   8.537  71.980  1.00  0.00    -0.160 C  
HETATM   38  O   UNL     1      -9.895   7.868  73.343  1.00  0.00    -0.304 OA 
HETATM   39  C   UNL     1      -8.928   7.549  72.669  1.00  0.00    -0.144 C  
HETATM   40  O   UNL     1      -8.541   6.264  72.520  1.00  0.00    -0.121 OA 
ENDBRANCH  36  37
ENDBRANCH  35  36
ENDBRANCH  33  35
ENDBRANCH  32  33
BRANCH  32  41
HETATM   41  C   UNL     1      -9.058   8.255  67.450  1.00  0.00    -0.155 A  
HETATM   42  C   UNL     1     -11.011   6.801  67.463  1.00  0.00    -0.375 A  
HETATM   43  C   UNL     1      -9.080   6.177  66.167  1.00  0.00    -0.158 A  
HETATM   44  C   UNL     1     -10.361   7.965  67.881  1.00  0.00    -0.281 A  
HETATM   45  C   UNL     1      -8.432   7.347  66.575  1.00  0.00    -0.128 A  
HETATM   46  C   UNL     1     -10.371   5.905  66.610  1.00  0.00    -0.283 A  
ENDBRANCH  32  41
ENDBRANCH  31  32
ENDBRANCH  18  31
ENDBRANCH   6  10
ENDBRANCH   2   3
TORSDOF 11
ENDMDL
MODEL       96
REMARK 921   NORMALIZED FREE ENERGY PREDICTED BY IDOCK:   -4.79 KCAL/MOL
REMARK 922        TOTAL FREE ENERGY PREDICTED BY IDOCK:  -10.92 KCAL/MOL
REMARK 923 INTER-LIGAND FREE ENERGY PREDICTED BY IDOCK:   -9.00 KCAL/MOL
REMARK 924 INTRA-LIGAND FREE ENERGY PREDICTED BY IDOCK:   -1.92 KCAL/MOL
REMARK 927      BINDING AFFINITY PREDICTED BY RF-SCORE:    0.00 PKD
ROOT
HETATM    1  C   UNL     1     -10.494   3.307  63.089  1.00  0.00    -0.211 C  
HETATM    2  O   UNL     1      -9.727   3.374  64.295  1.00  0.00    -0.148 OA 
ENDROOT
BRANCH   2   3
HETATM    3  C   UNL     1      -9.034   4.542  64.471  1.00  0.00    -0.152 A  
HETATM    4  C   UNL     1      -9.288   5.264  65.646  1.00  0.00    -0.114 A  
HETATM    5  F   UNL     1     -10.187   4.794  66.529  1.00  0.00    -0.193 F  
HETATM    6  C   UNL     1      -8.611   6.460  65.920  1.00  0.00    -0.151 A  
HETATM    7  C   UNL     1      -7.689   6.949  64.984  1.00  0.00    -0.112 A  
HETATM    8  C   UNL     1      -8.126   5.052  63.537  1.00  0.00    -0.105 A  
HETATM    9  C   UNL     1      -7.454   6.247  63.798  1.00  0.00    -0.080 A  
BRANCH   6  10
HETATM   10  C   UNL     1      -8.812   7.171  67.201  1.00  0.00    -0.121 C  
HETATM   11  C   UNL     1      -7.364   5.568  68.484  1.00  0.00    -0.076 C  
HETATM   12  C   UNL     1      -8.265   6.782  68.374  1.00  0.00    -0.119 C  
HETATM   13  N   UNL     1      -8.485   7.541  69.530  1.00  0.00    -0.132 N  
HETATM   14  C   UNL     1      -9.009   8.835  69.471  1.00  0.00    -0.145 C  
HETATM   15  C   UNL     1      -9.733   8.348  67.206  1.00  0.00    -0.184 C  
HETATM   16  O   UNL     1      -8.861   9.644  70.391  1.00  0.00    -0.235 OA 
HETATM   17  O   UNL     1     -10.471   8.563  66.245  1.00  0.00    -0.089 OA 
HETATM   18  N   UNL     1      -9.696   9.159  68.320  1.00  0.00    -0.151 N  
BRANCH  13  19
HETATM   19  C   UNL     1      -8.051   7.098  70.860  1.00  0.00    -0.111 C  
BRANCH  19  20
HETATM   20  C   UNL     1      -8.493   5.712  71.315  1.00  0.00    -0.128 A  
HETATM   21  F   UNL     1     -11.647   5.875  69.778  1.00  0.00    -0.459 F  
HETATM   22  C   UNL     1     -11.043   6.145  70.967  1.00  0.00    -0.297 C  
HETATM   23  C   UNL     1      -9.834   5.264  71.214  1.00  0.00    -0.232 A  
HETATM   24  F   UNL     1      -6.247   5.135  71.864  1.00  0.00    -0.025 F  
HETATM   25  C   UNL     1     -10.111   3.882  71.367  1.00  0.00    -0.124 A  
HETATM   26  C   UNL     1      -7.518   4.762  71.676  1.00  0.00    -0.071 A  
HETATM   27  F   UNL     1     -12.000   5.950  71.920  1.00  0.00    -0.337 F  
HETATM   28  F   UNL     1     -10.813   7.482  70.973  1.00  0.00    -0.227 F  
HETATM   29  C   UNL     1      -7.816   3.411  71.859  1.00  0.00    -0.058 A  
HETATM   30  C   UNL     1      -9.112   2.962  71.671  1.00  0.00    -0.163 A  
ENDBRANCH  19  20
ENDBRANCH  13  19
BRANCH  18  31
HETATM   31  C   UNL     1     -10.445  10.422  68.291  1.00  0.00    -0.191 C  
BRANCH  31  32
HETATM   32  C   UNL     1      -9.709  11.618  67.605  1.00  0.00    -0.180 C  
BRANCH  32  33
HETATM   33  N   UNL     1      -9.433  12.765  68.511  1.00  0.00    -0.381 NA 
HETATM   34  H   UNL     1      -9.869  12.610  69.419  1.00  0.00     0.000 HD 
BRANCH  33  35
HETATM   35  C   UNL     1      -8.020  13.091  68.681  1.00  0.00    -0.027 C  
BRANCH  35  36
HETATM   36  C   UNL     1      -7.665  14.384  67.929  1.00  0.00    -0.152 C  
BRANCH  36  37
HETATM   37  C   UNL     1      -8.891  15.218  67.555  1.00  0.00    -0.188 C  
HETATM   38  O   UNL     1      -9.754  16.949  68.993  1.00  0.00    -0.260 OA 
HETATM   39  C   UNL     1      -8.893  16.574  68.212  1.00  0.00    -0.210 C  
HETATM   40  O   UNL     1      -7.876  17.370  67.817  1.00  0.00    -0.194 OA 
ENDBRANCH  36  37
ENDBRANCH  35  36
ENDBRANCH  33  35
ENDBRANCH  32  33
BRANCH  32  41
HETATM   41  C   UNL     1     -10.480  12.164  66.399  1.00  0.00    -0.261 A  
HETATM   42  C   UNL     1     -10.592  12.615  64.008  1.00  0.00    -0.457 A  
HETATM   43  C   UNL     1     -12.392  13.337  65.435  1.00  0.00    -0.528 A  
HETATM   44  C   UNL     1      -9.925  12.079  65.113  1.00  0.00    -0.265 A  
HETATM   45  C   UNL     1     -11.732  12.791  66.540  1.00  0.00    -0.463 A  
HETATM   46  C   UNL     1     -11.823  13.247  64.168  1.00  0.00    -0.497 A  
ENDBRANCH  32  41
ENDBRANCH  31  32
ENDBRANCH  18  31
ENDBRANCH   6  10
ENDBRANCH   2   3
TORSDOF 11
ENDMDL
MODEL       97
REMARK 921   NORMALIZED FREE ENERGY PREDICTED BY IDOCK:   -4.69 KCAL/MOL
REMARK 922        TOTAL FREE ENERGY PREDICTED BY IDOCK:  -10.76 KCAL/MOL
REMARK 923 INTER-LIGAND FREE ENERGY PREDICTED BY IDOCK:   -8.45 KCAL/MOL
REMARK 924 INTRA-LIGAND FREE ENERGY PREDICTED BY IDOCK:   -2.31 KCAL/MOL
REMARK 927      BINDING AFFINITY PREDICTED BY RF-SCORE:    0.00 PKD
ROOT
HETATM    1  C   UNL     1     -12.360   5.955  72.432  1.00  0.00     0.096 C  
HETATM    2  O   UNL     1     -12.782   6.624  71.239  1.00  0.00    -0.290 OA 
ENDROOT
BRANCH   2   3
HETATM    3  C   UNL     1     -12.635   7.986  71.260  1.00  0.00    -0.239 A  
HETATM    4  C   UNL     1     -11.573   8.524  70.519  1.00  0.00    -0.132 A  
HETATM    5  F   UNL     1     -10.758   7.699  69.839  1.00  0.00    -0.231 F  
HETATM    6  C   UNL     1     -11.358   9.908  70.466  1.00  0.00    -0.399 A  
HETATM    7  C   UNL     1     -12.204  10.756  71.194  1.00  0.00    -0.457 A  
HETATM    8  C   UNL     1     -13.460   8.843  71.997  1.00  0.00    -0.482 A  
HETATM    9  C   UNL     1     -13.246  10.221  71.957  1.00  0.00    -0.516 A  
BRANCH   6  10
HETATM   10  C   UNL     1     -10.295  10.478  69.611  1.00  0.00    -0.231 C  
HETATM   11  C   UNL     1     -11.934  11.458  67.979  1.00  0.00    -0.162 C  
HETATM   12  C   UNL     1     -10.532  11.177  68.479  1.00  0.00    -0.191 C  
HETATM   13  N   UNL     1      -9.459  11.709  67.753  1.00  0.00    -0.173 N  
HETATM   14  C   UNL     1      -8.175  11.796  68.296  1.00  0.00    -0.157 C  
HETATM   15  C   UNL     1      -8.876  10.205  69.989  1.00  0.00     0.033 C  
HETATM   16  O   UNL     1      -7.328  12.578  67.855  1.00  0.00    -0.093 OA 
HETATM   17  O   UNL     1      -8.612   9.346  70.831  1.00  0.00    -0.233 OA 
HETATM   18  N   UNL     1      -7.909  10.961  69.361  1.00  0.00    -0.093 N  
BRANCH  13  19
HETATM   19  C   UNL     1      -9.631  12.344  66.440  1.00  0.00    -0.246 C  
BRANCH  19  20
HETATM   20  C   UNL     1      -9.738  11.426  65.228  1.00  0.00    -0.276 A  
HETATM   21  F   UNL     1     -11.821  13.578  63.394  1.00  0.00    -0.464 F  
HETATM   22  C   UNL     1     -11.896  12.540  64.270  1.00  0.00    -0.395 C  
HETATM   23  C   UNL     1     -10.684  11.631  64.193  1.00  0.00    -0.418 A  
HETATM   24  F   UNL     1      -7.874  10.148  65.986  1.00  0.00    -0.105 F  
HETATM   25  C   UNL     1     -10.526  10.933  62.969  1.00  0.00     0.034 A  
HETATM   26  C   UNL     1      -8.749  10.445  65.018  1.00  0.00    -0.182 A  
HETATM   27  F   UNL     1     -13.039  11.867  63.951  1.00  0.00    -0.565 F  
HETATM   28  F   UNL     1     -12.144  13.092  65.484  1.00  0.00    -0.371 F  
HETATM   29  C   UNL     1      -8.632   9.741  63.819  1.00  0.00    -0.208 A  
HETATM   30  C   UNL     1      -9.503  10.009  62.777  1.00  0.00    -0.228 A  
ENDBRANCH  19  20
ENDBRANCH  13  19
BRANCH  18  31
HETATM   31  C   UNL     1      -6.523  10.856  69.831  1.00  0.00    -0.144 C  
BRANCH  31  32
HETATM   32  C   UNL     1      -5.777   9.545  69.419  1.00  0.00    -0.034 C  
BRANCH  32  33
HETATM   33  N   UNL     1      -6.455   8.768  68.346  1.00  0.00    -0.055 NA 
HETATM   34  H   UNL     1      -7.269   9.278  68.003  1.00  0.00     0.000 HD 
BRANCH  33  35
HETATM   35  C   UNL     1      -5.598   8.380  67.230  1.00  0.00    -0.038 C  
BRANCH  35  36
HETATM   36  C   UNL     1      -6.258   7.269  66.398  1.00  0.00    -0.040 C  
BRANCH  36  37
HETATM   37  C   UNL     1      -7.433   6.599  67.112  1.00  0.00    -0.088 C  
HETATM   38  O   UNL     1      -9.722   7.206  66.664  1.00  0.00    -0.182 OA 
HETATM   39  C   UNL     1      -8.702   6.638  66.302  1.00  0.00    -0.145 C  
HETATM   40  O   UNL     1      -8.634   5.937  65.150  1.00  0.00    -0.149 OA 
ENDBRANCH  36  37
ENDBRANCH  35  36
ENDBRANCH  33  35
ENDBRANCH  32  33
BRANCH  32  41
HETATM   41  C   UNL     1      -5.564   8.597  70.604  1.00  0.00    -0.027 A  
HETATM   42  C   UNL     1      -5.567   6.336  71.509  1.00  0.00    -0.027 A  
HETATM   43  C   UNL     1      -5.129   8.197  72.973  1.00  0.00    -0.037 A  
HETATM   44  C   UNL     1      -5.709   7.212  70.430  1.00  0.00    -0.024 A  
HETATM   45  C   UNL     1      -5.259   9.075  71.892  1.00  0.00    -0.050 A  
HETATM   46  C   UNL     1      -5.281   6.828  72.781  1.00  0.00    -0.037 A  
ENDBRANCH  32  41
ENDBRANCH  31  32
ENDBRANCH  18  31
ENDBRANCH   6  10
ENDBRANCH   2   3
TORSDOF 11
ENDMDL
MODEL       98
REMARK 921   NORMALIZED FREE ENERGY PREDICTED BY IDOCK:   -4.69 KCAL/MOL
REMARK 922        TOTAL FREE ENERGY PREDICTED BY IDOCK:  -10.76 KCAL/MOL
REMARK 923 INTER-LIGAND FREE ENERGY PREDICTED BY IDOCK:   -8.53 KCAL/MOL
REMARK 924 INTRA-LIGAND FREE ENERGY PREDICTED BY IDOCK:   -2.23 KCAL/MOL
REMARK 927      BINDING AFFINITY PREDICTED BY RF-SCORE:    0.00 PKD
ROOT
HETATM    1  C   UNL     1     -14.052   7.682  71.512  1.00  0.00    -0.421 C  
HETATM    2  O   UNL     1     -12.904   6.960  71.055  1.00  0.00    -0.333 OA 
ENDROOT
BRANCH   2   3
HETATM    3  C   UNL     1     -11.703   7.565  71.315  1.00  0.00    -0.287 A  
HETATM    4  C   UNL     1     -10.980   8.049  70.216  1.00  0.00    -0.242 A  
HETATM    5  F   UNL     1     -11.481   7.896  68.977  1.00  0.00     0.157 F  
HETATM    6  C   UNL     1      -9.751   8.700  70.388  1.00  0.00    -0.200 A  
HETATM    7  C   UNL     1      -9.230   8.837  71.682  1.00  0.00    -0.333 A  
HETATM    8  C   UNL     1     -11.162   7.692  72.600  1.00  0.00    -0.419 A  
HETATM    9  C   UNL     1      -9.934   8.330  72.779  1.00  0.00    -0.333 A  
BRANCH   6  10
HETATM   10  C   UNL     1      -9.036   9.289  69.237  1.00  0.00    -0.147 C  
HETATM   11  C   UNL     1     -10.421  11.385  69.265  1.00  0.00    -0.104 C  
HETATM   12  C   UNL     1      -9.326  10.499  68.707  1.00  0.00    -0.180 C  
HETATM   13  N   UNL     1      -8.568  10.989  67.636  1.00  0.00    -0.124 N  
HETATM   14  C   UNL     1      -7.347  10.414  67.275  1.00  0.00    -0.090 C  
HETATM   15  C   UNL     1      -7.977   8.466  68.578  1.00  0.00    -0.121 C  
HETATM   16  O   UNL     1      -6.502  11.028  66.618  1.00  0.00    -0.106 OA 
HETATM   17  O   UNL     1      -7.876   7.266  68.834  1.00  0.00    -0.113 OA 
HETATM   18  N   UNL     1      -7.137   9.120  67.702  1.00  0.00    -0.082 N  
BRANCH  13  19
HETATM   19  C   UNL     1      -8.922  12.219  66.917  1.00  0.00    -0.207 C  
BRANCH  19  20
HETATM   20  C   UNL     1     -10.056  12.135  65.902  1.00  0.00    -0.270 A  
HETATM   21  F   UNL     1     -10.992  15.506  66.204  1.00  0.00    -0.319 F  
HETATM   22  C   UNL     1     -11.282  14.285  66.730  1.00  0.00    -0.332 C  
HETATM   23  C   UNL     1     -11.024  13.158  65.748  1.00  0.00    -0.295 A  
HETATM   24  F   UNL     1      -9.214  10.062  65.079  1.00  0.00    -0.187 F  
HETATM   25  C   UNL     1     -11.852  13.154  64.598  1.00  0.00    -0.417 A  
HETATM   26  C   UNL     1     -10.050  11.099  64.948  1.00  0.00    -0.289 A  
HETATM   27  F   UNL     1     -12.598  14.340  67.086  1.00  0.00    -0.377 F  
HETATM   28  F   UNL     1     -10.606  14.214  67.904  1.00  0.00    -0.234 F  
HETATM   29  C   UNL     1     -10.900  11.093  63.841  1.00  0.00    -0.346 A  
HETATM   30  C   UNL     1     -11.782  12.141  63.646  1.00  0.00    -0.588 A  
ENDBRANCH  19  20
ENDBRANCH  13  19
BRANCH  18  31
HETATM   31  C   UNL     1      -5.974   8.396  67.175  1.00  0.00    -0.054 C  
BRANCH  31  32
HETATM   32  C   UNL     1      -6.222   7.611  65.846  1.00  0.00    -0.042 C  
BRANCH  32  33
HETATM   33  N   UNL     1      -7.625   7.676  65.353  1.00  0.00    -0.088 NA 
HETATM   34  H   UNL     1      -7.657   8.131  64.440  1.00  0.00     0.000 HD 
BRANCH  33  35
HETATM   35  C   UNL     1      -8.321   6.394  65.301  1.00  0.00    -0.131 C  
BRANCH  35  36
HETATM   36  C   UNL     1      -9.567   6.415  66.199  1.00  0.00    -0.042 C  
BRANCH  36  37
HETATM   37  C   UNL     1     -10.220   5.042  66.357  1.00  0.00    -0.307 C  
HETATM   38  O   UNL     1      -9.147   3.238  67.542  1.00  0.00    -0.141 OA 
HETATM   39  C   UNL     1      -9.738   4.306  67.580  1.00  0.00    -0.134 C  
HETATM   40  O   UNL     1     -10.067   4.911  68.742  1.00  0.00    -0.161 OA 
ENDBRANCH  36  37
ENDBRANCH  35  36
ENDBRANCH  33  35
ENDBRANCH  32  33
BRANCH  32  41
HETATM   41  C   UNL     1      -5.847   6.131  65.962  1.00  0.00    -0.024 A  
HETATM   42  C   UNL     1      -5.199   4.040  64.894  1.00  0.00    -0.009 A  
HETATM   43  C   UNL     1      -5.588   4.086  67.270  1.00  0.00    -0.021 A  
HETATM   44  C   UNL     1      -5.497   5.403  64.814  1.00  0.00    -0.013 A  
HETATM   45  C   UNL     1      -5.875   5.451  67.195  1.00  0.00    -0.018 A  
HETATM   46  C   UNL     1      -5.248   3.380  66.120  1.00  0.00    -0.009 A  
ENDBRANCH  32  41
ENDBRANCH  31  32
ENDBRANCH  18  31
ENDBRANCH   6  10
ENDBRANCH   2   3
TORSDOF 11
ENDMDL
MODEL       99
REMARK 921   NORMALIZED FREE ENERGY PREDICTED BY IDOCK:   -4.66 KCAL/MOL
REMARK 922        TOTAL FREE ENERGY PREDICTED BY IDOCK:  -10.71 KCAL/MOL
REMARK 923 INTER-LIGAND FREE ENERGY PREDICTED BY IDOCK:   -8.14 KCAL/MOL
REMARK 924 INTRA-LIGAND FREE ENERGY PREDICTED BY IDOCK:   -2.57 KCAL/MOL
REMARK 927      BINDING AFFINITY PREDICTED BY RF-SCORE:    0.00 PKD
ROOT
HETATM    1  C   UNL     1     -10.425   5.836  74.008  1.00  0.00    -0.266 C  
HETATM    2  O   UNL     1      -9.505   6.622  73.244  1.00  0.00    -0.137 OA 
ENDROOT
BRANCH   2   3
HETATM    3  C   UNL     1     -10.086   7.525  72.395  1.00  0.00    -0.203 A  
HETATM    4  C   UNL     1      -9.420   7.790  71.190  1.00  0.00    -0.154 A  
HETATM    5  F   UNL     1      -8.259   7.163  70.927  1.00  0.00    -0.109 F  
HETATM    6  C   UNL     1      -9.950   8.684  70.252  1.00  0.00    -0.204 A  
HETATM    7  C   UNL     1     -11.152   9.344  70.546  1.00  0.00    -0.330 A  
HETATM    8  C   UNL     1     -11.275   8.206  72.684  1.00  0.00    -0.447 A  
HETATM    9  C   UNL     1     -11.805   9.106  71.759  1.00  0.00    -0.453 A  
BRANCH   6  10
HETATM   10  C   UNL     1      -9.294   8.891  68.944  1.00  0.00    -0.140 C  
HETATM   11  C   UNL     1     -10.334   6.839  67.934  1.00  0.00    -0.236 C  
HETATM   12  C   UNL     1      -9.446   8.066  67.884  1.00  0.00    -0.145 C  
HETATM   13  N   UNL     1      -8.810   8.364  66.673  1.00  0.00    -0.135 N  
HETATM   14  C   UNL     1      -8.256   9.623  66.424  1.00  0.00    -0.119 C  
HETATM   15  C   UNL     1      -8.351  10.043  68.812  1.00  0.00    -0.121 C  
HETATM   16  O   UNL     1      -8.041  10.030  65.279  1.00  0.00    -0.133 OA 
HETATM   17  O   UNL     1      -7.960  10.643  69.814  1.00  0.00    -0.083 OA 
HETATM   18  N   UNL     1      -7.968  10.389  67.534  1.00  0.00    -0.106 N  
BRANCH  13  19
HETATM   19  C   UNL     1      -8.808   7.439  65.533  1.00  0.00     0.035 C  
BRANCH  19  20
HETATM   20  C   UNL     1      -7.827   6.273  65.581  1.00  0.00    -0.098 A  
HETATM   21  F   UNL     1      -9.835   4.104  63.685  1.00  0.00    -0.154 F  
HETATM   22  C   UNL     1      -9.593   4.447  64.979  1.00  0.00    -0.170 C  
HETATM   23  C   UNL     1      -8.180   4.959  65.185  1.00  0.00    -0.124 A  
HETATM   24  F   UNL     1      -6.079   7.725  66.299  1.00  0.00    -0.040 F  
HETATM   25  C   UNL     1      -7.152   4.007  64.967  1.00  0.00    -0.062 A  
HETATM   26  C   UNL     1      -6.467   6.527  65.847  1.00  0.00    -0.043 A  
HETATM   27  F   UNL     1      -9.822   3.319  65.710  1.00  0.00    -0.126 F  
HETATM   28  F   UNL     1     -10.588   5.299  65.332  1.00  0.00    -0.015 F  
HETATM   29  C   UNL     1      -5.473   5.566  65.662  1.00  0.00    -0.013 A  
HETATM   30  C   UNL     1      -5.812   4.311  65.189  1.00  0.00    -0.022 A  
ENDBRANCH  19  20
ENDBRANCH  13  19
BRANCH  18  31
HETATM   31  C   UNL     1      -7.194  11.622  67.344  1.00  0.00    -0.128 C  
BRANCH  31  32
HETATM   32  C   UNL     1      -8.012  12.948  67.464  1.00  0.00    -0.178 C  
BRANCH  32  33
HETATM   33  N   UNL     1      -8.153  13.454  68.857  1.00  0.00    -0.346 NA 
HETATM   34  H   UNL     1      -7.363  13.150  69.424  1.00  0.00     0.000 HD 
BRANCH  33  35
HETATM   35  C   UNL     1      -8.332  14.898  68.974  1.00  0.00    -0.175 C  
BRANCH  35  36
HETATM   36  C   UNL     1      -7.391  15.641  68.014  1.00  0.00    -0.137 C  
BRANCH  36  37
HETATM   37  C   UNL     1      -8.117  16.638  67.109  1.00  0.00    -0.211 C  
HETATM   38  O   UNL     1     -10.119  17.783  67.808  1.00  0.00    -0.312 OA 
HETATM   39  C   UNL     1      -8.906  17.659  67.886  1.00  0.00    -0.246 C  
HETATM   40  O   UNL     1      -8.142  18.472  68.647  1.00  0.00    -0.321 OA 
ENDBRANCH  36  37
ENDBRANCH  35  36
ENDBRANCH  33  35
ENDBRANCH  32  33
BRANCH  32  41
HETATM   41  C   UNL     1      -9.422  12.821  66.879  1.00  0.00    -0.235 A  
HETATM   42  C   UNL     1     -11.774  12.265  67.174  1.00  0.00    -0.396 A  
HETATM   43  C   UNL     1     -10.965  12.865  64.987  1.00  0.00    -0.324 A  
HETATM   44  C   UNL     1     -10.491  12.433  67.701  1.00  0.00    -0.229 A  
HETATM   45  C   UNL     1      -9.683  13.046  65.514  1.00  0.00    -0.068 A  
HETATM   46  C   UNL     1     -12.011  12.476  65.818  1.00  0.00    -0.482 A  
ENDBRANCH  32  41
ENDBRANCH  31  32
ENDBRANCH  18  31
ENDBRANCH   6  10
ENDBRANCH   2   3
TORSDOF 11
ENDMDL
MODEL      100
REMARK 921   NORMALIZED FREE ENERGY PREDICTED BY IDOCK:   -4.63 KCAL/MOL
REMARK 922        TOTAL FREE ENERGY PREDICTED BY IDOCK:  -10.67 KCAL/MOL
REMARK 923 INTER-LIGAND FREE ENERGY PREDICTED BY IDOCK:   -9.99 KCAL/MOL
REMARK 924 INTRA-LIGAND FREE ENERGY PREDICTED BY IDOCK:   -0.68 KCAL/MOL
REMARK 927      BINDING AFFINITY PREDICTED BY RF-SCORE:    0.00 PKD
ROOT
HETATM    1  C   UNL     1     -10.824  18.267  65.633  1.00  0.00     0.091 C  
HETATM    2  O   UNL     1     -10.713  16.918  65.167  1.00  0.00    -0.663 OA 
ENDROOT
BRANCH   2   3
HETATM    3  C   UNL     1      -9.818  16.143  65.854  1.00  0.00    -0.353 A  
HETATM    4  C   UNL     1     -10.262  14.884  66.284  1.00  0.00    -0.294 A  
HETATM    5  F   UNL     1     -11.523  14.502  66.015  1.00  0.00    -0.328 F  
HETATM    6  C   UNL     1      -9.409  14.015  66.977  1.00  0.00    -0.256 A  
HETATM    7  C   UNL     1      -8.102  14.433  67.268  1.00  0.00    -0.209 A  
HETATM    8  C   UNL     1      -8.517  16.555  66.168  1.00  0.00    -0.320 A  
HETATM    9  C   UNL     1      -7.665  15.699  66.866  1.00  0.00    -0.238 A  
BRANCH   6  10
HETATM   10  C   UNL     1      -9.850  12.654  67.348  1.00  0.00    -0.205 C  
HETATM   11  C   UNL     1      -9.183  11.678  65.132  1.00  0.00    -0.001 C  
HETATM   12  C   UNL     1      -9.764  11.583  66.528  1.00  0.00    -0.203 C  
HETATM   13  N   UNL     1     -10.176  10.324  66.981  1.00  0.00    -0.217 N  
HETATM   14  C   UNL     1     -10.405  10.070  68.337  1.00  0.00    -0.191 C  
HETATM   15  C   UNL     1     -10.491  12.470  68.685  1.00  0.00    -0.200 C  
HETATM   16  O   UNL     1     -10.392   8.926  68.800  1.00  0.00    -0.206 OA 
HETATM   17  O   UNL     1     -10.851  13.448  69.341  1.00  0.00    -0.113 OA 
HETATM   18  N   UNL     1     -10.640  11.173  69.129  1.00  0.00    -0.217 N  
BRANCH  13  19
HETATM   19  C   UNL     1     -10.254   9.153  66.099  1.00  0.00    -0.119 C  
BRANCH  19  20
HETATM   20  C   UNL     1      -9.581   7.872  66.577  1.00  0.00    -0.281 A  
HETATM   21  F   UNL     1      -6.480   9.382  67.240  1.00  0.00    -0.065 F  
HETATM   22  C   UNL     1      -7.142   8.739  66.239  1.00  0.00    -0.082 C  
HETATM   23  C   UNL     1      -8.180   7.767  66.766  1.00  0.00    -0.120 A  
HETATM   24  F   UNL     1     -11.698   6.804  66.813  1.00  0.00    -0.264 F  
HETATM   25  C   UNL     1      -7.665   6.664  67.492  1.00  0.00    -0.110 A  
HETATM   26  C   UNL     1     -10.378   6.803  67.030  1.00  0.00    -0.268 A  
HETATM   27  F   UNL     1      -6.182   8.095  65.515  1.00  0.00    -0.043 F  
HETATM   28  F   UNL     1      -7.607   9.712  65.415  1.00  0.00    -0.099 F  
HETATM   29  C   UNL     1      -9.848   5.706  67.711  1.00  0.00    -0.153 A  
HETATM   30  C   UNL     1      -8.490   5.651  67.973  1.00  0.00    -0.102 A  
ENDBRANCH  19  20
ENDBRANCH  13  19
BRANCH  18  31
HETATM   31  C   UNL     1     -11.095  10.953  70.507  1.00  0.00     0.146 C  
BRANCH  31  32
HETATM   32  C   UNL     1     -12.595  10.538  70.656  1.00  0.00    -0.369 C  
BRANCH  32  33
HETATM   33  N   UNL     1     -13.394  11.444  71.525  1.00  0.00    -0.203 NA 
HETATM   34  H   UNL     1     -13.711  10.945  72.356  1.00  0.00     0.000 HD 
BRANCH  33  35
HETATM   35  C   UNL     1     -12.724  12.683  71.907  1.00  0.00    -0.081 C  
BRANCH  35  36
HETATM   36  C   UNL     1     -13.724  13.676  72.519  1.00  0.00    -0.663 C  
BRANCH  36  37
HETATM   37  C   UNL     1     -13.075  14.985  72.969  1.00  0.00    -0.604 C  
HETATM   38  O   UNL     1     -11.070  15.844  71.943  1.00  0.00    -0.139 OA 
HETATM   39  C   UNL     1     -12.273  15.642  71.876  1.00  0.00    -0.427 C  
HETATM   40  O   UNL     1     -13.017  16.043  70.822  1.00  0.00    -0.390 OA 
ENDBRANCH  36  37
ENDBRANCH  35  36
ENDBRANCH  33  35
ENDBRANCH  32  33
BRANCH  32  41
HETATM   41  C   UNL     1     -12.756   9.117  71.206  1.00  0.00    -0.340 A  
HETATM   42  C   UNL     1     -14.177   7.192  71.661  1.00  0.00    -0.502 A  
HETATM   43  C   UNL     1     -11.880   7.167  72.384  1.00  0.00    -0.224 A  
HETATM   44  C   UNL     1     -13.998   8.469  71.122  1.00  0.00    -0.122 A  
HETATM   45  C   UNL     1     -11.696   8.439  71.835  1.00  0.00    -0.398 A  
HETATM   46  C   UNL     1     -13.120   6.542  72.295  1.00  0.00     0.150 A  
ENDBRANCH  32  41
ENDBRANCH  31  32
ENDBRANCH  18  31
ENDBRANCH   6  10
ENDBRANCH   2   3
TORSDOF 11
ENDMDL
MODEL      101
REMARK 921   NORMALIZED FREE ENERGY PREDICTED BY IDOCK:   -4.61 KCAL/MOL
REMARK 922        TOTAL FREE ENERGY PREDICTED BY IDOCK:  -10.63 KCAL/MOL
REMARK 923 INTER-LIGAND FREE ENERGY PREDICTED BY IDOCK:   -8.31 KCAL/MOL
REMARK 924 INTRA-LIGAND FREE ENERGY PREDICTED BY IDOCK:   -2.33 KCAL/MOL
REMARK 927      BINDING AFFINITY PREDICTED BY RF-SCORE:    0.00 PKD
ROOT
HETATM    1  C   UNL     1     -11.089   3.191  73.527  1.00  0.00    -0.216 C  
HETATM    2  O   UNL     1     -10.768   4.564  73.767  1.00  0.00    -0.221 OA 
ENDROOT
BRANCH   2   3
HETATM    3  C   UNL     1      -9.552   4.964  73.281  1.00  0.00    -0.129 A  
HETATM    4  C   UNL     1      -9.516   5.433  71.960  1.00  0.00    -0.148 A  
HETATM    5  F   UNL     1     -10.651   5.464  71.240  1.00  0.00    -0.276 F  
HETATM    6  C   UNL     1      -8.320   5.882  71.384  1.00  0.00    -0.128 A  
HETATM    7  C   UNL     1      -7.139   5.828  72.139  1.00  0.00    -0.087 A  
HETATM    8  C   UNL     1      -8.363   4.897  74.016  1.00  0.00    -0.104 A  
HETATM    9  C   UNL     1      -7.166   5.333  73.447  1.00  0.00    -0.090 A  
BRANCH   6  10
HETATM   10  C   UNL     1      -8.302   6.462  70.025  1.00  0.00    -0.130 C  
HETATM   11  C   UNL     1      -7.578   4.305  68.958  1.00  0.00    -0.055 C  
HETATM   12  C   UNL     1      -7.963   5.770  68.914  1.00  0.00    -0.098 C  
HETATM   13  N   UNL     1      -8.009   6.397  67.662  1.00  0.00    -0.113 N  
HETATM   14  C   UNL     1      -8.662   7.618  67.476  1.00  0.00    -0.125 C  
HETATM   15  C   UNL     1      -8.609   7.917  69.884  1.00  0.00    -0.139 C  
HETATM   16  O   UNL     1      -9.043   7.995  66.364  1.00  0.00    -0.164 OA 
HETATM   17  O   UNL     1      -8.639   8.644  70.877  1.00  0.00    -0.139 OA 
HETATM   18  N   UNL     1      -8.863   8.378  68.609  1.00  0.00    -0.136 N  
BRANCH  13  19
HETATM   19  C   UNL     1      -7.512   5.756  66.439  1.00  0.00    -0.086 C  
BRANCH  19  20
HETATM   20  C   UNL     1      -8.543   5.353  65.392  1.00  0.00    -0.150 A  
HETATM   21  F   UNL     1      -6.367   5.717  62.660  1.00  0.00    -0.023 F  
HETATM   22  C   UNL     1      -7.277   6.429  63.378  1.00  0.00    -0.059 C  
HETATM   23  C   UNL     1      -8.339   5.543  64.002  1.00  0.00    -0.091 A  
HETATM   24  F   UNL     1      -9.956   4.441  67.081  1.00  0.00    -0.207 F  
HETATM   25  C   UNL     1      -9.189   4.877  63.084  1.00  0.00     0.080 A  
HETATM   26  C   UNL     1      -9.662   4.593  65.784  1.00  0.00    -0.197 A  
HETATM   27  F   UNL     1      -7.827   7.318  62.502  1.00  0.00    -0.098 F  
HETATM   28  F   UNL     1      -6.559   7.189  64.242  1.00  0.00    -0.038 F  
HETATM   29  C   UNL     1     -10.511   3.975  64.865  1.00  0.00    -0.175 A  
HETATM   30  C   UNL     1     -10.255   4.089  63.510  1.00  0.00    -0.139 A  
ENDBRANCH  19  20
ENDBRANCH  13  19
BRANCH  18  31
HETATM   31  C   UNL     1      -9.347   9.754  68.446  1.00  0.00    -0.133 C  
BRANCH  31  32
HETATM   32  C   UNL     1     -10.893   9.899  68.267  1.00  0.00    -0.230 C  
BRANCH  32  33
HETATM   33  N   UNL     1     -11.301  11.014  67.368  1.00  0.00    -0.462 NA 
HETATM   34  H   UNL     1     -11.293  11.897  67.877  1.00  0.00     0.000 HD 
BRANCH  33  35
HETATM   35  C   UNL     1     -10.521  11.132  66.140  1.00  0.00    -0.253 C  
BRANCH  35  36
HETATM   36  C   UNL     1     -10.230  12.607  65.821  1.00  0.00    -0.288 C  
BRANCH  36  37
HETATM   37  C   UNL     1     -10.064  13.473  67.071  1.00  0.00    -0.244 C  
HETATM   38  O   UNL     1     -10.513  15.840  67.061  1.00  0.00    -0.297 OA 
HETATM   39  C   UNL     1     -10.942  14.697  67.050  1.00  0.00    -0.317 C  
HETATM   40  O   UNL     1     -12.263  14.418  67.072  1.00  0.00    -0.400 OA 
ENDBRANCH  36  37
ENDBRANCH  35  36
ENDBRANCH  33  35
ENDBRANCH  32  33
BRANCH  32  41
HETATM   41  C   UNL     1     -11.620  10.099  69.601  1.00  0.00    -0.216 A  
HETATM   42  C   UNL     1     -12.702   9.148  71.564  1.00  0.00    -0.409 A  
HETATM   43  C   UNL     1     -12.678  11.537  71.266  1.00  0.00    -0.469 A  
HETATM   44  C   UNL     1     -11.996   8.987  70.369  1.00  0.00     0.054 A  
HETATM   45  C   UNL     1     -11.962  11.379  70.076  1.00  0.00    -0.442 A  
HETATM   46  C   UNL     1     -13.046  10.421  72.011  1.00  0.00    -0.521 A  
ENDBRANCH  32  41
ENDBRANCH  31  32
ENDBRANCH  18  31
ENDBRANCH   6  10
ENDBRANCH   2   3
TORSDOF 11
ENDMDL
MODEL      102
REMARK 921   NORMALIZED FREE ENERGY PREDICTED BY IDOCK:   -4.60 KCAL/MOL
REMARK 922        TOTAL FREE ENERGY PREDICTED BY IDOCK:  -10.62 KCAL/MOL
REMARK 923 INTER-LIGAND FREE ENERGY PREDICTED BY IDOCK:   -8.71 KCAL/MOL
REMARK 924 INTRA-LIGAND FREE ENERGY PREDICTED BY IDOCK:   -1.90 KCAL/MOL
REMARK 927      BINDING AFFINITY PREDICTED BY RF-SCORE:    0.00 PKD
ROOT
HETATM    1  C   UNL     1      -6.788   7.874  74.481  1.00  0.00    -0.124 C  
HETATM    2  O   UNL     1      -8.032   8.574  74.380  1.00  0.00    -0.328 OA 
ENDROOT
BRANCH   2   3
HETATM    3  C   UNL     1      -8.930   8.026  73.502  1.00  0.00    -0.260 A  
HETATM    4  C   UNL     1      -8.821   8.408  72.157  1.00  0.00    -0.217 A  
HETATM    5  F   UNL     1      -7.865   9.282  71.794  1.00  0.00    -0.065 F  
HETATM    6  C   UNL     1      -9.683   7.883  71.185  1.00  0.00    -0.182 A  
HETATM    7  C   UNL     1     -10.687   6.987  71.579  1.00  0.00    -0.244 A  
HETATM    8  C   UNL     1      -9.949   7.146  73.884  1.00  0.00    -0.360 A  
HETATM    9  C   UNL     1     -10.817   6.627  72.923  1.00  0.00    -0.293 A  
BRANCH   6  10
HETATM   10  C   UNL     1      -9.508   8.216  69.755  1.00  0.00    -0.159 C  
HETATM   11  C   UNL     1      -8.019   6.237  69.328  1.00  0.00    -0.109 C  
HETATM   12  C   UNL     1      -8.755   7.491  68.899  1.00  0.00    -0.132 C  
HETATM   13  N   UNL     1      -8.677   7.866  67.552  1.00  0.00    -0.125 N  
HETATM   14  C   UNL     1      -9.567   8.786  66.992  1.00  0.00    -0.179 C  
HETATM   15  C   UNL     1     -10.146   9.468  69.248  1.00  0.00    -0.198 C  
HETATM   16  O   UNL     1      -9.769   8.847  65.776  1.00  0.00    -0.240 OA 
HETATM   17  O   UNL     1     -10.592  10.302  70.037  1.00  0.00    -0.271 OA 
HETATM   18  N   UNL     1     -10.214   9.620  67.880  1.00  0.00    -0.185 N  
BRANCH  13  19
HETATM   19  C   UNL     1      -7.763   7.218  66.603  1.00  0.00    -0.101 C  
BRANCH  19  20
HETATM   20  C   UNL     1      -8.385   6.376  65.496  1.00  0.00    -0.147 A  
HETATM   21  F   UNL     1      -6.013   7.263  63.063  1.00  0.00    -0.044 F  
HETATM   22  C   UNL     1      -7.226   7.655  63.538  1.00  0.00    -0.080 C  
HETATM   23  C   UNL     1      -8.012   6.503  64.135  1.00  0.00    -0.088 A  
HETATM   24  F   UNL     1      -9.678   5.167  67.092  1.00  0.00    -0.126 F  
HETATM   25  C   UNL     1      -8.401   5.494  63.218  1.00  0.00    -0.082 A  
HETATM   26  C   UNL     1      -9.226   5.299  65.840  1.00  0.00    -0.159 A  
HETATM   27  F   UNL     1      -7.881   8.201  62.473  1.00  0.00    -0.110 F  
HETATM   28  F   UNL     1      -6.982   8.698  64.370  1.00  0.00    -0.078 F  
HETATM   29  C   UNL     1      -9.629   4.336  64.915  1.00  0.00    -0.176 A  
HETATM   30  C   UNL     1      -9.188   4.413  63.605  1.00  0.00    -0.121 A  
ENDBRANCH  19  20
ENDBRANCH  13  19
BRANCH  18  31
HETATM   31  C   UNL     1     -10.992  10.741  67.337  1.00  0.00    -0.300 C  
BRANCH  31  32
HETATM   32  C   UNL     1     -10.194  12.070  67.132  1.00  0.00    -0.202 C  
BRANCH  32  33
HETATM   33  N   UNL     1      -9.973  12.847  68.382  1.00  0.00    -0.268 NA 
HETATM   34  H   UNL     1     -10.306  12.320  69.189  1.00  0.00     0.000 HD 
BRANCH  33  35
HETATM   35  C   UNL     1      -8.598  13.287  68.600  1.00  0.00     0.026 C  
BRANCH  35  36
HETATM   36  C   UNL     1      -8.530  14.816  68.732  1.00  0.00    -0.170 C  
BRANCH  36  37
HETATM   37  C   UNL     1      -7.925  15.500  67.505  1.00  0.00    -0.189 C  
HETATM   38  O   UNL     1      -5.680  16.376  67.500  1.00  0.00    -0.129 OA 
HETATM   39  C   UNL     1      -6.423  15.406  67.470  1.00  0.00    -0.144 C  
HETATM   40  O   UNL     1      -5.960  14.144  67.346  1.00  0.00    -0.348 OA 
ENDBRANCH  36  37
ENDBRANCH  35  36
ENDBRANCH  33  35
ENDBRANCH  32  33
BRANCH  32  41
HETATM   41  C   UNL     1     -10.867  13.006  66.124  1.00  0.00    -0.296 A  
HETATM   42  C   UNL     1     -10.698  14.817  64.504  1.00  0.00    -0.124 A  
HETATM   43  C   UNL     1     -12.862  13.911  65.046  1.00  0.00    -0.309 A  
HETATM   44  C   UNL     1     -10.095  13.922  65.393  1.00  0.00    -0.328 A  
HETATM   45  C   UNL     1     -12.261  13.007  65.926  1.00  0.00    -0.493 A  
HETATM   46  C   UNL     1     -12.080  14.815  64.333  1.00  0.00    -0.457 A  
ENDBRANCH  32  41
ENDBRANCH  31  32
ENDBRANCH  18  31
ENDBRANCH   6  10
ENDBRANCH   2   3
TORSDOF 11
ENDMDL
MODEL      103
REMARK 921   NORMALIZED FREE ENERGY PREDICTED BY IDOCK:   -4.60 KCAL/MOL
REMARK 922        TOTAL FREE ENERGY PREDICTED BY IDOCK:  -10.61 KCAL/MOL
REMARK 923 INTER-LIGAND FREE ENERGY PREDICTED BY IDOCK:  -10.92 KCAL/MOL
REMARK 924 INTRA-LIGAND FREE ENERGY PREDICTED BY IDOCK:    0.31 KCAL/MOL
REMARK 927      BINDING AFFINITY PREDICTED BY RF-SCORE:    0.00 PKD
ROOT
HETATM    1  C   UNL     1     -14.302   7.377  71.451  1.00  0.00    -0.367 C  
HETATM    2  O   UNL     1     -13.784   8.564  72.061  1.00  0.00    -0.370 OA 
ENDROOT
BRANCH   2   3
HETATM    3  C   UNL     1     -12.442   8.766  71.878  1.00  0.00    -0.372 A  
HETATM    4  C   UNL     1     -12.061   9.587  70.807  1.00  0.00    -0.232 A  
HETATM    5  F   UNL     1     -13.008  10.124  70.017  1.00  0.00    -0.216 F  
HETATM    6  C   UNL     1     -10.711   9.867  70.555  1.00  0.00    -0.382 A  
HETATM    7  C   UNL     1      -9.732   9.286  71.374  1.00  0.00    -0.269 A  
HETATM    8  C   UNL     1     -11.454   8.178  72.675  1.00  0.00    -0.454 A  
HETATM    9  C   UNL     1     -10.107   8.444  72.425  1.00  0.00    -0.386 A  
BRANCH   6  10
HETATM   10  C   UNL     1     -10.317  10.805  69.483  1.00  0.00    -0.178 C  
HETATM   11  C   UNL     1     -12.188  12.402  69.995  1.00  0.00    -0.264 C  
HETATM   12  C   UNL     1     -10.974  11.954  69.207  1.00  0.00    -0.151 C  
HETATM   13  N   UNL     1     -10.503  12.798  68.193  1.00  0.00    -0.229 N  
HETATM   14  C   UNL     1      -9.226  12.648  67.646  1.00  0.00    -0.191 C  
HETATM   15  C   UNL     1      -9.166  10.423  68.611  1.00  0.00    -0.164 C  
HETATM   16  O   UNL     1      -8.655  13.568  67.053  1.00  0.00    -0.208 OA 
HETATM   17  O   UNL     1      -8.725   9.273  68.633  1.00  0.00    -0.129 OA 
HETATM   18  N   UNL     1      -8.636  11.413  67.812  1.00  0.00    -0.125 N  
BRANCH  13  19
HETATM   19  C   UNL     1     -11.249  13.978  67.739  1.00  0.00    -0.281 C  
BRANCH  19  20
HETATM   20  C   UNL     1     -10.710  15.344  68.146  1.00  0.00    -0.271 A  
HETATM   21  F   UNL     1     -11.062  16.777  64.959  1.00  0.00    -0.380 F  
HETATM   22  C   UNL     1     -10.145  16.116  65.717  1.00  0.00    -0.363 C  
HETATM   23  C   UNL     1     -10.356  16.341  67.203  1.00  0.00    -0.285 A  
HETATM   24  F   UNL     1     -10.984  14.806  70.452  1.00  0.00    -0.259 F  
HETATM   25  C   UNL     1     -10.157  17.672  67.649  1.00  0.00    -0.339 A  
HETATM   26  C   UNL     1     -10.734  15.717  69.504  1.00  0.00    -0.278 A  
HETATM   27  F   UNL     1      -8.928  16.581  65.314  1.00  0.00     0.120 F  
HETATM   28  F   UNL     1     -10.180  14.825  65.303  1.00  0.00    -0.323 F  
HETATM   29  C   UNL     1     -10.499  17.025  69.929  1.00  0.00     0.098 A  
HETATM   30  C   UNL     1     -10.243  18.014  68.996  1.00  0.00    -0.262 A  
ENDBRANCH  19  20
ENDBRANCH  13  19
BRANCH  18  31
HETATM   31  C   UNL     1      -7.395  11.133  67.079  1.00  0.00    -0.128 C  
BRANCH  31  32
HETATM   32  C   UNL     1      -7.585  10.473  65.674  1.00  0.00    -0.134 C  
BRANCH  32  33
HETATM   33  N   UNL     1      -8.939  10.665  65.088  1.00  0.00    -0.193 NA 
HETATM   34  H   UNL     1      -9.454  11.371  65.613  1.00  0.00     0.000 HD 
BRANCH  33  35
HETATM   35  C   UNL     1      -8.956  10.984  63.664  1.00  0.00    -0.085 C  
BRANCH  35  36
HETATM   36  C   UNL     1     -10.380  11.325  63.199  1.00  0.00    -0.338 C  
BRANCH  36  37
HETATM   37  C   UNL     1     -11.231  11.976  64.291  1.00  0.00    -0.421 C  
HETATM   38  O   UNL     1     -12.734  13.802  63.830  1.00  0.00    -0.673 OA 
HETATM   39  C   UNL     1     -12.486  12.609  63.750  1.00  0.00    -0.420 C  
HETATM   40  O   UNL     1     -13.350  11.724  63.207  1.00  0.00    -0.510 OA 
ENDBRANCH  36  37
ENDBRANCH  35  36
ENDBRANCH  33  35
ENDBRANCH  32  33
BRANCH  32  41
HETATM   41  C   UNL     1      -7.304   8.967  65.693  1.00  0.00    -0.086 A  
HETATM   42  C   UNL     1      -8.084   6.683  65.375  1.00  0.00    -0.129 A  
HETATM   43  C   UNL     1      -5.849   7.069  66.183  1.00  0.00    -0.035 A  
HETATM   44  C   UNL     1      -8.307   8.061  65.317  1.00  0.00    -0.151 A  
HETATM   45  C   UNL     1      -6.065   8.448  66.115  1.00  0.00    -0.048 A  
HETATM   46  C   UNL     1      -6.858   6.186  65.811  1.00  0.00    -0.056 A  
ENDBRANCH  32  41
ENDBRANCH  31  32
ENDBRANCH  18  31
ENDBRANCH   6  10
ENDBRANCH   2   3
TORSDOF 11
ENDMDL
MODEL      104
REMARK 921   NORMALIZED FREE ENERGY PREDICTED BY IDOCK:   -4.59 KCAL/MOL
REMARK 922        TOTAL FREE ENERGY PREDICTED BY IDOCK:  -10.61 KCAL/MOL
REMARK 923 INTER-LIGAND FREE ENERGY PREDICTED BY IDOCK:   -8.07 KCAL/MOL
REMARK 924 INTRA-LIGAND FREE ENERGY PREDICTED BY IDOCK:   -2.54 KCAL/MOL
REMARK 927      BINDING AFFINITY PREDICTED BY RF-SCORE:    0.00 PKD
ROOT
HETATM    1  C   UNL     1     -12.147  15.002  64.274  1.00  0.00    -0.306 C  
HETATM    2  O   UNL     1     -12.836  14.679  65.486  1.00  0.00    -0.217 OA 
ENDROOT
BRANCH   2   3
HETATM    3  C   UNL     1     -12.026  14.325  66.532  1.00  0.00    -0.427 A  
HETATM    4  C   UNL     1     -11.791  12.956  66.722  1.00  0.00    -0.385 A  
HETATM    5  F   UNL     1     -12.363  12.066  65.891  1.00  0.00    -0.327 F  
HETATM    6  C   UNL     1     -10.959  12.502  67.754  1.00  0.00    -0.270 A  
HETATM    7  C   UNL     1     -10.383  13.438  68.624  1.00  0.00    -0.213 A  
HETATM    8  C   UNL     1     -11.460  15.247  67.419  1.00  0.00    -0.246 A  
HETATM    9  C   UNL     1     -10.638  14.802  68.456  1.00  0.00    -0.248 A  
BRANCH   6  10
HETATM   10  C   UNL     1     -10.639  11.066  67.895  1.00  0.00    -0.244 C  
HETATM   11  C   UNL     1     -11.934  10.840  70.036  1.00  0.00    -0.427 C  
HETATM   12  C   UNL     1     -11.062  10.296  68.922  1.00  0.00    -0.231 C  
HETATM   13  N   UNL     1     -10.736   8.934  68.952  1.00  0.00    -0.160 N  
HETATM   14  C   UNL     1     -10.236   8.274  67.826  1.00  0.00    -0.223 C  
HETATM   15  C   UNL     1      -9.735  10.450  66.877  1.00  0.00    -0.181 C  
HETATM   16  O   UNL     1     -10.300   7.047  67.704  1.00  0.00    -0.175 OA 
HETATM   17  O   UNL     1      -9.099  11.162  66.100  1.00  0.00    -0.189 OA 
HETATM   18  N   UNL     1      -9.670   9.073  66.856  1.00  0.00    -0.182 N  
BRANCH  13  19
HETATM   19  C   UNL     1     -11.031   8.076  70.106  1.00  0.00    -0.226 C  
BRANCH  19  20
HETATM   20  C   UNL     1      -9.919   7.872  71.128  1.00  0.00    -0.198 A  
HETATM   21  F   UNL     1     -10.730   4.522  71.800  1.00  0.00    -0.212 F  
HETATM   22  C   UNL     1     -11.001   5.777  72.248  1.00  0.00    -0.262 C  
HETATM   23  C   UNL     1      -9.862   6.743  71.983  1.00  0.00    -0.166 A  
HETATM   24  F   UNL     1      -8.819   9.851  70.381  1.00  0.00    -0.231 F  
HETATM   25  C   UNL     1      -8.658   6.468  72.680  1.00  0.00    -0.124 A  
HETATM   26  C   UNL     1      -8.799   8.727  71.107  1.00  0.00    -0.219 A  
HETATM   27  F   UNL     1     -11.240   5.649  73.585  1.00  0.00    -0.290 F  
HETATM   28  F   UNL     1     -12.200   6.115  71.710  1.00  0.00    -0.368 F  
HETATM   29  C   UNL     1      -7.636   8.459  71.830  1.00  0.00    -0.146 A  
HETATM   30  C   UNL     1      -7.552   7.308  72.594  1.00  0.00    -0.090 A  
ENDBRANCH  19  20
ENDBRANCH  13  19
BRANCH  18  31
HETATM   31  C   UNL     1      -8.942   8.423  65.760  1.00  0.00    -0.159 C  
BRANCH  31  32
HETATM   32  C   UNL     1      -7.496   7.945  66.111  1.00  0.00    -0.079 C  
BRANCH  32  33
HETATM   33  N   UNL     1      -7.447   6.742  66.987  1.00  0.00    -0.086 NA 
HETATM   34  H   UNL     1      -8.068   6.864  67.787  1.00  0.00     0.000 HD 
BRANCH  33  35
HETATM   35  C   UNL     1      -7.732   5.478  66.315  1.00  0.00    -0.099 C  
BRANCH  35  36
HETATM   36  C   UNL     1      -6.633   4.446  66.610  1.00  0.00    -0.049 C  
BRANCH  36  37
HETATM   37  C   UNL     1      -5.326   5.077  67.092  1.00  0.00    -0.012 C  
HETATM   38  O   UNL     1      -5.134   6.145  69.244  1.00  0.00    -0.004 OA 
HETATM   39  C   UNL     1      -5.219   5.115  68.594  1.00  0.00     0.000 C  
HETATM   40  O   UNL     1      -5.170   3.892  69.166  1.00  0.00    -0.010 OA 
ENDBRANCH  36  37
ENDBRANCH  35  36
ENDBRANCH  33  35
ENDBRANCH  32  33
BRANCH  32  41
HETATM   41  C   UNL     1      -6.667   9.039  66.791  1.00  0.00    -0.076 A  
HETATM   42  C   UNL     1      -5.799  10.054  68.827  1.00  0.00    -0.034 A  
HETATM   43  C   UNL     1      -5.375  11.109  66.705  1.00  0.00    -0.106 A  
HETATM   44  C   UNL     1      -6.510   9.037  68.185  1.00  0.00    -0.060 A  
HETATM   45  C   UNL     1      -6.076  10.087  66.059  1.00  0.00    -0.077 A  
HETATM   46  C   UNL     1      -5.235  11.092  68.089  1.00  0.00    -0.039 A  
ENDBRANCH  32  41
ENDBRANCH  31  32
ENDBRANCH  18  31
ENDBRANCH   6  10
ENDBRANCH   2   3
TORSDOF 11
ENDMDL
MODEL      105
REMARK 921   NORMALIZED FREE ENERGY PREDICTED BY IDOCK:   -4.59 KCAL/MOL
REMARK 922        TOTAL FREE ENERGY PREDICTED BY IDOCK:  -10.59 KCAL/MOL
REMARK 923 INTER-LIGAND FREE ENERGY PREDICTED BY IDOCK:   -9.42 KCAL/MOL
REMARK 924 INTRA-LIGAND FREE ENERGY PREDICTED BY IDOCK:   -1.18 KCAL/MOL
REMARK 927      BINDING AFFINITY PREDICTED BY RF-SCORE:    0.00 PKD
ROOT
HETATM    1  C   UNL     1      -5.725  18.402  64.853  1.00  0.00    -0.136 C  
HETATM    2  O   UNL     1      -7.026  18.235  65.428  1.00  0.00    -0.523 OA 
ENDROOT
BRANCH   2   3
HETATM    3  C   UNL     1      -7.035  17.675  66.677  1.00  0.00    -0.222 A  
HETATM    4  C   UNL     1      -7.875  16.569  66.875  1.00  0.00    -0.228 A  
HETATM    5  F   UNL     1      -8.624  16.119  65.853  1.00  0.00    -0.355 F  
HETATM    6  C   UNL     1      -7.934  15.919  68.114  1.00  0.00    -0.137 A  
HETATM    7  C   UNL     1      -7.161  16.409  69.177  1.00  0.00    -0.222 A  
HETATM    8  C   UNL     1      -6.284  18.165  67.752  1.00  0.00    -0.176 A  
HETATM    9  C   UNL     1      -6.345  17.529  68.992  1.00  0.00    -0.218 A  
BRANCH   6  10
HETATM   10  C   UNL     1      -8.749  14.699  68.294  1.00  0.00    -0.173 C  
HETATM   11  C   UNL     1     -10.915  15.973  68.300  1.00  0.00    -0.335 C  
HETATM   12  C   UNL     1     -10.097  14.700  68.388  1.00  0.00    -0.237 C  
HETATM   13  N   UNL     1     -10.786  13.488  68.522  1.00  0.00    -0.257 N  
HETATM   14  C   UNL     1     -10.166  12.259  68.277  1.00  0.00    -0.220 C  
HETATM   15  C   UNL     1      -8.031  13.398  68.450  1.00  0.00    -0.139 C  
HETATM   16  O   UNL     1     -10.812  11.240  68.018  1.00  0.00    -0.191 OA 
HETATM   17  O   UNL     1      -6.818  13.381  68.661  1.00  0.00    -0.086 OA 
HETATM   18  N   UNL     1      -8.789  12.253  68.336  1.00  0.00    -0.170 N  
BRANCH  13  19
HETATM   19  C   UNL     1     -12.230  13.424  68.781  1.00  0.00    -0.115 C  
BRANCH  19  20
HETATM   20  C   UNL     1     -12.694  13.650  70.215  1.00  0.00    -0.163 A  
HETATM   21  F   UNL     1     -11.692  10.488  71.366  1.00  0.00    -0.403 F  
HETATM   22  C   UNL     1     -12.779  11.119  70.845  1.00  0.00    -0.344 C  
HETATM   23  C   UNL     1     -12.793  12.602  71.163  1.00  0.00    -0.311 A  
HETATM   24  F   UNL     1     -12.851  15.998  69.832  1.00  0.00    -0.227 F  
HETATM   25  C   UNL     1     -12.932  12.927  72.536  1.00  0.00    -0.064 A  
HETATM   26  C   UNL     1     -12.855  14.968  70.686  1.00  0.00    -0.363 A  
HETATM   27  F   UNL     1     -13.865  10.488  71.379  1.00  0.00    -0.190 F  
HETATM   28  F   UNL     1     -12.801  10.796  69.527  1.00  0.00    -0.296 F  
HETATM   29  C   UNL     1     -13.029  15.266  72.038  1.00  0.00    -0.455 A  
HETATM   30  C   UNL     1     -13.034  14.245  72.972  1.00  0.00    -0.512 A  
ENDBRANCH  19  20
ENDBRANCH  13  19
BRANCH  18  31
HETATM   31  C   UNL     1      -8.099  10.958  68.300  1.00  0.00    -0.124 C  
BRANCH  31  32
HETATM   32  C   UNL     1      -7.910  10.264  69.689  1.00  0.00    -0.160 C  
BRANCH  32  33
HETATM   33  N   UNL     1      -6.543   9.721  69.918  1.00  0.00    -0.061 NA 
HETATM   34  H   UNL     1      -6.413   9.498  70.905  1.00  0.00     0.000 HD 
BRANCH  33  35
HETATM   35  C   UNL     1      -6.189   8.571  69.091  1.00  0.00    -0.043 C  
BRANCH  35  36
HETATM   36  C   UNL     1      -5.172   7.675  69.814  1.00  0.00    -0.023 C  
BRANCH  36  37
HETATM   37  C   UNL     1      -5.627   7.252  71.212  1.00  0.00    -0.035 C  
HETATM   38  O   UNL     1      -7.690   6.065  71.587  1.00  0.00    -0.098 OA 
HETATM   39  C   UNL     1      -6.535   6.051  71.189  1.00  0.00    -0.049 C  
HETATM   40  O   UNL     1      -5.940   4.928  70.733  1.00  0.00    -0.016 OA 
ENDBRANCH  36  37
ENDBRANCH  35  36
ENDBRANCH  33  35
ENDBRANCH  32  33
BRANCH  32  41
HETATM   41  C   UNL     1      -8.900   9.116  69.908  1.00  0.00    -0.176 A  
HETATM   42  C   UNL     1     -10.303   7.350  68.989  1.00  0.00    -0.214 A  
HETATM   43  C   UNL     1     -10.350   7.789  71.356  1.00  0.00    -0.226 A  
HETATM   44  C   UNL     1      -9.362   8.369  68.814  1.00  0.00    -0.143 A  
HETATM   45  C   UNL     1      -9.401   8.800  71.185  1.00  0.00    -0.297 A  
HETATM   46  C   UNL     1     -10.799   7.062  70.258  1.00  0.00    -0.283 A  
ENDBRANCH  32  41
ENDBRANCH  31  32
ENDBRANCH  18  31
ENDBRANCH   6  10
ENDBRANCH   2   3
TORSDOF 11
ENDMDL
MODEL      106
REMARK 921   NORMALIZED FREE ENERGY PREDICTED BY IDOCK:   -4.55 KCAL/MOL
REMARK 922        TOTAL FREE ENERGY PREDICTED BY IDOCK:  -10.54 KCAL/MOL
REMARK 923 INTER-LIGAND FREE ENERGY PREDICTED BY IDOCK:   -8.69 KCAL/MOL
REMARK 924 INTRA-LIGAND FREE ENERGY PREDICTED BY IDOCK:   -1.85 KCAL/MOL
REMARK 927      BINDING AFFINITY PREDICTED BY RF-SCORE:    0.00 PKD
ROOT
HETATM    1  C   UNL     1      -8.083   7.852  74.483  1.00  0.00    -0.226 C  
HETATM    2  O   UNL     1      -8.607   8.442  73.288  1.00  0.00    -0.303 OA 
ENDROOT
BRANCH   2   3
HETATM    3  C   UNL     1      -7.674   8.708  72.321  1.00  0.00     0.003 A  
HETATM    4  C   UNL     1      -8.127   8.767  70.996  1.00  0.00    -0.156 A  
HETATM    5  F   UNL     1      -9.430   8.558  70.734  1.00  0.00    -0.160 F  
HETATM    6  C   UNL     1      -7.248   9.053  69.943  1.00  0.00    -0.058 A  
HETATM    7  C   UNL     1      -5.890   9.252  70.227  1.00  0.00    -0.036 A  
HETATM    8  C   UNL     1      -6.312   8.889  72.588  1.00  0.00     0.030 A  
HETATM    9  C   UNL     1      -5.428   9.165  71.544  1.00  0.00    -0.055 A  
BRANCH   6  10
HETATM   10  C   UNL     1      -7.745   9.206  68.559  1.00  0.00    -0.093 C  
HETATM   11  C   UNL     1      -7.294   6.804  67.978  1.00  0.00    -0.097 C  
HETATM   12  C   UNL     1      -7.768   8.205  67.651  1.00  0.00    -0.102 C  
HETATM   13  N   UNL     1      -8.290   8.437  66.373  1.00  0.00    -0.112 N  
HETATM   14  C   UNL     1      -9.049   9.575  66.084  1.00  0.00    -0.166 C  
HETATM   15  C   UNL     1      -8.181  10.567  68.122  1.00  0.00    -0.114 C  
HETATM   16  O   UNL     1      -9.817   9.623  65.120  1.00  0.00    -0.295 OA 
HETATM   17  O   UNL     1      -7.911  11.555  68.805  1.00  0.00    -0.140 OA 
HETATM   18  N   UNL     1      -8.893  10.642  66.944  1.00  0.00    -0.137 N  
BRANCH  13  19
HETATM   19  C   UNL     1      -8.208   7.445  65.294  1.00  0.00    -0.127 C  
BRANCH  19  20
HETATM   20  C   UNL     1      -8.730   6.045  65.590  1.00  0.00    -0.142 A  
HETATM   21  F   UNL     1      -5.590   4.489  65.358  1.00  0.00    -0.012 F  
HETATM   22  C   UNL     1      -6.667   4.800  64.586  1.00  0.00    -0.044 C  
HETATM   23  C   UNL     1      -7.950   4.878  65.392  1.00  0.00    -0.100 A  
HETATM   24  F   UNL     1     -10.779   6.943  66.412  1.00  0.00    -0.252 F  
HETATM   25  C   UNL     1      -8.381   3.656  65.968  1.00  0.00    -0.106 A  
HETATM   26  C   UNL     1      -9.960   5.896  66.261  1.00  0.00    -0.058 A  
HETATM   27  F   UNL     1      -6.737   3.821  63.639  1.00  0.00    -0.037 F  
HETATM   28  F   UNL     1      -6.327   5.922  63.905  1.00  0.00    -0.027 F  
HETATM   29  C   UNL     1     -10.385   4.676  66.789  1.00  0.00    -0.174 A  
HETATM   30  C   UNL     1      -9.577   3.558  66.672  1.00  0.00    -0.132 A  
ENDBRANCH  19  20
ENDBRANCH  13  19
BRANCH  18  31
HETATM   31  C   UNL     1      -9.496  11.927  66.571  1.00  0.00    -0.217 C  
BRANCH  31  32
HETATM   32  C   UNL     1     -11.049  12.006  66.732  1.00  0.00    -0.305 C  
BRANCH  32  33
HETATM   33  N   UNL     1     -11.662  13.227  66.142  1.00  0.00    -0.356 NA 
HETATM   34  H   UNL     1     -12.103  13.788  66.871  1.00  0.00     0.000 HD 
BRANCH  33  35
HETATM   35  C   UNL     1     -10.753  14.054  65.352  1.00  0.00    -0.337 C  
BRANCH  35  36
HETATM   36  C   UNL     1     -10.984  15.545  65.642  1.00  0.00    -0.307 C  
BRANCH  36  37
HETATM   37  C   UNL     1      -9.704  16.288  66.028  1.00  0.00    -0.370 C  
HETATM   38  O   UNL     1      -9.479  18.674  65.770  1.00  0.00    -0.423 OA 
HETATM   39  C   UNL     1      -9.955  17.731  66.382  1.00  0.00    -0.344 C  
HETATM   40  O   UNL     1     -10.720  17.894  67.483  1.00  0.00    -0.389 OA 
ENDBRANCH  36  37
ENDBRANCH  35  36
ENDBRANCH  33  35
ENDBRANCH  32  33
BRANCH  32  41
HETATM   41  C   UNL     1     -11.490  11.936  68.197  1.00  0.00    -0.384 A  
HETATM   42  C   UNL     1     -12.187  10.611  70.118  1.00  0.00    -0.398 A  
HETATM   43  C   UNL     1     -12.153  13.013  70.285  1.00  0.00    -0.388 A  
HETATM   44  C   UNL     1     -11.738  10.692  68.797  1.00  0.00    -0.259 A  
HETATM   45  C   UNL     1     -11.693  13.096  68.968  1.00  0.00    -0.367 A  
HETATM   46  C   UNL     1     -12.398  11.770  70.861  1.00  0.00    -0.420 A  
ENDBRANCH  32  41
ENDBRANCH  31  32
ENDBRANCH  18  31
ENDBRANCH   6  10
ENDBRANCH   2   3
TORSDOF 11
ENDMDL
MODEL      107
REMARK 921   NORMALIZED FREE ENERGY PREDICTED BY IDOCK:   -4.54 KCAL/MOL
REMARK 922        TOTAL FREE ENERGY PREDICTED BY IDOCK:  -10.52 KCAL/MOL
REMARK 923 INTER-LIGAND FREE ENERGY PREDICTED BY IDOCK:   -8.70 KCAL/MOL
REMARK 924 INTRA-LIGAND FREE ENERGY PREDICTED BY IDOCK:   -1.82 KCAL/MOL
REMARK 927      BINDING AFFINITY PREDICTED BY RF-SCORE:    0.00 PKD
ROOT
HETATM    1  C   UNL     1      -6.650  16.799  69.024  1.00  0.00    -0.205 C  
HETATM    2  O   UNL     1      -6.374  15.734  68.109  1.00  0.00    -0.108 OA 
ENDROOT
BRANCH   2   3
HETATM    3  C   UNL     1      -7.448  15.319  67.368  1.00  0.00    -0.209 A  
HETATM    4  C   UNL     1      -7.862  13.989  67.533  1.00  0.00    -0.184 A  
HETATM    5  F   UNL     1      -7.197  13.192  68.388  1.00  0.00    -0.079 F  
HETATM    6  C   UNL     1      -8.965  13.483  66.832  1.00  0.00    -0.219 A  
HETATM    7  C   UNL     1      -9.639  14.319  65.930  1.00  0.00    -0.227 A  
HETATM    8  C   UNL     1      -8.119  16.136  66.451  1.00  0.00    -0.305 A  
HETATM    9  C   UNL     1      -9.212  15.637  65.741  1.00  0.00    -0.247 A  
BRANCH   6  10
HETATM   10  C   UNL     1      -9.455  12.110  67.075  1.00  0.00    -0.201 C  
HETATM   11  C   UNL     1      -7.399  11.048  66.097  1.00  0.00    -0.060 C  
HETATM   12  C   UNL     1      -8.768  10.994  66.745  1.00  0.00    -0.152 C  
HETATM   13  N   UNL     1      -9.300   9.734  67.048  1.00  0.00    -0.145 N  
HETATM   14  C   UNL     1     -10.373   9.583  67.930  1.00  0.00    -0.227 C  
HETATM   15  C   UNL     1     -10.822  11.952  67.658  1.00  0.00    -0.227 C  
HETATM   16  O   UNL     1     -10.608   8.512  68.498  1.00  0.00    -0.193 OA 
HETATM   17  O   UNL     1     -11.591  12.912  67.706  1.00  0.00    -0.300 OA 
HETATM   18  N   UNL     1     -11.152  10.702  68.135  1.00  0.00    -0.265 N  
BRANCH  13  19
HETATM   19  C   UNL     1      -8.684   8.485  66.585  1.00  0.00    -0.125 C  
BRANCH  19  20
HETATM   20  C   UNL     1      -8.200   7.507  67.649  1.00  0.00    -0.118 A  
HETATM   21  F   UNL     1      -9.341   4.639  65.974  1.00  0.00    -0.128 F  
HETATM   22  C   UNL     1      -9.753   5.547  66.901  1.00  0.00    -0.150 C  
HETATM   23  C   UNL     1      -8.594   6.146  67.675  1.00  0.00    -0.106 A  
HETATM   24  F   UNL     1      -6.815   9.188  68.617  1.00  0.00    -0.058 F  
HETATM   25  C   UNL     1      -7.878   5.238  68.495  1.00  0.00    -0.083 A  
HETATM   26  C   UNL     1      -7.180   7.903  68.536  1.00  0.00    -0.085 A  
HETATM   27  F   UNL     1     -10.604   4.873  67.726  1.00  0.00    -0.163 F  
HETATM   28  F   UNL     1     -10.539   6.429  66.235  1.00  0.00    -0.192 F  
HETATM   29  C   UNL     1      -6.511   7.001  69.364  1.00  0.00    -0.043 A  
HETATM   30  C   UNL     1      -6.838   5.657  69.320  1.00  0.00    -0.062 A  
ENDBRANCH  19  20
ENDBRANCH  13  19
BRANCH  18  31
HETATM   31  C   UNL     1     -12.408  10.545  68.878  1.00  0.00     0.537 C  
BRANCH  31  32
HETATM   32  C   UNL     1     -12.332  10.900  70.399  1.00  0.00    -0.351 C  
BRANCH  32  33
HETATM   33  N   UNL     1     -11.593  12.157  70.696  1.00  0.00    -0.295 NA 
HETATM   34  H   UNL     1     -11.221  12.559  69.836  1.00  0.00     0.000 HD 
BRANCH  33  35
HETATM   35  C   UNL     1     -12.355  13.162  71.431  1.00  0.00    -0.043 C  
BRANCH  35  36
HETATM   36  C   UNL     1     -12.814  14.290  70.495  1.00  0.00    -0.336 C  
BRANCH  36  37
HETATM   37  C   UNL     1     -12.029  15.588  70.685  1.00  0.00    -0.416 C  
HETATM   38  O   UNL     1      -9.832  15.910  69.748  1.00  0.00    -0.262 OA 
HETATM   39  C   UNL     1     -11.040  15.837  69.577  1.00  0.00    -0.306 C  
HETATM   40  O   UNL     1     -11.613  16.028  68.370  1.00  0.00    -0.364 OA 
ENDBRANCH  36  37
ENDBRANCH  35  36
ENDBRANCH  33  35
ENDBRANCH  32  33
BRANCH  32  41
HETATM   41  C   UNL     1     -11.687   9.784  71.228  1.00  0.00    -0.472 A  
HETATM   42  C   UNL     1     -11.922   7.869  72.713  1.00  0.00    -0.223 A  
HETATM   43  C   UNL     1      -9.722   8.681  72.168  1.00  0.00    -0.383 A  
HETATM   44  C   UNL     1     -12.493   8.863  71.913  1.00  0.00    -0.445 A  
HETATM   45  C   UNL     1     -10.290   9.669  71.359  1.00  0.00    -0.047 A  
HETATM   46  C   UNL     1     -10.538   7.779  72.844  1.00  0.00    -0.428 A  
ENDBRANCH  32  41
ENDBRANCH  31  32
ENDBRANCH  18  31
ENDBRANCH   6  10
ENDBRANCH   2   3
TORSDOF 11
ENDMDL
MODEL      108
REMARK 921   NORMALIZED FREE ENERGY PREDICTED BY IDOCK:   -4.54 KCAL/MOL
REMARK 922        TOTAL FREE ENERGY PREDICTED BY IDOCK:  -10.52 KCAL/MOL
REMARK 923 INTER-LIGAND FREE ENERGY PREDICTED BY IDOCK:   -9.08 KCAL/MOL
REMARK 924 INTRA-LIGAND FREE ENERGY PREDICTED BY IDOCK:   -1.43 KCAL/MOL
REMARK 927      BINDING AFFINITY PREDICTED BY RF-SCORE:    0.00 PKD
ROOT
HETATM    1  C   UNL     1      -9.994   8.453  72.883  1.00  0.00    -0.139 C  
HETATM    2  O   UNL     1     -10.760   8.119  71.720  1.00  0.00    -0.227 OA 
ENDROOT
BRANCH   2   3
HETATM    3  C   UNL     1     -11.151   9.191  70.962  1.00  0.00    -0.305 A  
HETATM    4  C   UNL     1     -10.164   9.821  70.191  1.00  0.00    -0.275 A  
HETATM    5  F   UNL     1      -8.901   9.360  70.232  1.00  0.00    -0.167 F  
HETATM    6  C   UNL     1     -10.476  10.912  69.369  1.00  0.00    -0.205 A  
HETATM    7  C   UNL     1     -11.793  11.394  69.349  1.00  0.00    -0.419 A  
HETATM    8  C   UNL     1     -12.457   9.694  70.947  1.00  0.00    -0.320 A  
HETATM    9  C   UNL     1     -12.773  10.787  70.139  1.00  0.00    -0.232 A  
BRANCH   6  10
HETATM   10  C   UNL     1      -9.454  11.515  68.487  1.00  0.00    -0.175 C  
HETATM   11  C   UNL     1      -9.915  13.845  69.306  1.00  0.00     0.235 C  
HETATM   12  C   UNL     1      -9.189  12.839  68.437  1.00  0.00    -0.136 C  
HETATM   13  N   UNL     1      -8.176  13.314  67.593  1.00  0.00    -0.165 N  
HETATM   14  C   UNL     1      -7.238  12.454  67.016  1.00  0.00    -0.008 C  
HETATM   15  C   UNL     1      -8.724  10.611  67.548  1.00  0.00    -0.125 C  
HETATM   16  O   UNL     1      -6.148  12.858  66.600  1.00  0.00     0.219 OA 
HETATM   17  O   UNL     1      -9.126   9.464  67.352  1.00  0.00    -0.126 OA 
HETATM   18  N   UNL     1      -7.597  11.125  66.942  1.00  0.00    -0.138 N  
BRANCH  13  19
HETATM   19  C   UNL     1      -7.937  14.746  67.375  1.00  0.00    -0.197 C  
BRANCH  19  20
HETATM   20  C   UNL     1      -9.095  15.573  66.828  1.00  0.00    -0.282 A  
HETATM   21  F   UNL     1      -8.006  18.598  68.239  1.00  0.00    -0.282 F  
HETATM   22  C   UNL     1      -8.810  17.538  68.522  1.00  0.00    -0.282 C  
HETATM   23  C   UNL     1      -9.372  16.890  67.270  1.00  0.00    -0.238 A  
HETATM   24  F   UNL     1      -9.654  13.839  65.289  1.00  0.00    -0.212 F  
HETATM   25  C   UNL     1     -10.257  17.698  66.513  1.00  0.00    -0.355 A  
HETATM   26  C   UNL     1      -9.811  15.100  65.710  1.00  0.00    -0.351 A  
HETATM   27  F   UNL     1      -9.806  18.030  69.314  1.00  0.00    -0.282 F  
HETATM   28  F   UNL     1      -8.087  16.727  69.334  1.00  0.00    -0.204 F  
HETATM   29  C   UNL     1     -10.707  15.899  65.000  1.00  0.00    -0.426 A  
HETATM   30  C   UNL     1     -10.907  17.214  65.382  1.00  0.00    -0.051 A  
ENDBRANCH  19  20
ENDBRANCH  13  19
BRANCH  18  31
HETATM   31  C   UNL     1      -6.749  10.220  66.159  1.00  0.00    -0.110 C  
BRANCH  31  32
HETATM   32  C   UNL     1      -7.201   9.995  64.679  1.00  0.00    -0.140 C  
BRANCH  32  33
HETATM   33  N   UNL     1      -8.581  10.470  64.385  1.00  0.00    -0.237 NA 
HETATM   34  H   UNL     1      -8.784  11.315  64.918  1.00  0.00     0.000 HD 
BRANCH  33  35
HETATM   35  C   UNL     1      -8.870  10.685  62.970  1.00  0.00    -0.234 C  
BRANCH  35  36
HETATM   36  C   UNL     1     -10.372  10.929  62.753  1.00  0.00     0.140 C  
BRANCH  36  37
HETATM   37  C   UNL     1     -11.029  11.700  63.898  1.00  0.00    -0.478 C  
HETATM   38  O   UNL     1     -12.408  13.639  63.515  1.00  0.00    -0.696 OA 
HETATM   39  C   UNL     1     -12.277  12.426  63.469  1.00  0.00    -0.563 C  
HETATM   40  O   UNL     1     -13.274  11.605  63.073  1.00  0.00    -0.411 OA 
ENDBRANCH  36  37
ENDBRANCH  35  36
ENDBRANCH  33  35
ENDBRANCH  32  33
BRANCH  32  41
HETATM   41  C   UNL     1      -7.125   8.524  64.261  1.00  0.00    -0.082 A  
HETATM   42  C   UNL     1      -6.208   6.800  62.806  1.00  0.00    -0.039 A  
HETATM   43  C   UNL     1      -7.897   6.213  64.419  1.00  0.00    -0.114 A  
HETATM   44  C   UNL     1      -6.256   8.129  63.233  1.00  0.00    -0.073 A  
HETATM   45  C   UNL     1      -7.938   7.540  64.856  1.00  0.00    -0.132 A  
HETATM   46  C   UNL     1      -7.031   5.842  63.395  1.00  0.00    -0.041 A  
ENDBRANCH  32  41
ENDBRANCH  31  32
ENDBRANCH  18  31
ENDBRANCH   6  10
ENDBRANCH   2   3
TORSDOF 11
ENDMDL
MODEL      109
REMARK 921   NORMALIZED FREE ENERGY PREDICTED BY IDOCK:   -4.53 KCAL/MOL
REMARK 922        TOTAL FREE ENERGY PREDICTED BY IDOCK:  -10.50 KCAL/MOL
REMARK 923 INTER-LIGAND FREE ENERGY PREDICTED BY IDOCK:   -8.10 KCAL/MOL
REMARK 924 INTRA-LIGAND FREE ENERGY PREDICTED BY IDOCK:   -2.40 KCAL/MOL
REMARK 927      BINDING AFFINITY PREDICTED BY RF-SCORE:    0.00 PKD
ROOT
HETATM    1  C   UNL     1     -10.556   3.413  63.262  1.00  0.00    -0.243 C  
HETATM    2  O   UNL     1      -9.720   3.450  64.424  1.00  0.00    -0.152 OA 
ENDROOT
BRANCH   2   3
HETATM    3  C   UNL     1      -9.027   4.619  64.596  1.00  0.00    -0.151 A  
HETATM    4  C   UNL     1      -9.277   5.341  65.772  1.00  0.00    -0.151 A  
HETATM    5  F   UNL     1     -10.172   4.870  66.659  1.00  0.00    -0.185 F  
HETATM    6  C   UNL     1      -8.599   6.538  66.043  1.00  0.00    -0.150 A  
HETATM    7  C   UNL     1      -7.682   7.027  65.103  1.00  0.00    -0.113 A  
HETATM    8  C   UNL     1      -8.123   5.129  63.658  1.00  0.00    -0.111 A  
HETATM    9  C   UNL     1      -7.452   6.325  63.916  1.00  0.00    -0.080 A  
BRANCH   6  10
HETATM   10  C   UNL     1      -8.796   7.249  67.324  1.00  0.00    -0.124 C  
HETATM   11  C   UNL     1      -7.327   5.659  68.599  1.00  0.00    -0.079 C  
HETATM   12  C   UNL     1      -8.237   6.866  68.493  1.00  0.00    -0.121 C  
HETATM   13  N   UNL     1      -8.454   7.625  69.650  1.00  0.00    -0.133 N  
HETATM   14  C   UNL     1      -8.987   8.915  69.593  1.00  0.00    -0.147 C  
HETATM   15  C   UNL     1      -9.725   8.419  67.335  1.00  0.00    -0.170 C  
HETATM   16  O   UNL     1      -8.838   9.727  70.511  1.00  0.00    -0.182 OA 
HETATM   17  O   UNL     1     -10.473   8.628  66.379  1.00  0.00    -0.205 OA 
HETATM   18  N   UNL     1      -9.686   9.232  68.447  1.00  0.00    -0.151 N  
BRANCH  13  19
HETATM   19  C   UNL     1      -8.006   7.187  70.978  1.00  0.00    -0.103 C  
BRANCH  19  20
HETATM   20  C   UNL     1      -8.759   6.029  71.623  1.00  0.00    -0.135 A  
HETATM   21  F   UNL     1      -6.148   5.137  73.795  1.00  0.00    -0.039 F  
HETATM   22  C   UNL     1      -6.628   4.845  72.556  1.00  0.00    -0.048 C  
HETATM   23  C   UNL     1      -8.125   5.069  72.450  1.00  0.00    -0.109 A  
HETATM   24  F   UNL     1     -10.823   6.830  70.739  1.00  0.00    -0.243 F  
HETATM   25  C   UNL     1      -8.924   4.215  73.250  1.00  0.00    -0.108 A  
HETATM   26  C   UNL     1     -10.166   6.002  71.560  1.00  0.00    -0.204 A  
HETATM   27  F   UNL     1      -6.306   3.538  72.333  1.00  0.00    -0.012 F  
HETATM   28  F   UNL     1      -5.862   5.547  71.684  1.00  0.00    -0.020 F  
HETATM   29  C   UNL     1     -10.936   5.128  72.328  1.00  0.00    -0.209 A  
HETATM   30  C   UNL     1     -10.315   4.253  73.202  1.00  0.00    -0.237 A  
ENDBRANCH  19  20
ENDBRANCH  13  19
BRANCH  18  31
HETATM   31  C   UNL     1     -10.444  10.489  68.423  1.00  0.00    -0.186 C  
BRANCH  31  32
HETATM   32  C   UNL     1      -9.735  11.681  67.701  1.00  0.00    -0.180 C  
BRANCH  32  33
HETATM   33  N   UNL     1      -8.970  12.577  68.610  1.00  0.00    -0.388 NA 
HETATM   34  H   UNL     1      -9.262  12.431  69.576  1.00  0.00     0.000 HD 
BRANCH  33  35
HETATM   35  C   UNL     1      -7.518  12.472  68.501  1.00  0.00    -0.122 C  
BRANCH  35  36
HETATM   36  C   UNL     1      -6.972  13.502  67.501  1.00  0.00    -0.157 C  
BRANCH  36  37
HETATM   37  C   UNL     1      -7.764  14.810  67.489  1.00  0.00    -0.215 C  
HETATM   38  O   UNL     1      -6.941  16.820  68.532  1.00  0.00    -0.153 OA 
HETATM   39  C   UNL     1      -6.882  16.025  67.607  1.00  0.00    -0.159 C  
HETATM   40  O   UNL     1      -6.045  16.192  66.561  1.00  0.00    -0.148 OA 
ENDBRANCH  36  37
ENDBRANCH  35  36
ENDBRANCH  33  35
ENDBRANCH  32  33
BRANCH  32  41
HETATM   41  C   UNL     1     -10.718  12.557  66.917  1.00  0.00    -0.268 A  
HETATM   42  C   UNL     1     -12.268  12.826  65.058  1.00  0.00    -0.527 A  
HETATM   43  C   UNL     1     -11.790  14.708  66.483  1.00  0.00    -0.317 A  
HETATM   44  C   UNL     1     -11.404  12.028  65.814  1.00  0.00    -0.384 A  
HETATM   45  C   UNL     1     -10.935  13.909  67.247  1.00  0.00    -0.299 A  
HETATM   46  C   UNL     1     -12.458  14.166  65.389  1.00  0.00    -0.488 A  
ENDBRANCH  32  41
ENDBRANCH  31  32
ENDBRANCH  18  31
ENDBRANCH   6  10
ENDBRANCH   2   3
TORSDOF 11
ENDMDL
MODEL      110
REMARK 921   NORMALIZED FREE ENERGY PREDICTED BY IDOCK:   -4.48 KCAL/MOL
REMARK 922        TOTAL FREE ENERGY PREDICTED BY IDOCK:  -10.42 KCAL/MOL
REMARK 923 INTER-LIGAND FREE ENERGY PREDICTED BY IDOCK:   -8.27 KCAL/MOL
REMARK 924 INTRA-LIGAND FREE ENERGY PREDICTED BY IDOCK:   -2.15 KCAL/MOL
REMARK 927      BINDING AFFINITY PREDICTED BY RF-SCORE:    0.00 PKD
ROOT
HETATM    1  C   UNL     1     -12.442  14.436  64.946  1.00  0.00    -0.357 C  
HETATM    2  O   UNL     1     -11.262  13.673  64.677  1.00  0.00    -0.343 OA 
ENDROOT
BRANCH   2   3
HETATM    3  C   UNL     1     -10.490  13.400  65.776  1.00  0.00    -0.290 A  
HETATM    4  C   UNL     1     -10.704  12.172  66.417  1.00  0.00    -0.257 A  
HETATM    5  F   UNL     1     -11.642  11.333  65.941  1.00  0.00    -0.217 F  
HETATM    6  C   UNL     1      -9.948  11.799  67.536  1.00  0.00    -0.204 A  
HETATM    7  C   UNL     1      -8.986  12.690  68.034  1.00  0.00    -0.200 A  
HETATM    8  C   UNL     1      -9.540  14.288  66.294  1.00  0.00    -0.310 A  
HETATM    9  C   UNL     1      -8.790  13.928  67.415  1.00  0.00    -0.209 A  
BRANCH   6  10
HETATM   10  C   UNL     1     -10.111  10.467  68.154  1.00  0.00    -0.179 C  
HETATM   11  C   UNL     1     -11.413  11.370  70.104  1.00  0.00    -0.302 C  
HETATM   12  C   UNL     1     -10.763  10.249  69.318  1.00  0.00    -0.234 C  
HETATM   13  N   UNL     1     -10.896   8.944  69.807  1.00  0.00    -0.227 N  
HETATM   14  C   UNL     1     -10.635   7.828  69.007  1.00  0.00    -0.166 C  
HETATM   15  C   UNL     1      -9.454   9.303  67.484  1.00  0.00    -0.132 C  
HETATM   16  O   UNL     1     -11.094   6.713  69.268  1.00  0.00    -0.282 OA 
HETATM   17  O   UNL     1      -8.620   9.487  66.597  1.00  0.00    -0.131 OA 
HETATM   18  N   UNL     1      -9.840   8.048  67.902  1.00  0.00    -0.160 N  
BRANCH  13  19
HETATM   19  C   UNL     1     -11.455   8.650  71.133  1.00  0.00    -0.280 C  
BRANCH  19  20
HETATM   20  C   UNL     1     -11.012   7.358  71.808  1.00  0.00    -0.264 A  
HETATM   21  F   UNL     1      -8.245   8.789  73.428  1.00  0.00    -0.188 F  
HETATM   22  C   UNL     1      -8.569   8.151  72.271  1.00  0.00    -0.175 C  
HETATM   23  C   UNL     1      -9.751   7.216  72.439  1.00  0.00    -0.173 A  
HETATM   24  F   UNL     1     -13.125   6.353  71.353  1.00  0.00    -0.213 F  
HETATM   25  C   UNL     1      -9.532   6.110  73.298  1.00  0.00    -0.143 A  
HETATM   26  C   UNL     1     -11.946   6.318  71.985  1.00  0.00    -0.300 A  
HETATM   27  F   UNL     1      -7.448   7.469  71.898  1.00  0.00    -0.074 F  
HETATM   28  F   UNL     1      -8.712   9.124  71.336  1.00  0.00    -0.244 F  
HETATM   29  C   UNL     1     -11.698   5.217  72.805  1.00  0.00    -0.214 A  
HETATM   30  C   UNL     1     -10.500   5.128  73.492  1.00  0.00    -0.281 A  
ENDBRANCH  19  20
ENDBRANCH  13  19
BRANCH  18  31
HETATM   31  C   UNL     1      -9.360   6.882  67.150  1.00  0.00    -0.141 C  
BRANCH  31  32
HETATM   32  C   UNL     1      -8.067   6.209  67.717  1.00  0.00    -0.113 C  
BRANCH  32  33
HETATM   33  N   UNL     1      -7.075   5.823  66.677  1.00  0.00    -0.068 NA 
HETATM   34  H   UNL     1      -6.847   4.833  66.757  1.00  0.00     0.000 HD 
BRANCH  33  35
HETATM   35  C   UNL     1      -7.462   6.143  65.306  1.00  0.00    -0.084 C  
BRANCH  35  36
HETATM   36  C   UNL     1      -7.763   4.861  64.514  1.00  0.00    -0.083 C  
BRANCH  36  37
HETATM   37  C   UNL     1      -6.603   3.864  64.517  1.00  0.00    -0.043 C  
HETATM   38  O   UNL     1      -6.553   1.957  65.989  1.00  0.00    -0.023 OA 
HETATM   39  C   UNL     1      -7.015   2.496  64.995  1.00  0.00    -0.048 C  
HETATM   40  O   UNL     1      -7.910   1.886  64.190  1.00  0.00    -0.063 OA 
ENDBRANCH  36  37
ENDBRANCH  35  36
ENDBRANCH  33  35
ENDBRANCH  32  33
BRANCH  32  41
HETATM   41  C   UNL     1      -8.375   4.955  68.542  1.00  0.00    -0.083 A  
HETATM   42  C   UNL     1      -9.385   2.745  68.704  1.00  0.00    -0.240 A  
HETATM   43  C   UNL     1      -8.371   3.730  70.654  1.00  0.00    -0.091 A  
HETATM   44  C   UNL     1      -9.053   3.876  67.954  1.00  0.00    -0.187 A  
HETATM   45  C   UNL     1      -8.028   4.857  69.903  1.00  0.00    -0.069 A  
HETATM   46  C   UNL     1      -9.048   2.672  70.054  1.00  0.00    -0.187 A  
ENDBRANCH  32  41
ENDBRANCH  31  32
ENDBRANCH  18  31
ENDBRANCH   6  10
ENDBRANCH   2   3
TORSDOF 11
ENDMDL
MODEL      111
REMARK 921   NORMALIZED FREE ENERGY PREDICTED BY IDOCK:   -4.45 KCAL/MOL
REMARK 922        TOTAL FREE ENERGY PREDICTED BY IDOCK:  -10.38 KCAL/MOL
REMARK 923 INTER-LIGAND FREE ENERGY PREDICTED BY IDOCK:   -9.72 KCAL/MOL
REMARK 924 INTRA-LIGAND FREE ENERGY PREDICTED BY IDOCK:   -0.65 KCAL/MOL
REMARK 927      BINDING AFFINITY PREDICTED BY RF-SCORE:    0.00 PKD
ROOT
HETATM    1  C   UNL     1     -10.561  18.849  65.634  1.00  0.00    -0.177 C  
HETATM    2  O   UNL     1     -10.449  17.422  65.622  1.00  0.00    -0.577 OA 
ENDROOT
BRANCH   2   3
HETATM    3  C   UNL     1     -10.350  16.842  66.859  1.00  0.00    -0.304 A  
HETATM    4  C   UNL     1     -10.022  15.480  66.901  1.00  0.00    -0.247 A  
HETATM    5  F   UNL     1      -9.828  14.812  65.750  1.00  0.00    -0.298 F  
HETATM    6  C   UNL     1      -9.879  14.808  68.122  1.00  0.00    -0.221 A  
HETATM    7  C   UNL     1     -10.102  15.511  69.315  1.00  0.00    -0.256 A  
HETATM    8  C   UNL     1     -10.588  17.527  68.056  1.00  0.00    -0.384 A  
HETATM    9  C   UNL     1     -10.458  16.862  69.277  1.00  0.00    -0.319 A  
BRANCH   6  10
HETATM   10  C   UNL     1      -9.443  13.396  68.166  1.00  0.00    -0.218 C  
HETATM   11  C   UNL     1      -7.105  13.945  67.427  1.00  0.00    -0.091 C  
HETATM   12  C   UNL     1      -8.196  12.982  67.849  1.00  0.00    -0.166 C  
HETATM   13  N   UNL     1      -7.866  11.625  67.955  1.00  0.00    -0.121 N  
HETATM   14  C   UNL     1      -8.680  10.722  68.644  1.00  0.00    -0.152 C  
HETATM   15  C   UNL     1     -10.463  12.362  68.515  1.00  0.00    -0.228 C  
HETATM   16  O   UNL     1      -8.250   9.647  69.072  1.00  0.00    -0.103 OA 
HETATM   17  O   UNL     1     -11.660  12.651  68.528  1.00  0.00    -0.278 OA 
HETATM   18  N   UNL     1      -9.992  11.104  68.824  1.00  0.00    -0.201 N  
BRANCH  13  19
HETATM   19  C   UNL     1      -6.584  11.085  67.484  1.00  0.00    -0.068 C  
BRANCH  19  20
HETATM   20  C   UNL     1      -6.582   9.660  66.943  1.00  0.00    -0.067 A  
HETATM   21  F   UNL     1      -7.386  10.579  63.651  1.00  0.00    -0.132 F  
HETATM   22  C   UNL     1      -7.988  10.208  64.813  1.00  0.00    -0.146 C  
HETATM   23  C   UNL     1      -7.098   9.324  65.667  1.00  0.00    -0.082 A  
HETATM   24  F   UNL     1      -5.434   8.886  68.884  1.00  0.00    -0.035 F  
HETATM   25  C   UNL     1      -6.790   8.057  65.112  1.00  0.00    -0.058 A  
HETATM   26  C   UNL     1      -5.879   8.659  67.642  1.00  0.00    -0.043 A  
HETATM   27  F   UNL     1      -9.128   9.554  64.447  1.00  0.00    -0.235 F  
HETATM   28  F   UNL     1      -8.415  11.356  65.396  1.00  0.00    -0.105 F  
HETATM   29  C   UNL     1      -5.618   7.403  67.094  1.00  0.00    -0.030 A  
HETATM   30  C   UNL     1      -6.045   7.111  65.811  1.00  0.00    -0.037 A  
ENDBRANCH  19  20
ENDBRANCH  13  19
BRANCH  18  31
HETATM   31  C   UNL     1     -10.938  10.111  69.348  1.00  0.00    -0.245 C  
BRANCH  31  32
HETATM   32  C   UNL     1     -10.437   8.631  69.314  1.00  0.00    -0.217 C  
BRANCH  32  33
HETATM   33  N   UNL     1     -11.080   7.794  68.264  1.00  0.00    -0.379 NA 
HETATM   34  H   UNL     1     -12.072   8.016  68.195  1.00  0.00     0.000 HD 
BRANCH  33  35
HETATM   35  C   UNL     1     -10.454   7.870  66.947  1.00  0.00    -0.318 C  
BRANCH  35  36
HETATM   36  C   UNL     1      -9.576   6.635  66.690  1.00  0.00    -0.207 C  
BRANCH  36  37
HETATM   37  C   UNL     1     -10.348   5.318  66.777  1.00  0.00    -0.320 C  
HETATM   38  O   UNL     1     -11.186   4.189  64.819  1.00  0.00    -0.318 OA 
HETATM   39  C   UNL     1     -10.234   4.494  65.521  1.00  0.00    -0.231 C  
HETATM   40  O   UNL     1      -8.978   4.069  65.262  1.00  0.00    -0.122 OA 
ENDBRANCH  36  37
ENDBRANCH  35  36
ENDBRANCH  33  35
ENDBRANCH  32  33
BRANCH  32  41
HETATM   41  C   UNL     1     -10.637   7.915  70.654  1.00  0.00    -0.221 A  
HETATM   42  C   UNL     1     -10.389   7.889  73.076  1.00  0.00    -0.401 A  
HETATM   43  C   UNL     1     -11.279   5.952  71.956  1.00  0.00    -0.330 A  
HETATM   44  C   UNL     1     -10.259   8.545  71.849  1.00  0.00    -0.369 A  
HETATM   45  C   UNL     1     -11.161   6.611  70.729  1.00  0.00    -0.366 A  
HETATM   46  C   UNL     1     -10.894   6.592  73.130  1.00  0.00    -0.298 A  
ENDBRANCH  32  41
ENDBRANCH  31  32
ENDBRANCH  18  31
ENDBRANCH   6  10
ENDBRANCH   2   3
TORSDOF 11
ENDMDL
MODEL      112
REMARK 921   NORMALIZED FREE ENERGY PREDICTED BY IDOCK:   -4.44 KCAL/MOL
REMARK 922        TOTAL FREE ENERGY PREDICTED BY IDOCK:  -10.36 KCAL/MOL
REMARK 923 INTER-LIGAND FREE ENERGY PREDICTED BY IDOCK:   -9.21 KCAL/MOL
REMARK 924 INTRA-LIGAND FREE ENERGY PREDICTED BY IDOCK:   -1.15 KCAL/MOL
REMARK 927      BINDING AFFINITY PREDICTED BY RF-SCORE:    0.00 PKD
ROOT
HETATM    1  C   UNL     1      -8.749   4.939  64.389  1.00  0.00    -0.140 C  
HETATM    2  O   UNL     1      -7.447   5.524  64.496  1.00  0.00    -0.062 OA 
ENDROOT
BRANCH   2   3
HETATM    3  C   UNL     1      -7.432   6.814  64.956  1.00  0.00    -0.092 A  
HETATM    4  C   UNL     1      -8.180   7.089  66.110  1.00  0.00    -0.125 A  
HETATM    5  F   UNL     1      -8.871   6.098  66.700  1.00  0.00    -0.116 F  
HETATM    6  C   UNL     1      -8.207   8.376  66.663  1.00  0.00    -0.105 A  
HETATM    7  C   UNL     1      -7.497   9.405  66.028  1.00  0.00    -0.096 A  
HETATM    8  C   UNL     1      -6.743   7.854  64.322  1.00  0.00    -0.060 A  
HETATM    9  C   UNL     1      -6.773   9.141  64.861  1.00  0.00    -0.073 A  
BRANCH   6  10
HETATM   10  C   UNL     1      -8.921   8.643  67.930  1.00  0.00    -0.142 C  
HETATM   11  C   UNL     1      -7.228   7.403  69.313  1.00  0.00    -0.080 C  
HETATM   12  C   UNL     1      -8.501   8.207  69.139  1.00  0.00    -0.135 C  
HETATM   13  N   UNL     1      -9.227   8.540  70.289  1.00  0.00    -0.154 N  
HETATM   14  C   UNL     1     -10.205   9.539  70.277  1.00  0.00    -0.260 C  
HETATM   15  C   UNL     1     -10.219   9.379  67.856  1.00  0.00    -0.211 C  
HETATM   16  O   UNL     1     -10.576  10.104  71.310  1.00  0.00     0.099 OA 
HETATM   17  O   UNL     1     -10.780   9.540  66.772  1.00  0.00    -0.174 OA 
HETATM   18  N   UNL     1     -10.728   9.861  69.043  1.00  0.00    -0.216 N  
BRANCH  13  19
HETATM   19  C   UNL     1      -8.917   7.978  71.609  1.00  0.00    -0.150 C  
BRANCH  19  20
HETATM   20  C   UNL     1      -9.080   6.472  71.783  1.00  0.00    -0.142 A  
HETATM   21  F   UNL     1     -12.313   6.350  70.417  1.00  0.00    -0.399 F  
HETATM   22  C   UNL     1     -11.684   6.489  71.617  1.00  0.00    -0.324 C  
HETATM   23  C   UNL     1     -10.326   5.814  71.637  1.00  0.00    -0.266 A  
HETATM   24  F   UNL     1      -6.734   6.223  72.128  1.00  0.00    -0.058 F  
HETATM   25  C   UNL     1     -10.348   4.402  71.511  1.00  0.00    -0.096 A  
HETATM   26  C   UNL     1      -7.931   5.666  71.909  1.00  0.00    -0.111 A  
HETATM   27  F   UNL     1     -12.524   5.938  72.540  1.00  0.00    -0.308 F  
HETATM   28  F   UNL     1     -11.689   7.817  71.890  1.00  0.00    -0.266 F  
HETATM   29  C   UNL     1      -7.977   4.274  71.820  1.00  0.00    -0.087 A  
HETATM   30  C   UNL     1      -9.185   3.640  71.587  1.00  0.00    -0.186 A  
ENDBRANCH  19  20
ENDBRANCH  13  19
BRANCH  18  31
HETATM   31  C   UNL     1     -11.900  10.743  68.995  1.00  0.00    -0.254 C  
BRANCH  31  32
HETATM   32  C   UNL     1     -11.582  12.274  68.964  1.00  0.00    -0.316 C  
BRANCH  32  33
HETATM   33  N   UNL     1     -10.132  12.593  68.855  1.00  0.00    -0.425 NA 
HETATM   34  H   UNL     1      -9.573  11.769  69.069  1.00  0.00     0.000 HD 
BRANCH  33  35
HETATM   35  C   UNL     1      -9.721  13.163  67.576  1.00  0.00    -0.213 C  
BRANCH  35  36
HETATM   36  C   UNL     1      -8.922  14.459  67.789  1.00  0.00    -0.192 C  
BRANCH  36  37
HETATM   37  C   UNL     1      -7.800  14.313  68.818  1.00  0.00    -0.128 C  
HETATM   38  O   UNL     1      -6.658  12.223  69.183  1.00  0.00    -0.095 OA 
HETATM   39  C   UNL     1      -6.841  13.202  68.477  1.00  0.00    -0.099 C  
HETATM   40  O   UNL     1      -6.152  13.410  67.335  1.00  0.00    -0.315 OA 
ENDBRANCH  36  37
ENDBRANCH  35  36
ENDBRANCH  33  35
ENDBRANCH  32  33
BRANCH  32  41
HETATM   41  C   UNL     1     -12.121  13.008  70.196  1.00  0.00    -0.377 A  
HETATM   42  C   UNL     1     -13.431  12.982  72.248  1.00  0.00    -0.645 A  
HETATM   43  C   UNL     1     -12.451  15.048  71.495  1.00  0.00    -0.400 A  
HETATM   44  C   UNL     1     -12.890  12.317  71.144  1.00  0.00    -0.302 A  
HETATM   45  C   UNL     1     -11.899  14.384  70.396  1.00  0.00    -0.381 A  
HETATM   46  C   UNL     1     -13.215  14.347  72.423  1.00  0.00    -0.528 A  
ENDBRANCH  32  41
ENDBRANCH  31  32
ENDBRANCH  18  31
ENDBRANCH   6  10
ENDBRANCH   2   3
TORSDOF 11
ENDMDL
MODEL      113
REMARK 921   NORMALIZED FREE ENERGY PREDICTED BY IDOCK:   -4.43 KCAL/MOL
REMARK 922        TOTAL FREE ENERGY PREDICTED BY IDOCK:  -10.34 KCAL/MOL
REMARK 923 INTER-LIGAND FREE ENERGY PREDICTED BY IDOCK:   -9.61 KCAL/MOL
REMARK 924 INTRA-LIGAND FREE ENERGY PREDICTED BY IDOCK:   -0.73 KCAL/MOL
REMARK 927      BINDING AFFINITY PREDICTED BY RF-SCORE:    0.00 PKD
ROOT
HETATM    1  C   UNL     1     -11.047   6.179  73.188  1.00  0.00    -0.185 C  
HETATM    2  O   UNL     1     -10.748   7.575  73.289  1.00  0.00    -0.375 OA 
ENDROOT
BRANCH   2   3
HETATM    3  C   UNL     1     -11.244   8.344  72.270  1.00  0.00    -0.376 A  
HETATM    4  C   UNL     1     -10.484   8.412  71.094  1.00  0.00    -0.212 A  
HETATM    5  F   UNL     1      -9.322   7.738  71.018  1.00  0.00    -0.149 F  
HETATM    6  C   UNL     1     -10.922   9.158  69.992  1.00  0.00    -0.240 A  
HETATM    7  C   UNL     1     -12.126   9.871  70.089  1.00  0.00    -0.095 A  
HETATM    8  C   UNL     1     -12.433   9.076  72.360  1.00  0.00    -0.375 A  
HETATM    9  C   UNL     1     -12.872   9.830  71.271  1.00  0.00    -0.472 A  
BRANCH   6  10
HETATM   10  C   UNL     1     -10.167   9.153  68.722  1.00  0.00    -0.228 C  
HETATM   11  C   UNL     1     -10.760   6.766  68.211  1.00  0.00    -0.290 C  
HETATM   12  C   UNL     1     -10.073   8.081  67.904  1.00  0.00    -0.194 C  
HETATM   13  N   UNL     1      -9.362   8.183  66.702  1.00  0.00    -0.183 N  
HETATM   14  C   UNL     1      -8.985   9.421  66.173  1.00  0.00    -0.161 C  
HETATM   15  C   UNL     1      -9.405  10.387  68.359  1.00  0.00    -0.150 C  
HETATM   16  O   UNL     1      -8.712   9.567  64.979  1.00  0.00    -0.154 OA 
HETATM   17  O   UNL     1      -9.223  11.272  69.196  1.00  0.00    -0.053 OA 
HETATM   18  N   UNL     1      -8.943  10.473  67.064  1.00  0.00    -0.140 N  
BRANCH  13  19
HETATM   19  C   UNL     1      -9.091   7.024  65.843  1.00  0.00    -0.009 C  
BRANCH  19  20
HETATM   20  C   UNL     1      -7.676   6.871  65.299  1.00  0.00    -0.110 A  
HETATM   21  F   UNL     1      -6.475   5.066  68.061  1.00  0.00    -0.038 F  
HETATM   22  C   UNL     1      -6.583   6.345  67.610  1.00  0.00    -0.058 C  
HETATM   23  C   UNL     1      -6.593   6.423  66.095  1.00  0.00    -0.048 A  
HETATM   24  F   UNL     1      -8.410   7.488  63.116  1.00  0.00    -0.119 F  
HETATM   25  C   UNL     1      -5.392   6.018  65.458  1.00  0.00    -0.013 A  
HETATM   26  C   UNL     1      -7.454   6.996  63.913  1.00  0.00    -0.096 A  
HETATM   27  F   UNL     1      -5.514   7.013  68.132  1.00  0.00    -0.016 F  
HETATM   28  F   UNL     1      -7.664   6.873  68.236  1.00  0.00    -0.101 F  
HETATM   29  C   UNL     1      -6.251   6.627  63.309  1.00  0.00    -0.041 A  
HETATM   30  C   UNL     1      -5.227   6.105  64.079  1.00  0.00    -0.017 A  
ENDBRANCH  19  20
ENDBRANCH  13  19
BRANCH  18  31
HETATM   31  C   UNL     1      -8.352  11.739  66.614  1.00  0.00    -0.136 C  
BRANCH  31  32
HETATM   32  C   UNL     1      -9.349  12.939  66.506  1.00  0.00    -0.222 C  
BRANCH  32  33
HETATM   33  N   UNL     1      -9.935  13.364  67.806  1.00  0.00    -0.227 NA 
HETATM   34  H   UNL     1      -9.601  12.761  68.557  1.00  0.00     0.000 HD 
BRANCH  33  35
HETATM   35  C   UNL     1      -9.719  14.765  68.152  1.00  0.00    -0.217 C  
BRANCH  35  36
HETATM   36  C   UNL     1     -10.184  15.049  69.588  1.00  0.00    -0.171 C  
BRANCH  36  37
HETATM   37  C   UNL     1     -11.694  14.900  69.774  1.00  0.00    -0.344 C  
HETATM   38  O   UNL     1     -12.668  14.201  71.864  1.00  0.00    -0.327 OA 
HETATM   39  C   UNL     1     -12.124  15.074  71.207  1.00  0.00    -0.328 C  
HETATM   40  O   UNL     1     -11.900  16.314  71.694  1.00  0.00    -0.477 OA 
ENDBRANCH  36  37
ENDBRANCH  35  36
ENDBRANCH  33  35
ENDBRANCH  32  33
BRANCH  32  41
HETATM   41  C   UNL     1     -10.513  12.647  65.554  1.00  0.00    -0.304 A  
HETATM   42  C   UNL     1     -11.305  11.997  63.344  1.00  0.00    -0.484 A  
HETATM   43  C   UNL     1     -12.900  12.617  65.039  1.00  0.00    -0.242 A  
HETATM   44  C   UNL     1     -10.257  12.221  64.242  1.00  0.00    -0.356 A  
HETATM   45  C   UNL     1     -11.854  12.830  65.942  1.00  0.00    -0.490 A  
HETATM   46  C   UNL     1     -12.625  12.198  63.740  1.00  0.00    -0.585 A  
ENDBRANCH  32  41
ENDBRANCH  31  32
ENDBRANCH  18  31
ENDBRANCH   6  10
ENDBRANCH   2   3
TORSDOF 11
ENDMDL
MODEL      114
REMARK 921   NORMALIZED FREE ENERGY PREDICTED BY IDOCK:   -4.41 KCAL/MOL
REMARK 922        TOTAL FREE ENERGY PREDICTED BY IDOCK:  -10.31 KCAL/MOL
REMARK 923 INTER-LIGAND FREE ENERGY PREDICTED BY IDOCK:   -7.67 KCAL/MOL
REMARK 924 INTRA-LIGAND FREE ENERGY PREDICTED BY IDOCK:   -2.63 KCAL/MOL
REMARK 927      BINDING AFFINITY PREDICTED BY RF-SCORE:    0.00 PKD
ROOT
HETATM    1  C   UNL     1      -9.326  10.042  62.344  1.00  0.00    -0.257 C  
HETATM    2  O   UNL     1      -8.454   9.027  62.851  1.00  0.00    -0.195 OA 
ENDROOT
BRANCH   2   3
HETATM    3  C   UNL     1      -7.629   9.432  63.866  1.00  0.00    -0.118 A  
HETATM    4  C   UNL     1      -8.076   9.215  65.177  1.00  0.00    -0.130 A  
HETATM    5  F   UNL     1      -9.273   8.636  65.379  1.00  0.00    -0.240 F  
HETATM    6  C   UNL     1      -7.290   9.579  66.279  1.00  0.00    -0.093 A  
HETATM    7  C   UNL     1      -6.052  10.197  66.056  1.00  0.00    -0.083 A  
HETATM    8  C   UNL     1      -6.399  10.068  63.659  1.00  0.00    -0.131 A  
HETATM    9  C   UNL     1      -5.615  10.442  64.751  1.00  0.00    -0.137 A  
BRANCH   6  10
HETATM   10  C   UNL     1      -7.723   9.265  67.657  1.00  0.00    -0.092 C  
HETATM   11  C   UNL     1      -6.003   7.456  67.940  1.00  0.00    -0.035 C  
HETATM   12  C   UNL     1      -7.161   8.305  68.424  1.00  0.00    -0.081 C  
HETATM   13  N   UNL     1      -7.617   8.105  69.733  1.00  0.00    -0.088 N  
HETATM   14  C   UNL     1      -8.431   9.039  70.379  1.00  0.00    -0.182 C  
HETATM   15  C   UNL     1      -8.897  10.009  68.205  1.00  0.00    -0.122 C  
HETATM   16  O   UNL     1      -8.529   9.083  71.609  1.00  0.00    -0.339 OA 
HETATM   17  O   UNL     1      -9.614  10.675  67.457  1.00  0.00    -0.159 OA 
HETATM   18  N   UNL     1      -9.114   9.915  69.563  1.00  0.00    -0.209 N  
BRANCH  13  19
HETATM   19  C   UNL     1      -7.159   6.986  70.566  1.00  0.00    -0.064 C  
BRANCH  19  20
HETATM   20  C   UNL     1      -8.154   5.863  70.837  1.00  0.00    -0.120 A  
HETATM   21  F   UNL     1      -8.970   6.948  74.076  1.00  0.00    -0.152 F  
HETATM   22  C   UNL     1      -8.105   6.116  73.434  1.00  0.00    -0.109 C  
HETATM   23  C   UNL     1      -8.670   5.591  72.128  1.00  0.00    -0.130 A  
HETATM   24  F   UNL     1      -8.244   5.333  68.515  1.00  0.00    -0.089 F  
HETATM   25  C   UNL     1      -9.803   4.748  72.253  1.00  0.00    -0.221 A  
HETATM   26  C   UNL     1      -8.736   5.181  69.750  1.00  0.00    -0.099 A  
HETATM   27  F   UNL     1      -7.852   5.100  74.308  1.00  0.00    -0.094 F  
HETATM   28  F   UNL     1      -6.934   6.796  73.341  1.00  0.00    -0.074 F  
HETATM   29  C   UNL     1      -9.827   4.325  69.897  1.00  0.00    -0.267 A  
HETATM   30  C   UNL     1     -10.386   4.133  71.149  1.00  0.00     0.101 A  
ENDBRANCH  19  20
ENDBRANCH  13  19
BRANCH  18  31
HETATM   31  C   UNL     1     -10.140  10.771  70.169  1.00  0.00     0.556 C  
BRANCH  31  32
HETATM   32  C   UNL     1     -11.608  10.472  69.722  1.00  0.00    -0.294 C  
BRANCH  32  33
HETATM   33  N   UNL     1     -12.497  11.666  69.709  1.00  0.00    -0.098 NA 
HETATM   34  H   UNL     1     -13.391  11.444  70.146  1.00  0.00     0.000 HD 
BRANCH  33  35
HETATM   35  C   UNL     1     -11.926  12.866  70.312  1.00  0.00    -0.283 C  
BRANCH  35  36
HETATM   36  C   UNL     1     -13.035  13.844  70.730  1.00  0.00    -0.265 C  
BRANCH  36  37
HETATM   37  C   UNL     1     -12.506  15.080  71.459  1.00  0.00    -0.400 C  
HETATM   38  O   UNL     1     -13.813  16.257  73.106  1.00  0.00    -0.462 OA 
HETATM   39  C   UNL     1     -13.147  15.278  72.808  1.00  0.00    -0.461 C  
HETATM   40  O   UNL     1     -12.874  14.291  73.689  1.00  0.00    -0.442 OA 
ENDBRANCH  36  37
ENDBRANCH  35  36
ENDBRANCH  33  35
ENDBRANCH  32  33
BRANCH  32  41
HETATM   41  C   UNL     1     -12.281   9.410  70.597  1.00  0.00    -0.147 A  
HETATM   42  C   UNL     1     -13.901   8.830  72.321  1.00  0.00    -0.505 A  
HETATM   43  C   UNL     1     -12.460   7.121  71.426  1.00  0.00    -0.427 A  
HETATM   44  C   UNL     1     -13.309   9.776  71.480  1.00  0.00    -0.468 A  
HETATM   45  C   UNL     1     -11.875   8.063  70.575  1.00  0.00    -0.017 A  
HETATM   46  C   UNL     1     -13.475   7.504  72.298  1.00  0.00     0.050 A  
ENDBRANCH  32  41
ENDBRANCH  31  32
ENDBRANCH  18  31
ENDBRANCH   6  10
ENDBRANCH   2   3
TORSDOF 11
ENDMDL
MODEL      115
REMARK 921   NORMALIZED FREE ENERGY PREDICTED BY IDOCK:   -4.39 KCAL/MOL
REMARK 922        TOTAL FREE ENERGY PREDICTED BY IDOCK:  -10.28 KCAL/MOL
REMARK 923 INTER-LIGAND FREE ENERGY PREDICTED BY IDOCK:   -8.49 KCAL/MOL
REMARK 924 INTRA-LIGAND FREE ENERGY PREDICTED BY IDOCK:   -1.79 KCAL/MOL
REMARK 927      BINDING AFFINITY PREDICTED BY RF-SCORE:    0.00 PKD
ROOT
HETATM    1  C   UNL     1      -8.327  16.937  66.079  1.00  0.00    -0.145 C  
HETATM    2  O   UNL     1      -9.613  16.797  66.692  1.00  0.00    -0.236 OA 
ENDROOT
BRANCH   2   3
HETATM    3  C   UNL     1     -10.327  15.700  66.286  1.00  0.00    -0.306 A  
HETATM    4  C   UNL     1     -10.110  14.504  66.984  1.00  0.00    -0.254 A  
HETATM    5  F   UNL     1      -9.225  14.481  67.996  1.00  0.00    -0.172 F  
HETATM    6  C   UNL     1     -10.811  13.336  66.653  1.00  0.00    -0.289 A  
HETATM    7  C   UNL     1     -11.718  13.368  65.584  1.00  0.00    -0.374 A  
HETATM    8  C   UNL     1     -11.221  15.713  65.210  1.00  0.00    -0.236 A  
HETATM    9  C   UNL     1     -11.915  14.552  64.867  1.00  0.00    -0.425 A  
BRANCH   6  10
HETATM   10  C   UNL     1     -10.648  12.102  67.449  1.00  0.00    -0.253 C  
HETATM   11  C   UNL     1     -11.854  13.052  69.438  1.00  0.00    -0.380 C  
HETATM   12  C   UNL     1     -11.105  11.953  68.712  1.00  0.00    -0.245 C  
HETATM   13  N   UNL     1     -10.934  10.731  69.375  1.00  0.00    -0.237 N  
HETATM   14  C   UNL     1     -10.567   9.568  68.690  1.00  0.00    -0.210 C  
HETATM   15  C   UNL     1      -9.871  10.979  66.842  1.00  0.00    -0.191 C  
HETATM   16  O   UNL     1     -10.776   8.443  69.152  1.00  0.00    -0.200 OA 
HETATM   17  O   UNL     1      -9.198  11.167  65.828  1.00  0.00    -0.205 OA 
HETATM   18  N   UNL     1      -9.964   9.752  67.464  1.00  0.00    -0.174 N  
BRANCH  13  19
HETATM   19  C   UNL     1     -11.266  10.547  70.793  1.00  0.00    -0.105 C  
BRANCH  19  20
HETATM   20  C   UNL     1     -12.014   9.276  71.177  1.00  0.00    -0.394 A  
HETATM   21  F   UNL     1      -9.679   8.263  73.596  1.00  0.00    -0.297 F  
HETATM   22  C   UNL     1      -9.955   8.105  72.273  1.00  0.00    -0.263 C  
HETATM   23  C   UNL     1     -11.434   8.256  71.971  1.00  0.00    -0.399 A  
HETATM   24  F   UNL     1     -13.986  10.065  70.094  1.00  0.00    -0.014 F  
HETATM   25  C   UNL     1     -12.273   7.263  72.536  1.00  0.00    -0.010 A  
HETATM   26  C   UNL     1     -13.392   9.178  70.901  1.00  0.00     0.096 A  
HETATM   27  F   UNL     1      -9.508   6.858  71.949  1.00  0.00    -0.144 F  
HETATM   28  F   UNL     1      -9.127   8.955  71.615  1.00  0.00    -0.266 F  
HETATM   29  C   UNL     1     -14.196   8.171  71.437  1.00  0.00    -0.431 A  
HETATM   30  C   UNL     1     -13.642   7.228  72.285  1.00  0.00     0.097 A  
ENDBRANCH  19  20
ENDBRANCH  13  19
BRANCH  18  31
HETATM   31  C   UNL     1      -9.368   8.585  66.802  1.00  0.00    -0.182 C  
BRANCH  31  32
HETATM   32  C   UNL     1      -7.805   8.555  66.782  1.00  0.00    -0.091 C  
BRANCH  32  33
HETATM   33  N   UNL     1      -7.227   7.385  66.067  1.00  0.00    -0.069 NA 
HETATM   34  H   UNL     1      -7.217   6.568  66.678  1.00  0.00     0.000 HD 
BRANCH  33  35
HETATM   35  C   UNL     1      -7.872   7.057  64.799  1.00  0.00    -0.126 C  
BRANCH  35  36
HETATM   36  C   UNL     1      -7.912   5.535  64.587  1.00  0.00    -0.115 C  
BRANCH  36  37
HETATM   37  C   UNL     1      -8.499   4.776  65.777  1.00  0.00    -0.119 C  
HETATM   38  O   UNL     1     -10.758   5.128  66.538  1.00  0.00    -0.300 OA 
HETATM   39  C   UNL     1      -9.998   4.655  65.707  1.00  0.00    -0.230 C  
HETATM   40  O   UNL     1     -10.436   3.921  64.660  1.00  0.00    -0.230 OA 
ENDBRANCH  36  37
ENDBRANCH  35  36
ENDBRANCH  33  35
ENDBRANCH  32  33
BRANCH  32  41
HETATM   41  C   UNL     1      -7.202   8.573  68.190  1.00  0.00    -0.087 A  
HETATM   42  C   UNL     1      -6.668   7.406  70.260  1.00  0.00    -0.047 A  
HETATM   43  C   UNL     1      -6.213   9.763  70.079  1.00  0.00    -0.059 A  
HETATM   44  C   UNL     1      -7.169   7.397  68.955  1.00  0.00    -0.085 A  
HETATM   45  C   UNL     1      -6.704   9.755  68.770  1.00  0.00    -0.050 A  
HETATM   46  C   UNL     1      -6.193   8.588  70.823  1.00  0.00    -0.034 A  
ENDBRANCH  32  41
ENDBRANCH  31  32
ENDBRANCH  18  31
ENDBRANCH   6  10
ENDBRANCH   2   3
TORSDOF 11
ENDMDL
MODEL      116
REMARK 921   NORMALIZED FREE ENERGY PREDICTED BY IDOCK:   -4.39 KCAL/MOL
REMARK 922        TOTAL FREE ENERGY PREDICTED BY IDOCK:  -10.27 KCAL/MOL
REMARK 923 INTER-LIGAND FREE ENERGY PREDICTED BY IDOCK:  -10.54 KCAL/MOL
REMARK 924 INTRA-LIGAND FREE ENERGY PREDICTED BY IDOCK:    0.28 KCAL/MOL
REMARK 927      BINDING AFFINITY PREDICTED BY RF-SCORE:    0.00 PKD
ROOT
HETATM    1  C   UNL     1     -12.354  15.267  72.206  1.00  0.00    -0.370 C  
HETATM    2  O   UNL     1     -12.441  14.575  70.956  1.00  0.00    -0.297 OA 
ENDROOT
BRANCH   2   3
HETATM    3  C   UNL     1     -12.504  13.211  71.057  1.00  0.00    -0.318 A  
HETATM    4  C   UNL     1     -11.668  12.469  70.210  1.00  0.00    -0.116 A  
HETATM    5  F   UNL     1     -10.862  13.114  69.349  1.00  0.00    -0.214 F  
HETATM    6  C   UNL     1     -11.650  11.069  70.257  1.00  0.00    -0.414 A  
HETATM    7  C   UNL     1     -12.509  10.408  71.147  1.00  0.00    -0.509 A  
HETATM    8  C   UNL     1     -13.370  12.537  71.926  1.00  0.00    -0.467 A  
HETATM    9  C   UNL     1     -13.365  11.143  71.972  1.00  0.00    -0.384 A  
BRANCH   6  10
HETATM   10  C   UNL     1     -10.703  10.293  69.430  1.00  0.00    -0.272 C  
HETATM   11  C   UNL     1      -9.441   9.432  71.425  1.00  0.00    -0.021 C  
HETATM   12  C   UNL     1      -9.692   9.552  69.935  1.00  0.00    -0.224 C  
HETATM   13  N   UNL     1      -8.865   8.822  69.072  1.00  0.00    -0.136 N  
HETATM   14  C   UNL     1      -9.212   8.597  67.736  1.00  0.00    -0.134 C  
HETATM   15  C   UNL     1     -10.831  10.394  67.944  1.00  0.00    -0.279 C  
HETATM   16  O   UNL     1      -8.724   7.675  67.079  1.00  0.00    -0.122 OA 
HETATM   17  O   UNL     1     -11.536  11.268  67.440  1.00  0.00    -0.519 OA 
HETATM   18  N   UNL     1     -10.139   9.465  67.197  1.00  0.00    -0.213 N  
BRANCH  13  19
HETATM   19  C   UNL     1      -7.662   8.121  69.535  1.00  0.00    -0.102 C  
BRANCH  19  20
HETATM   20  C   UNL     1      -7.626   7.683  70.995  1.00  0.00    -0.083 A  
HETATM   21  F   UNL     1      -8.858   4.452  70.377  1.00  0.00    -0.097 F  
HETATM   22  C   UNL     1      -9.298   5.701  70.694  1.00  0.00    -0.159 C  
HETATM   23  C   UNL     1      -8.260   6.502  71.456  1.00  0.00    -0.116 A  
HETATM   24  F   UNL     1      -6.216   9.523  71.550  1.00  0.00    -0.077 F  
HETATM   25  C   UNL     1      -7.933   6.003  72.742  1.00  0.00    -0.107 A  
HETATM   26  C   UNL     1      -6.783   8.361  71.897  1.00  0.00    -0.081 A  
HETATM   27  F   UNL     1     -10.426   5.517  71.438  1.00  0.00    -0.258 F  
HETATM   28  F   UNL     1      -9.732   6.249  69.531  1.00  0.00    -0.144 F  
HETATM   29  C   UNL     1      -6.502   7.874  73.174  1.00  0.00    -0.077 A  
HETATM   30  C   UNL     1      -7.052   6.673  73.587  1.00  0.00    -0.080 A  
ENDBRANCH  19  20
ENDBRANCH  13  19
BRANCH  18  31
HETATM   31  C   UNL     1     -10.379   9.411  65.750  1.00  0.00     0.228 C  
BRANCH  31  32
HETATM   32  C   UNL     1      -9.593  10.464  64.904  1.00  0.00    -0.289 C  
BRANCH  32  33
HETATM   33  N   UNL     1     -10.347  10.992  63.734  1.00  0.00    -0.408 NA 
HETATM   34  H   UNL     1     -11.309  10.655  63.754  1.00  0.00     0.000 HD 
BRANCH  33  35
HETATM   35  C   UNL     1     -10.326  12.445  63.591  1.00  0.00    -0.403 C  
BRANCH  35  36
HETATM   36  C   UNL     1     -11.752  13.016  63.627  1.00  0.00    -0.550 C  
BRANCH  36  37
HETATM   37  C   UNL     1     -12.029  13.871  64.864  1.00  0.00    -0.412 C  
HETATM   38  O   UNL     1     -10.670  15.776  65.437  1.00  0.00    -0.368 OA 
HETATM   39  C   UNL     1     -11.525  15.283  64.718  1.00  0.00    -0.363 C  
HETATM   40  O   UNL     1     -12.146  15.984  63.745  1.00  0.00    -0.882 OA 
ENDBRANCH  36  37
ENDBRANCH  35  36
ENDBRANCH  33  35
ENDBRANCH  32  33
BRANCH  32  41
HETATM   41  C   UNL     1      -8.262   9.917  64.380  1.00  0.00    -0.164 A  
HETATM   42  C   UNL     1      -7.048   8.412  62.900  1.00  0.00    -0.091 A  
HETATM   43  C   UNL     1      -5.826   9.767  64.471  1.00  0.00    -0.091 A  
HETATM   44  C   UNL     1      -8.251   8.957  63.356  1.00  0.00    -0.181 A  
HETATM   45  C   UNL     1      -7.027  10.323  64.922  1.00  0.00    -0.101 A  
HETATM   46  C   UNL     1      -5.837   8.812  63.458  1.00  0.00    -0.076 A  
ENDBRANCH  32  41
ENDBRANCH  31  32
ENDBRANCH  18  31
ENDBRANCH   6  10
ENDBRANCH   2   3
TORSDOF 11
ENDMDL
MODEL      117
REMARK 921   NORMALIZED FREE ENERGY PREDICTED BY IDOCK:   -4.39 KCAL/MOL
REMARK 922        TOTAL FREE ENERGY PREDICTED BY IDOCK:  -10.27 KCAL/MOL
REMARK 923 INTER-LIGAND FREE ENERGY PREDICTED BY IDOCK:   -9.26 KCAL/MOL
REMARK 924 INTRA-LIGAND FREE ENERGY PREDICTED BY IDOCK:   -1.00 KCAL/MOL
REMARK 927      BINDING AFFINITY PREDICTED BY RF-SCORE:    0.00 PKD
ROOT
HETATM    1  C   UNL     1      -8.178   7.907  74.325  1.00  0.00    -0.251 C  
HETATM    2  O   UNL     1      -8.182   8.187  72.921  1.00  0.00    -0.152 OA 
ENDROOT
BRANCH   2   3
HETATM    3  C   UNL     1      -9.424   8.240  72.348  1.00  0.00    -0.287 A  
HETATM    4  C   UNL     1      -9.559   9.015  71.188  1.00  0.00    -0.286 A  
HETATM    5  F   UNL     1      -8.488   9.665  70.700  1.00  0.00    -0.213 F  
HETATM    6  C   UNL     1     -10.788   9.111  70.522  1.00  0.00    -0.306 A  
HETATM    7  C   UNL     1     -11.902   8.443  71.050  1.00  0.00    -0.278 A  
HETATM    8  C   UNL     1     -10.549   7.594  72.875  1.00  0.00    -0.411 A  
HETATM    9  C   UNL     1     -11.779   7.693  72.223  1.00  0.00    -0.371 A  
BRANCH   6  10
HETATM   10  C   UNL     1     -10.906   9.853  69.249  1.00  0.00    -0.255 C  
HETATM   11  C   UNL     1     -11.994  11.838  70.339  1.00  0.00    -0.422 C  
HETATM   12  C   UNL     1     -11.454  11.084  69.141  1.00  0.00    -0.301 C  
HETATM   13  N   UNL     1     -11.490  11.723  67.895  1.00  0.00    -0.303 N  
HETATM   14  C   UNL     1     -10.731  11.268  66.813  1.00  0.00    -0.275 C  
HETATM   15  C   UNL     1     -10.455   9.169  67.999  1.00  0.00    -0.224 C  
HETATM   16  O   UNL     1     -10.449  11.997  65.858  1.00  0.00    -0.240 OA 
HETATM   17  O   UNL     1     -10.223   7.959  68.003  1.00  0.00    -0.192 OA 
HETATM   18  N   UNL     1     -10.309   9.957  66.878  1.00  0.00    -0.239 N  
BRANCH  13  19
HETATM   19  C   UNL     1     -12.202  12.988  67.676  1.00  0.00    -0.050 C  
BRANCH  19  20
HETATM   20  C   UNL     1     -11.430  14.119  67.008  1.00  0.00    -0.370 A  
HETATM   21  F   UNL     1      -8.748  14.041  69.274  1.00  0.00     0.021 F  
HETATM   22  C   UNL     1      -9.946  14.659  69.086  1.00  0.00    -0.143 C  
HETATM   23  C   UNL     1     -10.321  14.756  67.619  1.00  0.00    -0.237 A  
HETATM   24  F   UNL     1     -12.769  13.923  65.046  1.00  0.00    -0.421 F  
HETATM   25  C   UNL     1      -9.475  15.573  66.829  1.00  0.00    -0.257 A  
HETATM   26  C   UNL     1     -11.693  14.430  65.659  1.00  0.00    -0.356 A  
HETATM   27  F   UNL     1      -9.815  15.897  69.645  1.00  0.00    -0.238 F  
HETATM   28  F   UNL     1     -10.831  14.008  69.882  1.00  0.00    -0.167 F  
HETATM   29  C   UNL     1     -10.869  15.267  64.907  1.00  0.00    -0.444 A  
HETATM   30  C   UNL     1      -9.737  15.815  65.483  1.00  0.00    -0.255 A  
ENDBRANCH  19  20
ENDBRANCH  13  19
BRANCH  18  31
HETATM   31  C   UNL     1      -9.695   9.366  65.682  1.00  0.00    -0.266 C  
BRANCH  31  32
HETATM   32  C   UNL     1      -8.247   9.861  65.362  1.00  0.00    -0.139 C  
BRANCH  32  33
HETATM   33  N   UNL     1      -7.493   8.978  64.430  1.00  0.00    -0.102 NA 
HETATM   34  H   UNL     1      -6.619   8.677  64.860  1.00  0.00     0.000 HD 
BRANCH  33  35
HETATM   35  C   UNL     1      -8.237   7.822  63.938  1.00  0.00     0.012 C  
BRANCH  35  36
HETATM   36  C   UNL     1      -7.302   6.620  63.737  1.00  0.00    -0.072 C  
BRANCH  36  37
HETATM   37  C   UNL     1      -8.025   5.371  63.231  1.00  0.00    -0.099 C  
HETATM   38  O   UNL     1      -7.241   3.146  63.721  1.00  0.00    -0.048 OA 
HETATM   39  C   UNL     1      -7.788   4.168  64.106  1.00  0.00    -0.085 C  
HETATM   40  O   UNL     1      -8.286   4.298  65.354  1.00  0.00    -0.108 OA 
ENDBRANCH  36  37
ENDBRANCH  35  36
ENDBRANCH  33  35
ENDBRANCH  32  33
BRANCH  32  41
HETATM   41  C   UNL     1      -7.394  10.028  66.624  1.00  0.00    -0.103 A  
HETATM   42  C   UNL     1      -6.151  11.472  68.140  1.00  0.00    -0.045 A  
HETATM   43  C   UNL     1      -6.155   9.092  68.507  1.00  0.00    -0.045 A  
HETATM   44  C   UNL     1      -6.970  11.305  67.020  1.00  0.00    -0.126 A  
HETATM   45  C   UNL     1      -6.983   8.924  67.394  1.00  0.00    -0.075 A  
HETATM   46  C   UNL     1      -5.740  10.367  68.882  1.00  0.00    -0.041 A  
ENDBRANCH  32  41
ENDBRANCH  31  32
ENDBRANCH  18  31
ENDBRANCH   6  10
ENDBRANCH   2   3
TORSDOF 11
ENDMDL
MODEL      118
REMARK 921   NORMALIZED FREE ENERGY PREDICTED BY IDOCK:   -4.37 KCAL/MOL
REMARK 922        TOTAL FREE ENERGY PREDICTED BY IDOCK:  -10.24 KCAL/MOL
REMARK 923 INTER-LIGAND FREE ENERGY PREDICTED BY IDOCK:   -7.92 KCAL/MOL
REMARK 924 INTRA-LIGAND FREE ENERGY PREDICTED BY IDOCK:   -2.32 KCAL/MOL
REMARK 927      BINDING AFFINITY PREDICTED BY RF-SCORE:    0.00 PKD
ROOT
HETATM    1  C   UNL     1     -10.733   3.669  64.181  1.00  0.00    -0.210 C  
HETATM    2  O   UNL     1      -9.513   3.351  64.860  1.00  0.00    -0.148 OA 
ENDROOT
BRANCH   2   3
HETATM    3  C   UNL     1      -8.761   4.435  65.228  1.00  0.00    -0.128 A  
HETATM    4  C   UNL     1      -9.250   5.223  66.280  1.00  0.00    -0.149 A  
HETATM    5  F   UNL     1     -10.414   4.893  66.866  1.00  0.00    -0.242 F  
HETATM    6  C   UNL     1      -8.537   6.340  66.738  1.00  0.00    -0.116 A  
HETATM    7  C   UNL     1      -7.334   6.684  66.107  1.00  0.00    -0.076 A  
HETATM    8  C   UNL     1      -7.568   4.801  64.595  1.00  0.00    -0.076 A  
HETATM    9  C   UNL     1      -6.858   5.917  65.038  1.00  0.00    -0.048 A  
BRANCH   6  10
HETATM   10  C   UNL     1      -9.008   7.114  67.906  1.00  0.00    -0.122 C  
HETATM   11  C   UNL     1      -7.715   5.710  69.540  1.00  0.00    -0.091 C  
HETATM   12  C   UNL     1      -8.655   6.843  69.182  1.00  0.00    -0.128 C  
HETATM   13  N   UNL     1      -9.125   7.656  70.221  1.00  0.00    -0.149 N  
HETATM   14  C   UNL     1      -9.708   8.902  69.973  1.00  0.00    -0.174 C  
HETATM   15  C   UNL     1      -9.985   8.217  67.662  1.00  0.00    -0.190 C  
HETATM   16  O   UNL     1      -9.777   9.777  70.841  1.00  0.00    -0.151 OA 
HETATM   17  O   UNL     1     -10.552   8.315  66.573  1.00  0.00    -0.193 OA 
HETATM   18  N   UNL     1     -10.198   9.099  68.700  1.00  0.00    -0.199 N  
BRANCH  13  19
HETATM   19  C   UNL     1      -8.908   7.333  71.637  1.00  0.00    -0.117 C  
BRANCH  19  20
HETATM   20  C   UNL     1      -9.644   6.122  72.198  1.00  0.00    -0.162 A  
HETATM   21  F   UNL     1      -7.161   5.315  74.547  1.00  0.00    -0.078 F  
HETATM   22  C   UNL     1      -7.529   5.029  73.269  1.00  0.00    -0.088 C  
HETATM   23  C   UNL     1      -9.023   5.176  73.051  1.00  0.00    -0.119 A  
HETATM   24  F   UNL     1     -11.675   6.834  71.174  1.00  0.00    -0.309 F  
HETATM   25  C   UNL     1      -9.834   4.262  73.770  1.00  0.00    -0.157 A  
HETATM   26  C   UNL     1     -11.038   6.022  72.026  1.00  0.00    -0.274 A  
HETATM   27  F   UNL     1      -7.120   3.747  73.044  1.00  0.00    -0.045 F  
HETATM   28  F   UNL     1      -6.738   5.792  72.473  1.00  0.00    -0.060 F  
HETATM   29  C   UNL     1     -11.816   5.090  72.714  1.00  0.00    -0.072 A  
HETATM   30  C   UNL     1     -11.216   4.228  73.615  1.00  0.00    -0.325 A  
ENDBRANCH  19  20
ENDBRANCH  13  19
BRANCH  18  31
HETATM   31  C   UNL     1     -11.006  10.298  68.445  1.00  0.00    -0.260 C  
BRANCH  31  32
HETATM   32  C   UNL     1     -10.207  11.549  67.954  1.00  0.00    -0.184 C  
BRANCH  32  33
HETATM   33  N   UNL     1     -10.871  12.303  66.856  1.00  0.00    -0.243 NA 
HETATM   34  H   UNL     1     -11.843  12.009  66.763  1.00  0.00     0.000 HD 
BRANCH  33  35
HETATM   35  C   UNL     1     -10.794  13.757  66.972  1.00  0.00    -0.284 C  
BRANCH  35  36
HETATM   36  C   UNL     1     -12.019  14.308  67.718  1.00  0.00    -0.384 C  
BRANCH  36  37
HETATM   37  C   UNL     1     -11.652  15.115  68.964  1.00  0.00    -0.350 C  
HETATM   38  O   UNL     1     -13.179  15.395  70.807  1.00  0.00    -0.451 OA 
HETATM   39  C   UNL     1     -12.414  14.674  70.187  1.00  0.00    -0.317 C  
HETATM   40  O   UNL     1     -12.133  13.411  70.575  1.00  0.00    -0.349 OA 
ENDBRANCH  36  37
ENDBRANCH  35  36
ENDBRANCH  33  35
ENDBRANCH  32  33
BRANCH  32  41
HETATM   41  C   UNL     1      -8.797  11.191  67.475  1.00  0.00    -0.139 A  
HETATM   42  C   UNL     1      -7.306  10.474  65.688  1.00  0.00    -0.126 A  
HETATM   43  C   UNL     1      -6.433  10.766  67.912  1.00  0.00    -0.062 A  
HETATM   44  C   UNL     1      -8.577  10.851  66.132  1.00  0.00    -0.170 A  
HETATM   45  C   UNL     1      -7.700  11.154  68.357  1.00  0.00    -0.125 A  
HETATM   46  C   UNL     1      -6.235  10.428  66.577  1.00  0.00    -0.078 A  
ENDBRANCH  32  41
ENDBRANCH  31  32
ENDBRANCH  18  31
ENDBRANCH   6  10
ENDBRANCH   2   3
TORSDOF 11
ENDMDL
MODEL      119
REMARK 921   NORMALIZED FREE ENERGY PREDICTED BY IDOCK:   -4.36 KCAL/MOL
REMARK 922        TOTAL FREE ENERGY PREDICTED BY IDOCK:  -10.22 KCAL/MOL
REMARK 923 INTER-LIGAND FREE ENERGY PREDICTED BY IDOCK:   -7.65 KCAL/MOL
REMARK 924 INTRA-LIGAND FREE ENERGY PREDICTED BY IDOCK:   -2.57 KCAL/MOL
REMARK 927      BINDING AFFINITY PREDICTED BY RF-SCORE:    0.00 PKD
ROOT
HETATM    1  C   UNL     1      -9.435  10.720  62.393  1.00  0.00    -0.189 C  
HETATM    2  O   UNL     1      -8.681   9.531  62.651  1.00  0.00    -0.198 OA 
ENDROOT
BRANCH   2   3
HETATM    3  C   UNL     1      -7.701   9.665  63.598  1.00  0.00    -0.129 A  
HETATM    4  C   UNL     1      -7.953   9.109  64.860  1.00  0.00    -0.123 A  
HETATM    5  F   UNL     1      -9.123   8.486  65.085  1.00  0.00    -0.206 F  
HETATM    6  C   UNL     1      -7.000   9.180  65.885  1.00  0.00    -0.088 A  
HETATM    7  C   UNL     1      -5.791   9.849  65.644  1.00  0.00    -0.067 A  
HETATM    8  C   UNL     1      -6.498  10.346  63.378  1.00  0.00    -0.069 A  
HETATM    9  C   UNL     1      -5.548  10.430  64.396  1.00  0.00    -0.134 A  
BRANCH   6  10
HETATM   10  C   UNL     1      -7.230   8.514  67.184  1.00  0.00    -0.080 C  
HETATM   11  C   UNL     1      -5.991   6.438  66.502  1.00  0.00    -0.028 C  
HETATM   12  C   UNL     1      -6.790   7.271  67.483  1.00  0.00    -0.074 C  
HETATM   13  N   UNL     1      -7.027   6.736  68.755  1.00  0.00    -0.076 N  
HETATM   14  C   UNL     1      -7.448   7.535  69.822  1.00  0.00    -0.091 C  
HETATM   15  C   UNL     1      -8.059   9.232  68.199  1.00  0.00    -0.107 C  
HETATM   16  O   UNL     1      -7.300   7.189  70.997  1.00  0.00    -0.073 OA 
HETATM   17  O   UNL     1      -8.716  10.222  67.875  1.00  0.00    -0.121 OA 
HETATM   18  N   UNL     1      -8.034   8.737  69.485  1.00  0.00    -0.094 N  
BRANCH  13  19
HETATM   19  C   UNL     1      -6.714   5.343  69.097  1.00  0.00    -0.053 C  
BRANCH  19  20
HETATM   20  C   UNL     1      -7.819   4.516  69.743  1.00  0.00    -0.057 A  
HETATM   21  F   UNL     1      -9.229   3.461  66.705  1.00  0.00    -0.140 F  
HETATM   22  C   UNL     1      -9.345   4.456  67.626  1.00  0.00    -0.154 C  
HETATM   23  C   UNL     1      -8.923   4.010  69.013  1.00  0.00    -0.169 A  
HETATM   24  F   UNL     1      -6.684   4.569  71.839  1.00  0.00    -0.026 F  
HETATM   25  C   UNL     1      -9.736   3.009  69.602  1.00  0.00     0.041 A  
HETATM   26  C   UNL     1      -7.660   4.071  71.070  1.00  0.00    -0.048 A  
HETATM   27  F   UNL     1     -10.657   4.830  67.605  1.00  0.00    -0.142 F  
HETATM   28  F   UNL     1      -8.671   5.517  67.116  1.00  0.00    -0.111 F  
HETATM   29  C   UNL     1      -8.494   3.112  71.646  1.00  0.00    -0.087 A  
HETATM   30  C   UNL     1      -9.516   2.553  70.899  1.00  0.00    -0.217 A  
ENDBRANCH  19  20
ENDBRANCH  13  19
BRANCH  18  31
HETATM   31  C   UNL     1      -8.683   9.514  70.547  1.00  0.00    -0.197 C  
BRANCH  31  32
HETATM   32  C   UNL     1     -10.208   9.230  70.744  1.00  0.00    -0.286 C  
BRANCH  32  33
HETATM   33  N   UNL     1     -10.950  10.327  71.423  1.00  0.00     0.060 NA 
HETATM   34  H   UNL     1     -10.325  11.111  71.613  1.00  0.00     0.000 HD 
BRANCH  33  35
HETATM   35  C   UNL     1     -12.143  10.792  70.722  1.00  0.00    -0.372 C  
BRANCH  35  36
HETATM   36  C   UNL     1     -11.867  10.936  69.217  1.00  0.00    -0.395 C  
BRANCH  36  37
HETATM   37  C   UNL     1     -11.738  12.390  68.763  1.00  0.00    -0.379 C  
HETATM   38  O   UNL     1     -10.190  13.067  67.045  1.00  0.00    -0.241 OA 
HETATM   39  C   UNL     1     -11.237  12.515  67.348  1.00  0.00    -0.293 C  
HETATM   40  O   UNL     1     -12.080  12.004  66.426  1.00  0.00    -0.610 OA 
ENDBRANCH  36  37
ENDBRANCH  35  36
ENDBRANCH  33  35
ENDBRANCH  32  33
BRANCH  32  41
HETATM   41  C   UNL     1     -10.466   7.945  71.536  1.00  0.00    -0.251 A  
HETATM   42  C   UNL     1     -11.231   5.634  71.595  1.00  0.00    -0.204 A  
HETATM   43  C   UNL     1     -10.572   6.715  73.643  1.00  0.00    -0.323 A  
HETATM   44  C   UNL     1     -10.944   6.800  70.881  1.00  0.00    -0.303 A  
HETATM   45  C   UNL     1     -10.273   7.879  72.929  1.00  0.00    -0.397 A  
HETATM   46  C   UNL     1     -11.049   5.591  72.975  1.00  0.00    -0.350 A  
ENDBRANCH  32  41
ENDBRANCH  31  32
ENDBRANCH  18  31
ENDBRANCH   6  10
ENDBRANCH   2   3
TORSDOF 11
ENDMDL
MODEL      120
REMARK 921   NORMALIZED FREE ENERGY PREDICTED BY IDOCK:   -4.34 KCAL/MOL
REMARK 922        TOTAL FREE ENERGY PREDICTED BY IDOCK:  -10.19 KCAL/MOL
REMARK 923 INTER-LIGAND FREE ENERGY PREDICTED BY IDOCK:   -8.28 KCAL/MOL
REMARK 924 INTRA-LIGAND FREE ENERGY PREDICTED BY IDOCK:   -1.91 KCAL/MOL
REMARK 927      BINDING AFFINITY PREDICTED BY RF-SCORE:    0.00 PKD
ROOT
HETATM    1  C   UNL     1      -9.224   2.428  65.248  1.00  0.00    -0.094 C  
HETATM    2  O   UNL     1      -8.780   2.591  66.599  1.00  0.00    -0.111 OA 
ENDROOT
BRANCH   2   3
HETATM    3  C   UNL     1      -8.087   3.747  66.841  1.00  0.00    -0.095 A  
HETATM    4  C   UNL     1      -8.810   4.825  67.372  1.00  0.00    -0.104 A  
HETATM    5  F   UNL     1     -10.126   4.684  67.609  1.00  0.00    -0.203 F  
HETATM    6  C   UNL     1      -8.180   6.041  67.671  1.00  0.00    -0.109 A  
HETATM    7  C   UNL     1      -6.811   6.181  67.402  1.00  0.00    -0.063 A  
HETATM    8  C   UNL     1      -6.726   3.907  66.560  1.00  0.00    -0.046 A  
HETATM    9  C   UNL     1      -6.093   5.118  66.846  1.00  0.00    -0.031 A  
BRANCH   6  10
HETATM   10  C   UNL     1      -8.924   7.144  68.315  1.00  0.00    -0.125 C  
HETATM   11  C   UNL     1      -7.958   6.663  70.584  1.00  0.00    -0.111 C  
HETATM   12  C   UNL     1      -8.845   7.439  69.631  1.00  0.00    -0.141 C  
HETATM   13  N   UNL     1      -9.562   8.527  70.144  1.00  0.00    -0.167 N  
HETATM   14  C   UNL     1     -10.130   9.493  69.309  1.00  0.00    -0.198 C  
HETATM   15  C   UNL     1      -9.872   7.931  67.470  1.00  0.00    -0.170 C  
HETATM   16  O   UNL     1     -10.423  10.621  69.716  1.00  0.00    -0.222 OA 
HETATM   17  O   UNL     1     -10.193   7.524  66.353  1.00  0.00    -0.140 OA 
HETATM   18  N   UNL     1     -10.341   9.114  68.000  1.00  0.00    -0.212 N  
BRANCH  13  19
HETATM   19  C   UNL     1      -9.644   8.812  71.582  1.00  0.00    -0.293 C  
BRANCH  19  20
HETATM   20  C   UNL     1     -10.036   7.662  72.502  1.00  0.00    -0.263 A  
HETATM   21  F   UNL     1     -12.336   6.244  70.259  1.00  0.00    -0.315 F  
HETATM   22  C   UNL     1     -12.284   7.135  71.286  1.00  0.00    -0.365 C  
HETATM   23  C   UNL     1     -11.159   6.833  72.256  1.00  0.00    -0.286 A  
HETATM   24  F   UNL     1      -8.123   8.055  73.869  1.00  0.00    -0.191 F  
HETATM   25  C   UNL     1     -11.283   5.614  72.970  1.00  0.00    -0.319 A  
HETATM   26  C   UNL     1      -9.159   7.275  73.534  1.00  0.00    -0.184 A  
HETATM   27  F   UNL     1     -13.500   7.062  71.901  1.00  0.00    -0.378 F  
HETATM   28  F   UNL     1     -12.257   8.364  70.712  1.00  0.00    -0.272 F  
HETATM   29  C   UNL     1      -9.319   6.090  74.252  1.00  0.00    -0.150 A  
HETATM   30  C   UNL     1     -10.366   5.239  73.947  1.00  0.00    -0.288 A  
ENDBRANCH  19  20
ENDBRANCH  13  19
BRANCH  18  31
HETATM   31  C   UNL     1     -11.125  10.006  67.137  1.00  0.00     0.005 C  
BRANCH  31  32
HETATM   32  C   UNL     1     -10.286  10.925  66.190  1.00  0.00    -0.248 C  
BRANCH  32  33
HETATM   33  N   UNL     1      -9.275  11.762  66.892  1.00  0.00    -0.183 NA 
HETATM   34  H   UNL     1      -9.419  11.718  67.900  1.00  0.00     0.000 HD 
BRANCH  33  35
HETATM   35  C   UNL     1      -7.886  11.453  66.567  1.00  0.00    -0.105 C  
BRANCH  35  36
HETATM   36  C   UNL     1      -7.340  10.360  67.498  1.00  0.00    -0.092 C  
BRANCH  36  37
HETATM   37  C   UNL     1      -6.038  10.756  68.194  1.00  0.00    -0.050 C  
HETATM   38  O   UNL     1      -5.580  13.024  68.867  1.00  0.00    -0.070 OA 
HETATM   39  C   UNL     1      -6.189  11.982  69.055  1.00  0.00    -0.079 C  
HETATM   40  O   UNL     1      -7.028  11.812  70.100  1.00  0.00     0.126 OA 
ENDBRANCH  36  37
ENDBRANCH  35  36
ENDBRANCH  33  35
ENDBRANCH  32  33
BRANCH  32  41
HETATM   41  C   UNL     1     -11.165  11.867  65.362  1.00  0.00    -0.351 A  
HETATM   42  C   UNL     1     -12.276  12.394  63.260  1.00  0.00    -0.520 A  
HETATM   43  C   UNL     1     -12.361  13.976  65.073  1.00  0.00    -0.458 A  
HETATM   44  C   UNL     1     -11.516  11.525  64.047  1.00  0.00    -0.331 A  
HETATM   45  C   UNL     1     -11.611  13.103  65.867  1.00  0.00    -0.391 A  
HETATM   46  C   UNL     1     -12.695  13.620  63.770  1.00  0.00     0.105 A  
ENDBRANCH  32  41
ENDBRANCH  31  32
ENDBRANCH  18  31
ENDBRANCH   6  10
ENDBRANCH   2   3
TORSDOF 11
ENDMDL
MODEL      121
REMARK 921   NORMALIZED FREE ENERGY PREDICTED BY IDOCK:   -4.33 KCAL/MOL
REMARK 922        TOTAL FREE ENERGY PREDICTED BY IDOCK:  -10.17 KCAL/MOL
REMARK 923 INTER-LIGAND FREE ENERGY PREDICTED BY IDOCK:   -6.65 KCAL/MOL
REMARK 924 INTRA-LIGAND FREE ENERGY PREDICTED BY IDOCK:   -3.52 KCAL/MOL
REMARK 927      BINDING AFFINITY PREDICTED BY RF-SCORE:    0.00 PKD
ROOT
HETATM    1  C   UNL     1     -12.570  13.618  64.577  1.00  0.00    -0.197 C  
HETATM    2  O   UNL     1     -11.173  13.521  64.281  1.00  0.00    -0.377 OA 
ENDROOT
BRANCH   2   3
HETATM    3  C   UNL     1     -10.382  13.178  65.345  1.00  0.00    -0.301 A  
HETATM    4  C   UNL     1     -10.451  11.851  65.790  1.00  0.00    -0.256 A  
HETATM    5  F   UNL     1     -11.278  10.989  65.171  1.00  0.00    -0.229 F  
HETATM    6  C   UNL     1      -9.663  11.404  66.859  1.00  0.00    -0.213 A  
HETATM    7  C   UNL     1      -8.818  12.316  67.508  1.00  0.00    -0.182 A  
HETATM    8  C   UNL     1      -9.548  14.082  66.013  1.00  0.00    -0.230 A  
HETATM    9  C   UNL     1      -8.767  13.648  67.086  1.00  0.00    -0.224 A  
BRANCH   6  10
HETATM   10  C   UNL     1      -9.670   9.984  67.267  1.00  0.00    -0.206 C  
HETATM   11  C   UNL     1     -11.082  10.423  69.298  1.00  0.00    -0.303 C  
HETATM   12  C   UNL     1     -10.298   9.518  68.369  1.00  0.00    -0.206 C  
HETATM   13  N   UNL     1     -10.278   8.147  68.655  1.00  0.00    -0.204 N  
HETATM   14  C   UNL     1      -9.881   7.204  67.703  1.00  0.00    -0.147 C  
HETATM   15  C   UNL     1      -8.875   9.020  66.447  1.00  0.00    -0.146 C  
HETATM   16  O   UNL     1     -10.204   6.015  67.784  1.00  0.00    -0.145 OA 
HETATM   17  O   UNL     1      -8.063   9.433  65.618  1.00  0.00    -0.108 OA 
HETATM   18  N   UNL     1      -9.110   7.679  66.663  1.00  0.00    -0.156 N  
BRANCH  13  19
HETATM   19  C   UNL     1     -10.806   7.593  69.907  1.00  0.00    -0.235 C  
BRANCH  19  20
HETATM   20  C   UNL     1      -9.801   7.264  71.005  1.00  0.00    -0.183 A  
HETATM   21  F   UNL     1      -9.303   3.942  69.982  1.00  0.00    -0.171 F  
HETATM   22  C   UNL     1     -10.082   4.676  70.823  1.00  0.00    -0.194 C  
HETATM   23  C   UNL     1      -9.389   5.940  71.295  1.00  0.00    -0.172 A  
HETATM   24  F   UNL     1      -9.495   9.582  71.470  1.00  0.00    -0.273 F  
HETATM   25  C   UNL     1      -8.243   5.738  72.105  1.00  0.00    -0.112 A  
HETATM   26  C   UNL     1      -9.106   8.313  71.639  1.00  0.00    -0.185 A  
HETATM   27  F   UNL     1     -10.374   3.851  71.870  1.00  0.00    -0.246 F  
HETATM   28  F   UNL     1     -11.262   4.853  70.179  1.00  0.00     0.128 F  
HETATM   29  C   UNL     1      -8.003   8.092  72.464  1.00  0.00    -0.195 A  
HETATM   30  C   UNL     1      -7.548   6.802  72.672  1.00  0.00    -0.091 A  
ENDBRANCH  19  20
ENDBRANCH  13  19
BRANCH  18  31
HETATM   31  C   UNL     1      -8.490   6.705  65.758  1.00  0.00    -0.148 C  
BRANCH  31  32
HETATM   32  C   UNL     1      -6.931   6.614  65.842  1.00  0.00    -0.061 C  
BRANCH  32  33
HETATM   33  N   UNL     1      -6.315   5.740  64.807  1.00  0.00    -0.036 NA 
HETATM   34  H   UNL     1      -6.264   4.778  65.143  1.00  0.00     0.000 HD 
BRANCH  33  35
HETATM   35  C   UNL     1      -6.961   5.782  63.499  1.00  0.00    -0.042 C  
BRANCH  35  36
HETATM   36  C   UNL     1      -7.204   4.362  62.966  1.00  0.00    -0.044 C  
BRANCH  36  37
HETATM   37  C   UNL     1      -7.177   3.294  64.061  1.00  0.00    -0.058 C  
HETATM   38  O   UNL     1      -8.999   2.998  65.610  1.00  0.00    -0.136 OA 
HETATM   39  C   UNL     1      -8.557   2.858  64.480  1.00  0.00    -0.095 C  
HETATM   40  O   UNL     1      -9.253   2.242  63.501  1.00  0.00    -0.092 OA 
ENDBRANCH  36  37
ENDBRANCH  35  36
ENDBRANCH  33  35
ENDBRANCH  32  33
BRANCH  32  41
HETATM   41  C   UNL     1      -6.448   6.116  67.208  1.00  0.00    -0.046 A  
HETATM   42  C   UNL     1      -6.030   4.272  68.742  1.00  0.00    -0.026 A  
HETATM   43  C   UNL     1      -5.675   6.534  69.486  1.00  0.00    -0.014 A  
HETATM   44  C   UNL     1      -6.422   4.741  67.485  1.00  0.00    -0.045 A  
HETATM   45  C   UNL     1      -6.056   7.005  68.226  1.00  0.00    -0.034 A  
HETATM   46  C   UNL     1      -5.661   5.167  69.743  1.00  0.00    -0.012 A  
ENDBRANCH  32  41
ENDBRANCH  31  32
ENDBRANCH  18  31
ENDBRANCH   6  10
ENDBRANCH   2   3
TORSDOF 11
ENDMDL
MODEL      122
REMARK 921   NORMALIZED FREE ENERGY PREDICTED BY IDOCK:   -4.28 KCAL/MOL
REMARK 922        TOTAL FREE ENERGY PREDICTED BY IDOCK:  -10.09 KCAL/MOL
REMARK 923 INTER-LIGAND FREE ENERGY PREDICTED BY IDOCK:   -9.79 KCAL/MOL
REMARK 924 INTRA-LIGAND FREE ENERGY PREDICTED BY IDOCK:   -0.30 KCAL/MOL
REMARK 927      BINDING AFFINITY PREDICTED BY RF-SCORE:    0.00 PKD
ROOT
HETATM    1  C   UNL     1     -11.315  15.403  71.588  1.00  0.00    -0.385 C  
HETATM    2  O   UNL     1     -12.465  14.873  70.922  1.00  0.00    -0.286 OA 
ENDROOT
BRANCH   2   3
HETATM    3  C   UNL     1     -12.718  13.551  71.175  1.00  0.00    -0.344 A  
HETATM    4  C   UNL     1     -11.978  12.608  70.447  1.00  0.00    -0.248 A  
HETATM    5  F   UNL     1     -11.075  13.032  69.545  1.00  0.00    -0.250 F  
HETATM    6  C   UNL     1     -12.155  11.234  70.654  1.00  0.00    -0.480 A  
HETATM    7  C   UNL     1     -13.112  10.805  71.585  1.00  0.00    -0.551 A  
HETATM    8  C   UNL     1     -13.683  13.108  72.087  1.00  0.00    -0.588 A  
HETATM    9  C   UNL     1     -13.873  11.741  72.292  1.00  0.00     0.245 A  
BRANCH   6  10
HETATM   10  C   UNL     1     -11.310  10.245  69.953  1.00  0.00    -0.354 C  
HETATM   11  C   UNL     1     -10.435   9.261  72.092  1.00  0.00     0.220 C  
HETATM   12  C   UNL     1     -10.518   9.348  70.582  1.00  0.00    -0.290 C  
HETATM   13  N   UNL     1      -9.779   8.426  69.831  1.00  0.00    -0.178 N  
HETATM   14  C   UNL     1     -10.039   8.203  68.476  1.00  0.00    -0.200 C  
HETATM   15  C   UNL     1     -11.278  10.290  68.460  1.00  0.00    -0.214 C  
HETATM   16  O   UNL     1      -9.687   7.169  67.902  1.00  0.00    -0.135 OA 
HETATM   17  O   UNL     1     -11.745  11.257  67.858  1.00  0.00    -0.534 OA 
HETATM   18  N   UNL     1     -10.720   9.206  67.818  1.00  0.00    -0.223 N  
BRANCH  13  19
HETATM   19  C   UNL     1      -8.787   7.528  70.437  1.00  0.00    -0.145 C  
BRANCH  19  20
HETATM   20  C   UNL     1      -9.262   6.622  71.566  1.00  0.00    -0.146 A  
HETATM   21  F   UNL     1      -7.328   8.183  74.048  1.00  0.00    -0.151 F  
HETATM   22  C   UNL     1      -7.264   7.154  73.160  1.00  0.00    -0.072 C  
HETATM   23  C   UNL     1      -8.633   6.585  72.836  1.00  0.00    -0.125 A  
HETATM   24  F   UNL     1     -11.085   5.857  70.235  1.00  0.00    -0.345 F  
HETATM   25  C   UNL     1      -9.302   5.960  73.918  1.00  0.00    -0.133 A  
HETATM   26  C   UNL     1     -10.480   5.927  71.427  1.00  0.00    -0.236 A  
HETATM   27  F   UNL     1      -6.463   6.214  73.740  1.00  0.00    -0.065 F  
HETATM   28  F   UNL     1      -6.550   7.616  72.103  1.00  0.00    -0.051 F  
HETATM   29  C   UNL     1     -11.105   5.285  72.495  1.00  0.00    -0.289 A  
HETATM   30  C   UNL     1     -10.532   5.329  73.754  1.00  0.00    -0.304 A  
ENDBRANCH  19  20
ENDBRANCH  13  19
BRANCH  18  31
HETATM   31  C   UNL     1     -10.833   9.123  66.356  1.00  0.00     0.470 C  
BRANCH  31  32
HETATM   32  C   UNL     1      -9.735   9.899  65.558  1.00  0.00    -0.302 C  
BRANCH  32  33
HETATM   33  N   UNL     1      -8.430  10.010  66.265  1.00  0.00    -0.128 NA 
HETATM   34  H   UNL     1      -8.308   9.225  66.905  1.00  0.00     0.000 HD 
BRANCH  33  35
HETATM   35  C   UNL     1      -7.265  10.135  65.394  1.00  0.00    -0.144 C  
BRANCH  35  36
HETATM   36  C   UNL     1      -5.966   9.960  66.196  1.00  0.00    -0.065 C  
BRANCH  36  37
HETATM   37  C   UNL     1      -5.185  11.263  66.370  1.00  0.00    -0.131 C  
HETATM   38  O   UNL     1      -6.242  13.308  67.084  1.00  0.00    -0.272 OA 
HETATM   39  C   UNL     1      -5.825  12.195  67.365  1.00  0.00    -0.137 C  
HETATM   40  O   UNL     1      -5.850  11.710  68.625  1.00  0.00    -0.046 OA 
ENDBRANCH  36  37
ENDBRANCH  35  36
ENDBRANCH  33  35
ENDBRANCH  32  33
BRANCH  32  41
HETATM   41  C   UNL     1     -10.176  11.319  65.187  1.00  0.00    -0.344 A  
HETATM   42  C   UNL     1     -11.379  12.820  63.695  1.00  0.00    -0.514 A  
HETATM   43  C   UNL     1     -10.105  13.736  65.522  1.00  0.00    -0.303 A  
HETATM   44  C   UNL     1     -11.006  11.528  64.076  1.00  0.00    -0.454 A  
HETATM   45  C   UNL     1      -9.741  12.444  65.912  1.00  0.00    -0.237 A  
HETATM   46  C   UNL     1     -10.926  13.924  64.414  1.00  0.00    -0.322 A  
ENDBRANCH  32  41
ENDBRANCH  31  32
ENDBRANCH  18  31
ENDBRANCH   6  10
ENDBRANCH   2   3
TORSDOF 11
ENDMDL
MODEL      123
REMARK 921   NORMALIZED FREE ENERGY PREDICTED BY IDOCK:   -4.19 KCAL/MOL
REMARK 922        TOTAL FREE ENERGY PREDICTED BY IDOCK:   -9.95 KCAL/MOL
REMARK 923 INTER-LIGAND FREE ENERGY PREDICTED BY IDOCK:   -8.30 KCAL/MOL
REMARK 924 INTRA-LIGAND FREE ENERGY PREDICTED BY IDOCK:   -1.64 KCAL/MOL
REMARK 927      BINDING AFFINITY PREDICTED BY RF-SCORE:    0.00 PKD
ROOT
HETATM    1  C   UNL     1     -11.439  15.625  66.616  1.00  0.00     0.144 C  
HETATM    2  O   UNL     1     -10.632  15.204  65.512  1.00  0.00    -0.314 OA 
ENDROOT
BRANCH   2   3
HETATM    3  C   UNL     1     -10.962  13.982  64.991  1.00  0.00    -0.375 A  
HETATM    4  C   UNL     1     -10.213  12.879  65.426  1.00  0.00    -0.287 A  
HETATM    5  F   UNL     1      -9.218  13.065  66.311  1.00  0.00    -0.235 F  
HETATM    6  C   UNL     1     -10.492  11.587  64.962  1.00  0.00    -0.344 A  
HETATM    7  C   UNL     1     -11.520  11.408  64.025  1.00  0.00    -0.217 A  
HETATM    8  C   UNL     1     -11.972  13.791  64.041  1.00  0.00    -0.451 A  
HETATM    9  C   UNL     1     -12.251  12.509  63.567  1.00  0.00    -0.652 A  
BRANCH   6  10
HETATM   10  C   UNL     1      -9.762  10.416  65.491  1.00  0.00    -0.307 C  
HETATM   11  C   UNL     1      -8.064  10.456  63.640  1.00  0.00    -0.109 C  
HETATM   12  C   UNL     1      -8.666   9.882  64.907  1.00  0.00    -0.176 C  
HETATM   13  N   UNL     1      -8.021   8.792  65.502  1.00  0.00    -0.098 N  
HETATM   14  C   UNL     1      -8.288   8.409  66.820  1.00  0.00    -0.109 C  
HETATM   15  C   UNL     1     -10.313   9.742  66.706  1.00  0.00    -0.218 C  
HETATM   16  O   UNL     1      -7.496   7.729  67.478  1.00  0.00    -0.092 OA 
HETATM   17  O   UNL     1     -11.450  10.005  67.100  1.00  0.00    -0.016 OA 
HETATM   18  N   UNL     1      -9.487   8.842  67.345  1.00  0.00    -0.141 N  
BRANCH  13  19
HETATM   19  C   UNL     1      -6.923   8.070  64.848  1.00  0.00    -0.063 C  
BRANCH  19  20
HETATM   20  C   UNL     1      -7.260   6.744  64.176  1.00  0.00    -0.071 A  
HETATM   21  F   UNL     1      -6.749   4.801  67.057  1.00  0.00    -0.046 F  
HETATM   22  C   UNL     1      -6.076   5.258  65.967  1.00  0.00    -0.030 C  
HETATM   23  C   UNL     1      -6.991   5.490  64.779  1.00  0.00    -0.049 A  
HETATM   24  F   UNL     1      -8.260   7.886  62.339  1.00  0.00    -0.149 F  
HETATM   25  C   UNL     1      -7.598   4.325  64.246  1.00  0.00    -0.072 A  
HETATM   26  C   UNL     1      -8.035   6.744  63.000  1.00  0.00    -0.077 A  
HETATM   27  F   UNL     1      -5.135   4.310  65.689  1.00  0.00    -0.007 F  
HETATM   28  F   UNL     1      -5.370   6.337  66.389  1.00  0.00    -0.011 F  
HETATM   29  C   UNL     1      -8.595   5.582  62.469  1.00  0.00    -0.048 A  
HETATM   30  C   UNL     1      -8.404   4.372  63.112  1.00  0.00    -0.098 A  
ENDBRANCH  19  20
ENDBRANCH  13  19
BRANCH  18  31
HETATM   31  C   UNL     1      -9.914   8.297  68.639  1.00  0.00    -0.190 C  
BRANCH  31  32
HETATM   32  C   UNL     1     -10.021   9.339  69.800  1.00  0.00    -0.199 C  
BRANCH  32  33
HETATM   33  N   UNL     1      -8.953  10.375  69.789  1.00  0.00    -0.397 NA 
HETATM   34  H   UNL     1      -9.145  11.086  70.494  1.00  0.00     0.000 HD 
BRANCH  33  35
HETATM   35  C   UNL     1      -7.595   9.863  69.948  1.00  0.00    -0.163 C  
BRANCH  35  36
HETATM   36  C   UNL     1      -6.579  10.801  69.279  1.00  0.00    -0.074 C  
BRANCH  36  37
HETATM   37  C   UNL     1      -7.170  11.601  68.117  1.00  0.00    -0.085 C  
HETATM   38  O   UNL     1      -6.173  13.648  67.330  1.00  0.00    -0.313 OA 
HETATM   39  C   UNL     1      -6.138  12.429  67.398  1.00  0.00    -0.158 C  
HETATM   40  O   UNL     1      -5.186  11.697  66.782  1.00  0.00    -0.108 OA 
ENDBRANCH  36  37
ENDBRANCH  35  36
ENDBRANCH  33  35
ENDBRANCH  32  33
BRANCH  32  41
HETATM   41  C   UNL     1     -10.003   8.678  71.182  1.00  0.00    -0.289 A  
HETATM   42  C   UNL     1     -11.207   7.651  73.033  1.00  0.00    -0.388 A  
HETATM   43  C   UNL     1      -8.832   8.001  73.214  1.00  0.00    -0.330 A  
HETATM   44  C   UNL     1     -11.197   8.212  71.753  1.00  0.00    -0.329 A  
HETATM   45  C   UNL     1      -8.817   8.552  71.930  1.00  0.00    -0.284 A  
HETATM   46  C   UNL     1     -10.027   7.549  73.765  1.00  0.00    -0.275 A  
ENDBRANCH  32  41
ENDBRANCH  31  32
ENDBRANCH  18  31
ENDBRANCH   6  10
ENDBRANCH   2   3
TORSDOF 11
ENDMDL
MODEL      124
REMARK 921   NORMALIZED FREE ENERGY PREDICTED BY IDOCK:   -4.15 KCAL/MOL
REMARK 922        TOTAL FREE ENERGY PREDICTED BY IDOCK:   -9.87 KCAL/MOL
REMARK 923 INTER-LIGAND FREE ENERGY PREDICTED BY IDOCK:   -9.78 KCAL/MOL
REMARK 924 INTRA-LIGAND FREE ENERGY PREDICTED BY IDOCK:   -0.08 KCAL/MOL
REMARK 927      BINDING AFFINITY PREDICTED BY RF-SCORE:    0.00 PKD
ROOT
HETATM    1  C   UNL     1      -8.380   7.585  74.384  1.00  0.00    -0.214 C  
HETATM    2  O   UNL     1      -8.397   7.657  72.955  1.00  0.00    -0.114 OA 
ENDROOT
BRANCH   2   3
HETATM    3  C   UNL     1      -9.643   7.782  72.400  1.00  0.00    -0.181 A  
HETATM    4  C   UNL     1      -9.849   8.862  71.530  1.00  0.00    -0.314 A  
HETATM    5  F   UNL     1      -8.839   9.716  71.287  1.00  0.00    -0.144 F  
HETATM    6  C   UNL     1     -11.086   9.057  70.901  1.00  0.00    -0.343 A  
HETATM    7  C   UNL     1     -12.136   8.170  71.176  1.00  0.00    -0.281 A  
HETATM    8  C   UNL     1     -10.706   6.915  72.680  1.00  0.00    -0.275 A  
HETATM    9  C   UNL     1     -11.943   7.109  72.065  1.00  0.00    -0.332 A  
BRANCH   6  10
HETATM   10  C   UNL     1     -11.273  10.142  69.914  1.00  0.00    -0.343 C  
HETATM   11  C   UNL     1     -12.431  11.640  71.565  1.00  0.00    -0.238 C  
HETATM   12  C   UNL     1     -11.885  11.315  70.190  1.00  0.00    -0.364 C  
HETATM   13  N   UNL     1     -11.984  12.298  69.198  1.00  0.00    -0.282 N  
HETATM   14  C   UNL     1     -11.230  12.235  68.022  1.00  0.00    -0.269 C  
HETATM   15  C   UNL     1     -10.820   9.894  68.512  1.00  0.00    -0.217 C  
HETATM   16  O   UNL     1     -11.010  13.234  67.331  1.00  0.00    -0.263 OA 
HETATM   17  O   UNL     1     -10.527   8.755  68.146  1.00  0.00    -0.216 OA 
HETATM   18  N   UNL     1     -10.742  10.992  67.682  1.00  0.00    -0.220 N  
BRANCH  13  19
HETATM   19  C   UNL     1     -12.765  13.528  69.380  1.00  0.00     0.516 C  
BRANCH  19  20
HETATM   20  C   UNL     1     -12.517  14.332  70.651  1.00  0.00    -0.428 A  
HETATM   21  F   UNL     1     -10.466  16.728  69.105  1.00  0.00    -0.264 F  
HETATM   22  C   UNL     1     -10.380  15.539  69.761  1.00  0.00    -0.309 C  
HETATM   23  C   UNL     1     -11.521  15.336  70.740  1.00  0.00    -0.361 A  
HETATM   24  F   UNL     1     -14.336  13.242  71.738  1.00  0.00    -0.228 F  
HETATM   25  C   UNL     1     -11.550  16.239  71.833  1.00  0.00    -0.430 A  
HETATM   26  C   UNL     1     -13.421  14.219  71.725  1.00  0.00    -0.381 A  
HETATM   27  F   UNL     1      -9.175  15.556  70.401  1.00  0.00    -0.028 F  
HETATM   28  F   UNL     1     -10.250  14.591  68.799  1.00  0.00    -0.219 F  
HETATM   29  C   UNL     1     -13.411  15.094  72.811  1.00  0.00    -0.603 A  
HETATM   30  C   UNL     1     -12.494  16.130  72.850  1.00  0.00    -0.570 A  
ENDBRANCH  19  20
ENDBRANCH  13  19
BRANCH  18  31
HETATM   31  C   UNL     1     -10.130  10.826  66.358  1.00  0.00    -0.227 C  
BRANCH  31  32
HETATM   32  C   UNL     1      -8.569  10.732  66.351  1.00  0.00    -0.158 C  
BRANCH  32  33
HETATM   33  N   UNL     1      -8.040   9.354  66.540  1.00  0.00    -0.111 NA 
HETATM   34  H   UNL     1      -8.794   8.672  66.455  1.00  0.00     0.000 HD 
BRANCH  33  35
HETATM   35  C   UNL     1      -6.932   8.992  65.661  1.00  0.00    -0.080 C  
BRANCH  35  36
HETATM   36  C   UNL     1      -6.646  10.118  64.656  1.00  0.00    -0.125 C  
BRANCH  36  37
HETATM   37  C   UNL     1      -6.862   9.697  63.202  1.00  0.00    -0.108 C  
HETATM   38  O   UNL     1      -8.392   7.939  62.587  1.00  0.00    -0.141 OA 
HETATM   39  C   UNL     1      -8.219   9.087  62.969  1.00  0.00    -0.184 C  
HETATM   40  O   UNL     1      -9.242   9.945  63.169  1.00  0.00    -0.264 OA 
ENDBRANCH  36  37
ENDBRANCH  35  36
ENDBRANCH  33  35
ENDBRANCH  32  33
BRANCH  32  41
HETATM   41  C   UNL     1      -7.926  11.619  67.422  1.00  0.00    -0.147 A  
HETATM   42  C   UNL     1      -7.057  13.789  68.106  1.00  0.00    -0.118 A  
HETATM   43  C   UNL     1      -6.884  11.917  69.610  1.00  0.00     0.054 A  
HETATM   44  C   UNL     1      -7.687  12.976  67.159  1.00  0.00    -0.049 A  
HETATM   45  C   UNL     1      -7.525  11.105  68.670  1.00  0.00    -0.119 A  
HETATM   46  C   UNL     1      -6.653  13.260  69.329  1.00  0.00    -0.093 A  
ENDBRANCH  32  41
ENDBRANCH  31  32
ENDBRANCH  18  31
ENDBRANCH   6  10
ENDBRANCH   2   3
TORSDOF 11
ENDMDL
MODEL      125
REMARK 921   NORMALIZED FREE ENERGY PREDICTED BY IDOCK:   -4.12 KCAL/MOL
REMARK 922        TOTAL FREE ENERGY PREDICTED BY IDOCK:   -9.83 KCAL/MOL
REMARK 923 INTER-LIGAND FREE ENERGY PREDICTED BY IDOCK:   -7.11 KCAL/MOL
REMARK 924 INTRA-LIGAND FREE ENERGY PREDICTED BY IDOCK:   -2.72 KCAL/MOL
REMARK 927      BINDING AFFINITY PREDICTED BY RF-SCORE:    0.00 PKD
ROOT
HETATM    1  C   UNL     1     -12.647  14.611  64.369  1.00  0.00    -0.132 C  
HETATM    2  O   UNL     1     -11.285  14.312  64.045  1.00  0.00    -0.091 OA 
ENDROOT
BRANCH   2   3
HETATM    3  C   UNL     1     -10.523  13.884  65.100  1.00  0.00    -0.393 A  
HETATM    4  C   UNL     1     -10.522  12.508  65.368  1.00  0.00    -0.282 A  
HETATM    5  F   UNL     1     -11.257  11.685  64.600  1.00  0.00    -0.360 F  
HETATM    6  C   UNL     1      -9.756  11.976  66.415  1.00  0.00    -0.239 A  
HETATM    7  C   UNL     1      -9.008  12.847  67.220  1.00  0.00    -0.208 A  
HETATM    8  C   UNL     1      -9.787  14.743  65.923  1.00  0.00    -0.363 A  
HETATM    9  C   UNL     1      -9.030  14.223  66.974  1.00  0.00    -0.251 A  
BRANCH   6  10
HETATM   10  C   UNL     1      -9.684  10.517  66.638  1.00  0.00    -0.232 C  
HETATM   11  C   UNL     1     -11.464  10.553  68.410  1.00  0.00    -0.285 C  
HETATM   12  C   UNL     1     -10.441   9.853  67.539  1.00  0.00    -0.255 C  
HETATM   13  N   UNL     1     -10.326   8.462  67.654  1.00  0.00    -0.242 N  
HETATM   14  C   UNL     1      -9.673   7.695  66.685  1.00  0.00    -0.213 C  
HETATM   15  C   UNL     1      -8.662   9.744  65.867  1.00  0.00    -0.139 C  
HETATM   16  O   UNL     1      -9.879   6.485  66.559  1.00  0.00    -0.167 OA 
HETATM   17  O   UNL     1      -7.768  10.333  65.260  1.00  0.00    -0.141 OA 
HETATM   18  N   UNL     1      -8.789   8.372  65.871  1.00  0.00    -0.167 N  
BRANCH  13  19
HETATM   19  C   UNL     1     -11.001   7.698  68.711  1.00  0.00     0.117 C  
BRANCH  19  20
HETATM   20  C   UNL     1     -10.133   6.815  69.599  1.00  0.00    -0.197 A  
HETATM   21  F   UNL     1      -9.947   9.123  72.240  1.00  0.00    -0.358 F  
HETATM   22  C   UNL     1      -9.276   8.762  71.112  1.00  0.00    -0.237 C  
HETATM   23  C   UNL     1      -9.483   7.301  70.761  1.00  0.00    -0.164 A  
HETATM   24  F   UNL     1     -10.642   4.908  68.264  1.00  0.00    -0.145 F  
HETATM   25  C   UNL     1      -8.953   6.372  71.692  1.00  0.00    -0.144 A  
HETATM   26  C   UNL     1     -10.115   5.424  69.381  1.00  0.00    -0.234 A  
HETATM   27  F   UNL     1      -7.962   9.030  71.362  1.00  0.00    -0.159 F  
HETATM   28  F   UNL     1      -9.639   9.657  70.159  1.00  0.00    -0.212 F  
HETATM   29  C   UNL     1      -9.555   4.527  70.291  1.00  0.00    -0.263 A  
HETATM   30  C   UNL     1      -9.002   5.000  71.468  1.00  0.00    -0.157 A  
ENDBRANCH  19  20
ENDBRANCH  13  19
BRANCH  18  31
HETATM   31  C   UNL     1      -7.923   7.586  64.984  1.00  0.00    -0.132 C  
BRANCH  31  32
HETATM   32  C   UNL     1      -6.447   7.417  65.472  1.00  0.00    -0.044 C  
BRANCH  32  33
HETATM   33  N   UNL     1      -5.611   6.551  64.596  1.00  0.00    -0.029 NA 
HETATM   34  H   UNL     1      -5.659   5.582  64.910  1.00  0.00     0.000 HD 
BRANCH  33  35
HETATM   35  C   UNL     1      -5.919   6.634  63.172  1.00  0.00    -0.035 C  
BRANCH  35  36
HETATM   36  C   UNL     1      -6.170   5.236  62.587  1.00  0.00    -0.021 C  
BRANCH  36  37
HETATM   37  C   UNL     1      -6.493   4.186  63.651  1.00  0.00    -0.030 C  
HETATM   38  O   UNL     1      -8.647   4.068  64.726  1.00  0.00    -0.111 OA 
HETATM   39  C   UNL     1      -7.964   3.874  63.731  1.00  0.00    -0.088 C  
HETATM   40  O   UNL     1      -8.461   3.305  62.612  1.00  0.00    -0.077 OA 
ENDBRANCH  36  37
ENDBRANCH  35  36
ENDBRANCH  33  35
ENDBRANCH  32  33
BRANCH  32  41
HETATM   41  C   UNL     1      -6.362   6.848  66.892  1.00  0.00    -0.045 A  
HETATM   42  C   UNL     1      -6.036   7.203  69.279  1.00  0.00    -0.029 A  
HETATM   43  C   UNL     1      -6.301   4.962  68.441  1.00  0.00    -0.036 A  
HETATM   44  C   UNL     1      -6.164   7.709  67.982  1.00  0.00    -0.045 A  
HETATM   45  C   UNL     1      -6.441   5.465  67.144  1.00  0.00    -0.048 A  
HETATM   46  C   UNL     1      -6.100   5.831  69.508  1.00  0.00    -0.028 A  
ENDBRANCH  32  41
ENDBRANCH  31  32
ENDBRANCH  18  31
ENDBRANCH   6  10
ENDBRANCH   2   3
TORSDOF 11
ENDMDL
MODEL      126
REMARK 921   NORMALIZED FREE ENERGY PREDICTED BY IDOCK:   -4.10 KCAL/MOL
REMARK 922        TOTAL FREE ENERGY PREDICTED BY IDOCK:   -9.80 KCAL/MOL
REMARK 923 INTER-LIGAND FREE ENERGY PREDICTED BY IDOCK:   -8.51 KCAL/MOL
REMARK 924 INTRA-LIGAND FREE ENERGY PREDICTED BY IDOCK:   -1.29 KCAL/MOL
REMARK 927      BINDING AFFINITY PREDICTED BY RF-SCORE:    0.00 PKD
ROOT
HETATM    1  C   UNL     1      -5.847   5.264  72.765  1.00  0.00    -0.023 C  
HETATM    2  O   UNL     1      -6.062   6.583  73.278  1.00  0.00    -0.057 OA 
ENDROOT
BRANCH   2   3
HETATM    3  C   UNL     1      -7.286   7.122  72.985  1.00  0.00    -0.073 A  
HETATM    4  C   UNL     1      -7.520   7.485  71.651  1.00  0.00    -0.083 A  
HETATM    5  F   UNL     1      -6.551   7.299  70.736  1.00  0.00    -0.041 F  
HETATM    6  C   UNL     1      -8.750   8.026  71.254  1.00  0.00    -0.159 A  
HETATM    7  C   UNL     1      -9.745   8.232  72.220  1.00  0.00    -0.362 A  
HETATM    8  C   UNL     1      -8.281   7.351  73.941  1.00  0.00    -0.193 A  
HETATM    9  C   UNL     1      -9.506   7.898  73.556  1.00  0.00    -0.312 A  
BRANCH   6  10
HETATM   10  C   UNL     1      -9.026   8.322  69.832  1.00  0.00    -0.139 C  
HETATM   11  C   UNL     1      -9.816   5.986  69.350  1.00  0.00    -0.203 C  
HETATM   12  C   UNL     1      -9.502   7.414  68.951  1.00  0.00    -0.144 C  
HETATM   13  N   UNL     1      -9.766   7.798  67.630  1.00  0.00    -0.148 N  
HETATM   14  C   UNL     1      -9.831   9.143  67.255  1.00  0.00    -0.189 C  
HETATM   15  C   UNL     1      -8.693   9.688  69.328  1.00  0.00    -0.159 C  
HETATM   16  O   UNL     1     -10.417   9.510  66.233  1.00  0.00    -0.192 OA 
HETATM   17  O   UNL     1      -7.999  10.448  70.005  1.00  0.00    -0.103 OA 
HETATM   18  N   UNL     1      -9.205  10.038  68.097  1.00  0.00    -0.127 N  
BRANCH  13  19
HETATM   19  C   UNL     1     -10.136   6.834  66.587  1.00  0.00    -0.136 C  
BRANCH  19  20
HETATM   20  C   UNL     1      -9.072   5.836  66.146  1.00  0.00    -0.161 A  
HETATM   21  F   UNL     1      -6.757   8.278  65.142  1.00  0.00    -0.054 F  
HETATM   22  C   UNL     1      -7.769   7.522  64.638  1.00  0.00    -0.122 C  
HETATM   23  C   UNL     1      -7.938   6.212  65.385  1.00  0.00    -0.116 A  
HETATM   24  F   UNL     1     -10.177   4.083  67.324  1.00  0.00    -0.182 F  
HETATM   25  C   UNL     1      -6.852   5.307  65.275  1.00  0.00    -0.060 A  
HETATM   26  C   UNL     1      -9.101   4.526  66.662  1.00  0.00    -0.123 A  
HETATM   27  F   UNL     1      -7.454   7.307  63.328  1.00  0.00    -0.070 F  
HETATM   28  F   UNL     1      -8.859   8.329  64.607  1.00  0.00    -0.121 F  
HETATM   29  C   UNL     1      -8.037   3.635  66.512  1.00  0.00    -0.096 A  
HETATM   30  C   UNL     1      -6.894   4.038  65.845  1.00  0.00    -0.054 A  
ENDBRANCH  19  20
ENDBRANCH  13  19
BRANCH  18  31
HETATM   31  C   UNL     1      -9.058  11.427  67.646  1.00  0.00    -0.155 C  
BRANCH  31  32
HETATM   32  C   UNL     1      -9.692  12.504  68.585  1.00  0.00    -0.049 C  
BRANCH  32  33
HETATM   33  N   UNL     1     -11.173  12.612  68.475  1.00  0.00    -0.259 NA 
HETATM   34  H   UNL     1     -11.485  13.525  68.805  1.00  0.00     0.000 HD 
BRANCH  33  35
HETATM   35  C   UNL     1     -11.714  12.345  67.146  1.00  0.00    -0.345 C  
BRANCH  35  36
HETATM   36  C   UNL     1     -11.798  13.640  66.323  1.00  0.00    -0.426 C  
BRANCH  36  37
HETATM   37  C   UNL     1     -11.239  13.492  64.907  1.00  0.00    -0.353 C  
HETATM   38  O   UNL     1     -12.656  13.068  63.005  1.00  0.00    -0.554 OA 
HETATM   39  C   UNL     1     -12.244  13.853  63.845  1.00  0.00    -0.328 C  
HETATM   40  O   UNL     1     -12.617  15.151  63.868  1.00  0.00    -0.794 OA 
ENDBRANCH  36  37
ENDBRANCH  35  36
ENDBRANCH  33  35
ENDBRANCH  32  33
BRANCH  32  41
HETATM   41  C   UNL     1      -9.113  13.902  68.346  1.00  0.00    -0.184 A  
HETATM   42  C   UNL     1      -7.454  15.332  67.283  1.00  0.00    -0.236 A  
HETATM   43  C   UNL     1      -9.034  16.295  68.823  1.00  0.00    -0.243 A  
HETATM   44  C   UNL     1      -8.026  14.072  67.475  1.00  0.00    -0.199 A  
HETATM   45  C   UNL     1      -9.616  15.038  69.008  1.00  0.00    -0.225 A  
HETATM   46  C   UNL     1      -7.954  16.443  67.958  1.00  0.00    -0.159 A  
ENDBRANCH  32  41
ENDBRANCH  31  32
ENDBRANCH  18  31
ENDBRANCH   6  10
ENDBRANCH   2   3
TORSDOF 11
ENDMDL
MODEL      127
REMARK 921   NORMALIZED FREE ENERGY PREDICTED BY IDOCK:   -4.09 KCAL/MOL
REMARK 922        TOTAL FREE ENERGY PREDICTED BY IDOCK:   -9.78 KCAL/MOL
REMARK 923 INTER-LIGAND FREE ENERGY PREDICTED BY IDOCK:   -8.97 KCAL/MOL
REMARK 924 INTRA-LIGAND FREE ENERGY PREDICTED BY IDOCK:   -0.81 KCAL/MOL
REMARK 927      BINDING AFFINITY PREDICTED BY RF-SCORE:    0.00 PKD
ROOT
HETATM    1  C   UNL     1      -7.382  18.089  69.109  1.00  0.00    -0.111 C  
HETATM    2  O   UNL     1      -6.857  17.097  68.221  1.00  0.00    -0.166 OA 
ENDROOT
BRANCH   2   3
HETATM    3  C   UNL     1      -7.795  16.457  67.456  1.00  0.00    -0.146 A  
HETATM    4  C   UNL     1      -7.911  15.069  67.618  1.00  0.00    -0.162 A  
HETATM    5  F   UNL     1      -7.110  14.437  68.494  1.00  0.00    -0.089 F  
HETATM    6  C   UNL     1      -8.858  14.333  66.893  1.00  0.00    -0.234 A  
HETATM    7  C   UNL     1      -9.675  15.000  65.969  1.00  0.00    -0.359 A  
HETATM    8  C   UNL     1      -8.605  17.106  66.517  1.00  0.00    -0.306 A  
HETATM    9  C   UNL     1      -9.543  16.379  65.784  1.00  0.00    -0.227 A  
BRANCH   6  10
HETATM   10  C   UNL     1      -9.041  12.886  67.132  1.00  0.00    -0.220 C  
HETATM   11  C   UNL     1      -6.593  12.385  66.864  1.00  0.00     0.145 C  
HETATM   12  C   UNL     1      -8.033  11.985  67.117  1.00  0.00    -0.175 C  
HETATM   13  N   UNL     1      -8.300  10.638  67.391  1.00  0.00    -0.118 N  
HETATM   14  C   UNL     1      -9.510  10.228  67.958  1.00  0.00    -0.146 C  
HETATM   15  C   UNL     1     -10.434  12.384  67.333  1.00  0.00    -0.215 C  
HETATM   16  O   UNL     1      -9.626   9.149  68.545  1.00  0.00    -0.146 OA 
HETATM   17  O   UNL     1     -11.397  13.104  67.071  1.00  0.00    -0.286 OA 
HETATM   18  N   UNL     1     -10.567  11.104  67.827  1.00  0.00    -0.197 N  
BRANCH  13  19
HETATM   19  C   UNL     1      -7.286   9.586  67.243  1.00  0.00    -0.087 C  
BRANCH  19  20
HETATM   20  C   UNL     1      -7.345   8.731  65.982  1.00  0.00    -0.089 A  
HETATM   21  F   UNL     1      -9.684   6.448  67.267  1.00  0.00    -0.123 F  
HETATM   22  C   UNL     1      -8.339   6.626  67.164  1.00  0.00    -0.113 C  
HETATM   23  C   UNL     1      -7.958   7.453  65.951  1.00  0.00    -0.118 A  
HETATM   24  F   UNL     1      -6.293  10.456  64.718  1.00  0.00    -0.120 F  
HETATM   25  C   UNL     1      -8.243   6.858  64.697  1.00  0.00    -0.026 A  
HETATM   26  C   UNL     1      -6.948   9.289  64.752  1.00  0.00    -0.091 A  
HETATM   27  F   UNL     1      -7.804   5.373  67.096  1.00  0.00    -0.096 F  
HETATM   28  F   UNL     1      -7.933   7.113  68.363  1.00  0.00    -0.113 F  
HETATM   29  C   UNL     1      -7.203   8.670  63.528  1.00  0.00    -0.095 A  
HETATM   30  C   UNL     1      -7.883   7.465  63.497  1.00  0.00    -0.111 A  
ENDBRANCH  19  20
ENDBRANCH  13  19
BRANCH  18  31
HETATM   31  C   UNL     1     -11.905  10.638  68.212  1.00  0.00     0.088 C  
BRANCH  31  32
HETATM   32  C   UNL     1     -12.394  11.105  69.622  1.00  0.00    -0.218 C  
BRANCH  32  33
HETATM   33  N   UNL     1     -11.717  12.330  70.127  1.00  0.00    -0.529 NA 
HETATM   34  H   UNL     1     -11.490  12.952  69.351  1.00  0.00     0.000 HD 
BRANCH  33  35
HETATM   35  C   UNL     1     -12.450  13.059  71.158  1.00  0.00    -0.271 C  
BRANCH  35  36
HETATM   36  C   UNL     1     -12.772  14.487  70.690  1.00  0.00    -0.421 C  
BRANCH  36  37
HETATM   37  C   UNL     1     -12.146  14.834  69.338  1.00  0.00    -0.305 C  
HETATM   38  O   UNL     1     -11.247  17.019  68.863  1.00  0.00    -0.144 OA 
HETATM   39  C   UNL     1     -11.134  15.946  69.435  1.00  0.00    -0.322 C  
HETATM   40  O   UNL     1     -10.050  15.631  70.177  1.00  0.00    -0.294 OA 
ENDBRANCH  36  37
ENDBRANCH  35  36
ENDBRANCH  33  35
ENDBRANCH  32  33
BRANCH  32  41
HETATM   41  C   UNL     1     -12.227  10.018  70.688  1.00  0.00    -0.360 A  
HETATM   42  C   UNL     1     -13.221   8.511  72.323  1.00  0.00    -0.361 A  
HETATM   43  C   UNL     1     -10.824   8.619  72.115  1.00  0.00    -0.424 A  
HETATM   44  C   UNL     1     -13.356   9.468  71.314  1.00  0.00    -0.385 A  
HETATM   45  C   UNL     1     -10.957   9.568  71.097  1.00  0.00    -0.438 A  
HETATM   46  C   UNL     1     -11.956   8.089  72.727  1.00  0.00    -0.246 A  
ENDBRANCH  32  41
ENDBRANCH  31  32
ENDBRANCH  18  31
ENDBRANCH   6  10
ENDBRANCH   2   3
TORSDOF 11
ENDMDL
MODEL      128
REMARK 921   NORMALIZED FREE ENERGY PREDICTED BY IDOCK:   -4.09 KCAL/MOL
REMARK 922        TOTAL FREE ENERGY PREDICTED BY IDOCK:   -9.77 KCAL/MOL
REMARK 923 INTER-LIGAND FREE ENERGY PREDICTED BY IDOCK:   -8.33 KCAL/MOL
REMARK 924 INTRA-LIGAND FREE ENERGY PREDICTED BY IDOCK:   -1.44 KCAL/MOL
REMARK 927      BINDING AFFINITY PREDICTED BY RF-SCORE:    0.00 PKD
ROOT
HETATM    1  C   UNL     1     -11.248  15.413  66.659  1.00  0.00    -0.175 C  
HETATM    2  O   UNL     1     -10.365  14.962  65.627  1.00  0.00    -0.302 OA 
ENDROOT
BRANCH   2   3
HETATM    3  C   UNL     1     -10.685  13.744  65.088  1.00  0.00    -0.358 A  
HETATM    4  C   UNL     1     -10.026  12.622  65.610  1.00  0.00    -0.242 A  
HETATM    5  F   UNL     1      -9.122  12.785  66.592  1.00  0.00    -0.214 F  
HETATM    6  C   UNL     1     -10.305  11.334  65.134  1.00  0.00    -0.353 A  
HETATM    7  C   UNL     1     -11.236  11.179  64.097  1.00  0.00    -0.056 A  
HETATM    8  C   UNL     1     -11.599  13.577  64.041  1.00  0.00    -0.394 A  
HETATM    9  C   UNL     1     -11.874  12.298  63.554  1.00  0.00    -0.601 A  
BRANCH   6  10
HETATM   10  C   UNL     1      -9.677  10.145  65.748  1.00  0.00    -0.307 C  
HETATM   11  C   UNL     1      -7.961   9.930  63.925  1.00  0.00    -0.149 C  
HETATM   12  C   UNL     1      -8.622   9.489  65.216  1.00  0.00    -0.157 C  
HETATM   13  N   UNL     1      -8.073   8.391  65.890  1.00  0.00    -0.105 N  
HETATM   14  C   UNL     1      -8.384   8.118  67.225  1.00  0.00    -0.121 C  
HETATM   15  C   UNL     1     -10.293   9.597  66.994  1.00  0.00    -0.248 C  
HETATM   16  O   UNL     1      -7.656   7.420  67.937  1.00  0.00    -0.108 OA 
HETATM   17  O   UNL     1     -11.409   9.975  67.352  1.00  0.00    -0.187 OA 
HETATM   18  N   UNL     1      -9.550   8.678  67.702  1.00  0.00    -0.151 N  
BRANCH  13  19
HETATM   19  C   UNL     1      -7.029   7.543  65.300  1.00  0.00    -0.059 C  
BRANCH  19  20
HETATM   20  C   UNL     1      -7.448   6.167  64.798  1.00  0.00    -0.084 A  
HETATM   21  F   UNL     1      -6.576   4.481  67.753  1.00  0.00    -0.041 F  
HETATM   22  C   UNL     1      -6.046   4.833  66.549  1.00  0.00    -0.031 C  
HETATM   23  C   UNL     1      -7.104   4.968  65.471  1.00  0.00    -0.067 A  
HETATM   24  F   UNL     1      -8.674   7.153  63.007  1.00  0.00     0.115 F  
HETATM   25  C   UNL     1      -7.775   3.768  65.124  1.00  0.00    -0.085 A  
HETATM   26  C   UNL     1      -8.366   6.072  63.734  1.00  0.00     0.044 A  
HETATM   27  F   UNL     1      -5.148   3.853  66.241  1.00  0.00    -0.007 F  
HETATM   28  F   UNL     1      -5.293   5.937  66.781  1.00  0.00    -0.007 F  
HETATM   29  C   UNL     1      -8.988   4.873  63.382  1.00  0.00    -0.025 A  
HETATM   30  C   UNL     1      -8.718   3.723  64.101  1.00  0.00    -0.107 A  
ENDBRANCH  19  20
ENDBRANCH  13  19
BRANCH  18  31
HETATM   31  C   UNL     1     -10.033   8.253  69.022  1.00  0.00    -0.189 C  
BRANCH  31  32
HETATM   32  C   UNL     1      -9.719   9.237  70.196  1.00  0.00    -0.218 C  
BRANCH  32  33
HETATM   33  N   UNL     1      -8.997   8.612  71.337  1.00  0.00    -0.202 NA 
HETATM   34  H   UNL     1      -8.999   9.239  72.141  1.00  0.00     0.000 HD 
BRANCH  33  35
HETATM   35  C   UNL     1      -9.484   7.292  71.727  1.00  0.00    -0.150 C  
BRANCH  35  36
HETATM   36  C   UNL     1      -9.652   7.203  73.252  1.00  0.00    -0.236 C  
BRANCH  36  37
HETATM   37  C   UNL     1     -10.395   5.945  73.704  1.00  0.00    -0.257 C  
HETATM   38  O   UNL     1     -12.451   5.227  72.672  1.00  0.00     0.071 OA 
HETATM   39  C   UNL     1     -11.236   5.343  72.610  1.00  0.00    -0.275 C  
HETATM   40  O   UNL     1     -10.518   4.886  71.561  1.00  0.00    -0.184 OA 
ENDBRANCH  36  37
ENDBRANCH  35  36
ENDBRANCH  33  35
ENDBRANCH  32  33
BRANCH  32  41
HETATM   41  C   UNL     1     -10.981   9.897  70.759  1.00  0.00    -0.407 A  
HETATM   42  C   UNL     1     -13.054   9.724  72.025  1.00  0.00    -0.546 A  
HETATM   43  C   UNL     1     -12.490  11.807  70.956  1.00  0.00    -0.411 A  
HETATM   44  C   UNL     1     -11.873   9.151  71.543  1.00  0.00    -0.428 A  
HETATM   45  C   UNL     1     -11.303  11.240  70.483  1.00  0.00     0.086 A  
HETATM   46  C   UNL     1     -13.364  11.049  71.729  1.00  0.00    -0.400 A  
ENDBRANCH  32  41
ENDBRANCH  31  32
ENDBRANCH  18  31
ENDBRANCH   6  10
ENDBRANCH   2   3
TORSDOF 11
ENDMDL
MODEL      129
REMARK 921   NORMALIZED FREE ENERGY PREDICTED BY IDOCK:   -4.04 KCAL/MOL
REMARK 922        TOTAL FREE ENERGY PREDICTED BY IDOCK:   -9.69 KCAL/MOL
REMARK 923 INTER-LIGAND FREE ENERGY PREDICTED BY IDOCK:   -8.47 KCAL/MOL
REMARK 924 INTRA-LIGAND FREE ENERGY PREDICTED BY IDOCK:   -1.22 KCAL/MOL
REMARK 927      BINDING AFFINITY PREDICTED BY RF-SCORE:    0.00 PKD
ROOT
HETATM    1  C   UNL     1     -10.400  17.555  66.409  1.00  0.00    -0.334 C  
HETATM    2  O   UNL     1     -10.708  16.197  66.079  1.00  0.00    -0.308 OA 
ENDROOT
BRANCH   2   3
HETATM    3  C   UNL     1     -10.787  15.348  67.151  1.00  0.00    -0.321 A  
HETATM    4  C   UNL     1     -10.313  14.042  66.968  1.00  0.00    -0.267 A  
HETATM    5  F   UNL     1      -9.816  13.682  65.770  1.00  0.00    -0.280 F  
HETATM    6  C   UNL     1     -10.335  13.110  68.014  1.00  0.00    -0.240 A  
HETATM    7  C   UNL     1     -10.872  13.492  69.252  1.00  0.00    -0.107 A  
HETATM    8  C   UNL     1     -11.338  15.710  68.386  1.00  0.00    -0.365 A  
HETATM    9  C   UNL     1     -11.373  14.785  69.431  1.00  0.00    -0.312 A  
BRANCH   6  10
HETATM   10  C   UNL     1      -9.750  11.764  67.845  1.00  0.00    -0.185 C  
HETATM   11  C   UNL     1      -7.416  12.653  67.575  1.00  0.00    -0.155 C  
HETATM   12  C   UNL     1      -8.434  11.533  67.638  1.00  0.00    -0.135 C  
HETATM   13  N   UNL     1      -7.968  10.217  67.525  1.00  0.00    -0.106 N  
HETATM   14  C   UNL     1      -8.754   9.124  67.899  1.00  0.00    -0.128 C  
HETATM   15  C   UNL     1     -10.682  10.596  67.834  1.00  0.00    -0.248 C  
HETATM   16  O   UNL     1      -8.261   8.025  68.168  1.00  0.00    -0.123 OA 
HETATM   17  O   UNL     1     -11.896  10.772  67.728  1.00  0.00    -0.538 OA 
HETATM   18  N   UNL     1     -10.113   9.346  67.957  1.00  0.00    -0.181 N  
BRANCH  13  19
HETATM   19  C   UNL     1      -6.585   9.899  67.150  1.00  0.00    -0.070 C  
BRANCH  19  20
HETATM   20  C   UNL     1      -6.364   8.682  66.260  1.00  0.00    -0.061 A  
HETATM   21  F   UNL     1      -7.018  10.374  63.253  1.00  0.00    -0.138 F  
HETATM   22  C   UNL     1      -7.658   9.644  64.207  1.00  0.00    -0.128 C  
HETATM   23  C   UNL     1      -6.734   8.655  64.892  1.00  0.00    -0.068 A  
HETATM   24  F   UNL     1      -5.283   7.529  68.044  1.00  0.00    -0.021 F  
HETATM   25  C   UNL     1      -6.228   7.622  64.063  1.00  0.00    -0.049 A  
HETATM   26  C   UNL     1      -5.598   7.604  66.745  1.00  0.00    -0.028 A  
HETATM   27  F   UNL     1      -8.676   9.005  63.563  1.00  0.00    -0.201 F  
HETATM   28  F   UNL     1      -8.268  10.543  65.019  1.00  0.00    -0.155 F  
HETATM   29  C   UNL     1      -5.141   6.575  65.921  1.00  0.00    -0.017 A  
HETATM   30  C   UNL     1      -5.429   6.601  64.567  1.00  0.00    -0.027 A  
ENDBRANCH  19  20
ENDBRANCH  13  19
BRANCH  18  31
HETATM   31  C   UNL     1     -10.998   8.189  68.135  1.00  0.00     0.213 C  
BRANCH  31  32
HETATM   32  C   UNL     1     -10.960   7.531  69.553  1.00  0.00    -0.113 C  
BRANCH  32  33
HETATM   33  N   UNL     1     -11.158   6.056  69.546  1.00  0.00    -0.403 NA 
HETATM   34  H   UNL     1     -11.321   5.726  68.595  1.00  0.00     0.000 HD 
BRANCH  33  35
HETATM   35  C   UNL     1     -10.085   5.286  70.169  1.00  0.00    -0.263 C  
BRANCH  35  36
HETATM   36  C   UNL     1      -8.944   5.039  69.170  1.00  0.00    -0.130 C  
BRANCH  36  37
HETATM   37  C   UNL     1      -9.436   4.691  67.765  1.00  0.00    -0.190 C  
HETATM   38  O   UNL     1      -8.659   5.858  65.806  1.00  0.00    -0.145 OA 
HETATM   39  C   UNL     1      -8.440   5.050  66.695  1.00  0.00    -0.106 C  
HETATM   40  O   UNL     1      -7.286   4.353  66.771  1.00  0.00    -0.076 OA 
ENDBRANCH  36  37
ENDBRANCH  35  36
ENDBRANCH  33  35
ENDBRANCH  32  33
BRANCH  32  41
HETATM   41  C   UNL     1     -12.002   8.128  70.503  1.00  0.00     0.063 A  
HETATM   42  C   UNL     1     -12.802  10.010  71.826  1.00  0.00    -0.546 A  
HETATM   43  C   UNL     1     -13.977   7.910  71.922  1.00  0.00    -0.433 A  
HETATM   44  C   UNL     1     -11.888   9.462  70.922  1.00  0.00    -0.365 A  
HETATM   45  C   UNL     1     -13.071   7.364  71.009  1.00  0.00    -0.184 A  
HETATM   46  C   UNL     1     -13.844   9.234  72.329  1.00  0.00    -0.492 A  
ENDBRANCH  32  41
ENDBRANCH  31  32
ENDBRANCH  18  31
ENDBRANCH   6  10
ENDBRANCH   2   3
TORSDOF 11
ENDMDL
MODEL      130
REMARK 921   NORMALIZED FREE ENERGY PREDICTED BY IDOCK:   -4.03 KCAL/MOL
REMARK 922        TOTAL FREE ENERGY PREDICTED BY IDOCK:   -9.69 KCAL/MOL
REMARK 923 INTER-LIGAND FREE ENERGY PREDICTED BY IDOCK:   -7.83 KCAL/MOL
REMARK 924 INTRA-LIGAND FREE ENERGY PREDICTED BY IDOCK:   -1.85 KCAL/MOL
REMARK 927      BINDING AFFINITY PREDICTED BY RF-SCORE:    0.00 PKD
ROOT
HETATM    1  C   UNL     1     -10.153   4.045  66.785  1.00  0.00     0.107 C  
HETATM    2  O   UNL     1     -10.388   5.456  66.846  1.00  0.00    -0.209 OA 
ENDROOT
BRANCH   2   3
HETATM    3  C   UNL     1      -9.507   6.217  66.125  1.00  0.00    -0.067 A  
HETATM    4  C   UNL     1      -9.428   7.579  66.447  1.00  0.00    -0.147 A  
HETATM    5  F   UNL     1     -10.208   8.072  67.426  1.00  0.00    -0.227 F  
HETATM    6  C   UNL     1      -8.540   8.431  65.776  1.00  0.00    -0.181 A  
HETATM    7  C   UNL     1      -7.746   7.908  64.746  1.00  0.00    -0.118 A  
HETATM    8  C   UNL     1      -8.722   5.713  65.081  1.00  0.00    -0.096 A  
HETATM    9  C   UNL     1      -7.843   6.557  64.401  1.00  0.00    -0.115 A  
BRANCH   6  10
HETATM   10  C   UNL     1      -8.392   9.845  66.180  1.00  0.00    -0.123 C  
HETATM   11  C   UNL     1     -10.734  10.437  65.490  1.00  0.00     0.028 C  
HETATM   12  C   UNL     1      -9.368  10.771  66.054  1.00  0.00    -0.186 C  
HETATM   13  N   UNL     1      -9.145  12.081  66.498  1.00  0.00    -0.205 N  
HETATM   14  C   UNL     1      -8.066  12.403  67.325  1.00  0.00    -0.182 C  
HETATM   15  C   UNL     1      -7.061  10.287  66.694  1.00  0.00    -0.108 C  
HETATM   16  O   UNL     1      -8.055  13.422  68.022  1.00  0.00    -0.136 OA 
HETATM   17  O   UNL     1      -6.072   9.565  66.558  1.00  0.00    -0.058 OA 
HETATM   18  N   UNL     1      -7.013  11.513  67.321  1.00  0.00    -0.114 N  
BRANCH  13  19
HETATM   19  C   UNL     1     -10.099  13.170  66.254  1.00  0.00    -0.285 C  
BRANCH  19  20
HETATM   20  C   UNL     1     -10.688  13.869  67.474  1.00  0.00    -0.271 A  
HETATM   21  F   UNL     1     -10.422  17.104  66.133  1.00  0.00    -0.321 F  
HETATM   22  C   UNL     1      -9.719  16.223  66.896  1.00  0.00    -0.238 C  
HETATM   23  C   UNL     1     -10.622  15.273  67.659  1.00  0.00    -0.270 A  
HETATM   24  F   UNL     1     -11.539  11.799  68.295  1.00  0.00    -0.276 F  
HETATM   25  C   UNL     1     -11.445  15.876  68.644  1.00  0.00    -0.391 A  
HETATM   26  C   UNL     1     -11.494  13.135  68.366  1.00  0.00    -0.315 A  
HETATM   27  F   UNL     1      -8.971  16.984  67.745  1.00  0.00    -0.213 F  
HETATM   28  F   UNL     1      -8.820  15.643  66.062  1.00  0.00    -0.325 F  
HETATM   29  C   UNL     1     -12.268  13.744  69.354  1.00  0.00    -0.325 A  
HETATM   30  C   UNL     1     -12.270  15.123  69.473  1.00  0.00    -0.268 A  
ENDBRANCH  19  20
ENDBRANCH  13  19
BRANCH  18  31
HETATM   31  C   UNL     1      -5.771  11.905  68.000  1.00  0.00    -0.048 C  
BRANCH  31  32
HETATM   32  C   UNL     1      -5.770  11.711  69.551  1.00  0.00    -0.072 C  
BRANCH  32  33
HETATM   33  N   UNL     1      -6.997  11.060  70.086  1.00  0.00    -0.461 NA 
HETATM   34  H   UNL     1      -7.780  11.206  69.448  1.00  0.00     0.000 HD 
BRANCH  33  35
HETATM   35  C   UNL     1      -6.858   9.641  70.395  1.00  0.00    -0.120 C  
BRANCH  35  36
HETATM   36  C   UNL     1      -8.102   8.861  69.944  1.00  0.00    -0.112 C  
BRANCH  36  37
HETATM   37  C   UNL     1      -8.377   7.619  70.794  1.00  0.00    -0.117 C  
HETATM   38  O   UNL     1      -7.903   7.551  73.156  1.00  0.00    -0.092 OA 
HETATM   39  C   UNL     1      -8.612   7.950  72.245  1.00  0.00    -0.145 C  
HETATM   40  O   UNL     1      -9.720   8.691  72.460  1.00  0.00    -0.276 OA 
ENDBRANCH  36  37
ENDBRANCH  35  36
ENDBRANCH  33  35
ENDBRANCH  32  33
BRANCH  32  41
HETATM   41  C   UNL     1      -5.588  13.033  70.305  1.00  0.00    -0.145 A  
HETATM   42  C   UNL     1      -5.395  15.460  70.268  1.00  0.00    -0.127 A  
HETATM   43  C   UNL     1      -5.139  14.283  72.353  1.00  0.00    -0.227 A  
HETATM   44  C   UNL     1      -5.607  14.248  69.605  1.00  0.00    -0.096 A  
HETATM   45  C   UNL     1      -5.363  13.071  71.694  1.00  0.00    -0.077 A  
HETATM   46  C   UNL     1      -5.157  15.478  71.641  1.00  0.00    -0.084 A  
ENDBRANCH  32  41
ENDBRANCH  31  32
ENDBRANCH  18  31
ENDBRANCH   6  10
ENDBRANCH   2   3
TORSDOF 11
ENDMDL
MODEL      131
REMARK 921   NORMALIZED FREE ENERGY PREDICTED BY IDOCK:   -3.99 KCAL/MOL
REMARK 922        TOTAL FREE ENERGY PREDICTED BY IDOCK:   -9.62 KCAL/MOL
REMARK 923 INTER-LIGAND FREE ENERGY PREDICTED BY IDOCK:   -8.79 KCAL/MOL
REMARK 924 INTRA-LIGAND FREE ENERGY PREDICTED BY IDOCK:   -0.83 KCAL/MOL
REMARK 927      BINDING AFFINITY PREDICTED BY RF-SCORE:    0.00 PKD
ROOT
HETATM    1  C   UNL     1     -10.542  17.487  67.129  1.00  0.00    -0.264 C  
HETATM    2  O   UNL     1     -11.133  16.241  66.749  1.00  0.00    -0.114 OA 
ENDROOT
BRANCH   2   3
HETATM    3  C   UNL     1     -11.223  15.316  67.756  1.00  0.00    -0.326 A  
HETATM    4  C   UNL     1     -10.670  14.051  67.511  1.00  0.00    -0.268 A  
HETATM    5  F   UNL     1     -10.094  13.801  66.321  1.00  0.00    -0.267 F  
HETATM    6  C   UNL     1     -10.697  13.049  68.490  1.00  0.00    -0.275 A  
HETATM    7  C   UNL     1     -11.317  13.315  69.719  1.00  0.00    -0.132 A  
HETATM    8  C   UNL     1     -11.855  15.562  68.980  1.00  0.00    -0.373 A  
HETATM    9  C   UNL     1     -11.894  14.566  69.956  1.00  0.00    -0.372 A  
BRANCH   6  10
HETATM   10  C   UNL     1     -10.033  11.748  68.263  1.00  0.00    -0.200 C  
HETATM   11  C   UNL     1      -7.765  12.790  67.981  1.00  0.00    -0.137 C  
HETATM   12  C   UNL     1      -8.711  11.607  68.024  1.00  0.00    -0.157 C  
HETATM   13  N   UNL     1      -8.166  10.328  67.855  1.00  0.00    -0.109 N  
HETATM   14  C   UNL     1      -8.875   9.175  68.206  1.00  0.00    -0.129 C  
HETATM   15  C   UNL     1     -10.891  10.525  68.228  1.00  0.00    -0.248 C  
HETATM   16  O   UNL     1      -8.309   8.100  68.427  1.00  0.00    -0.124 OA 
HETATM   17  O   UNL     1     -12.116  10.627  68.151  1.00  0.00    -0.403 OA 
HETATM   18  N   UNL     1     -10.244   9.310  68.297  1.00  0.00    -0.193 N  
BRANCH  13  19
HETATM   19  C   UNL     1      -6.774  10.110  67.444  1.00  0.00    -0.073 C  
BRANCH  19  20
HETATM   20  C   UNL     1      -6.483   8.887  66.581  1.00  0.00    -0.063 A  
HETATM   21  F   UNL     1      -7.248  10.467  63.539  1.00  0.00    -0.141 F  
HETATM   22  C   UNL     1      -7.839   9.722  64.513  1.00  0.00    -0.137 C  
HETATM   23  C   UNL     1      -6.855   8.807  65.216  1.00  0.00    -0.072 A  
HETATM   24  F   UNL     1      -5.327   7.844  68.386  1.00  0.00    -0.027 F  
HETATM   25  C   UNL     1      -6.291   7.787  64.409  1.00  0.00    -0.052 A  
HETATM   26  C   UNL     1      -5.651   7.869  67.088  1.00  0.00    -0.036 A  
HETATM   27  F   UNL     1      -8.819   9.008  63.888  1.00  0.00    -0.210 F  
HETATM   28  F   UNL     1      -8.500  10.601  65.307  1.00  0.00    -0.160 F  
HETATM   29  C   UNL     1      -5.136   6.851  66.285  1.00  0.00    -0.021 A  
HETATM   30  C   UNL     1      -5.429   6.828  64.933  1.00  0.00    -0.027 A  
ENDBRANCH  19  20
ENDBRANCH  13  19
BRANCH  18  31
HETATM   31  C   UNL     1     -11.051   8.093  68.450  1.00  0.00     0.399 C  
BRANCH  31  32
HETATM   32  C   UNL     1     -11.034   7.457  69.878  1.00  0.00    -0.223 C  
BRANCH  32  33
HETATM   33  N   UNL     1     -11.153   5.973  69.885  1.00  0.00    -0.391 NA 
HETATM   34  H   UNL     1     -11.763   5.664  69.129  1.00  0.00     0.000 HD 
BRANCH  33  35
HETATM   35  C   UNL     1      -9.884   5.253  69.834  1.00  0.00    -0.211 C  
BRANCH  35  36
HETATM   36  C   UNL     1      -9.248   5.172  71.230  1.00  0.00    -0.182 C  
BRANCH  36  37
HETATM   37  C   UNL     1      -9.918   4.140  72.139  1.00  0.00    -0.243 C  
HETATM   38  O   UNL     1     -10.421   4.599  74.450  1.00  0.00    -0.254 OA 
HETATM   39  C   UNL     1     -10.684   4.773  73.270  1.00  0.00    -0.248 C  
HETATM   40  O   UNL     1     -11.735   5.518  72.865  1.00  0.00    -0.278 OA 
ENDBRANCH  36  37
ENDBRANCH  35  36
ENDBRANCH  33  35
ENDBRANCH  32  33
BRANCH  32  41
HETATM   41  C   UNL     1     -12.145   8.009  70.777  1.00  0.00    -0.088 A  
HETATM   42  C   UNL     1     -14.383   7.801  71.715  1.00  0.00    -0.594 A  
HETATM   43  C   UNL     1     -13.073   9.764  72.198  1.00  0.00    -0.513 A  
HETATM   44  C   UNL     1     -13.340   7.290  70.938  1.00  0.00    -0.015 A  
HETATM   45  C   UNL     1     -12.024   9.250  71.430  1.00  0.00    -0.424 A  
HETATM   46  C   UNL     1     -14.252   9.038  72.342  1.00  0.00    -0.416 A  
ENDBRANCH  32  41
ENDBRANCH  31  32
ENDBRANCH  18  31
ENDBRANCH   6  10
ENDBRANCH   2   3
TORSDOF 11
ENDMDL
MODEL      132
REMARK 921   NORMALIZED FREE ENERGY PREDICTED BY IDOCK:   -3.99 KCAL/MOL
REMARK 922        TOTAL FREE ENERGY PREDICTED BY IDOCK:   -9.61 KCAL/MOL
REMARK 923 INTER-LIGAND FREE ENERGY PREDICTED BY IDOCK:   -8.85 KCAL/MOL
REMARK 924 INTRA-LIGAND FREE ENERGY PREDICTED BY IDOCK:   -0.77 KCAL/MOL
REMARK 927      BINDING AFFINITY PREDICTED BY RF-SCORE:    0.00 PKD
ROOT
HETATM    1  C   UNL     1     -13.051  11.929  63.519  1.00  0.00     0.002 C  
HETATM    2  O   UNL     1     -11.875  12.028  62.709  1.00  0.00     0.142 OA 
ENDROOT
BRANCH   2   3
HETATM    3  C   UNL     1     -10.784  11.359  63.195  1.00  0.00    -0.155 A  
HETATM    4  C   UNL     1     -10.425  11.606  64.528  1.00  0.00    -0.308 A  
HETATM    5  F   UNL     1     -11.147  12.477  65.255  1.00  0.00    -0.302 F  
HETATM    6  C   UNL     1      -9.334  10.951  65.116  1.00  0.00    -0.252 A  
HETATM    7  C   UNL     1      -8.579  10.060  64.342  1.00  0.00    -0.199 A  
HETATM    8  C   UNL     1     -10.009  10.481  62.428  1.00  0.00     0.181 A  
HETATM    9  C   UNL     1      -8.916   9.832  63.004  1.00  0.00    -0.271 A  
BRANCH   6  10
HETATM   10  C   UNL     1      -9.014  11.144  66.546  1.00  0.00    -0.185 C  
HETATM   11  C   UNL     1      -9.783   8.838  67.178  1.00  0.00    -0.248 C  
HETATM   12  C   UNL     1      -9.215  10.206  67.498  1.00  0.00    -0.137 C  
HETATM   13  N   UNL     1      -8.848  10.468  68.823  1.00  0.00    -0.150 N  
HETATM   14  C   UNL     1      -8.022  11.545  69.157  1.00  0.00     0.108 C  
HETATM   15  C   UNL     1      -8.503  12.483  66.971  1.00  0.00    -0.161 C  
HETATM   16  O   UNL     1      -7.388  11.581  70.215  1.00  0.00     0.510 OA 
HETATM   17  O   UNL     1      -8.576  13.446  66.208  1.00  0.00     0.215 OA 
HETATM   18  N   UNL     1      -7.951  12.565  68.231  1.00  0.00    -0.148 N  
BRANCH  13  19
HETATM   19  C   UNL     1      -9.175   9.560  69.929  1.00  0.00    -0.220 C  
BRANCH  19  20
HETATM   20  C   UNL     1     -10.634   9.482  70.362  1.00  0.00    -0.333 A  
HETATM   21  F   UNL     1     -10.351   6.304  71.830  1.00  0.00    -0.213 F  
HETATM   22  C   UNL     1     -10.666   6.887  70.641  1.00  0.00    -0.236 C  
HETATM   23  C   UNL     1     -11.236   8.282  70.815  1.00  0.00    -0.284 A  
HETATM   24  F   UNL     1     -10.897  11.827  70.022  1.00  0.00    -0.084 F  
HETATM   25  C   UNL     1     -12.486   8.348  71.481  1.00  0.00    -0.342 A  
HETATM   26  C   UNL     1     -11.375  10.672  70.501  1.00  0.00    -0.267 A  
HETATM   27  F   UNL     1     -11.570   6.054  70.048  1.00  0.00    -0.452 F  
HETATM   28  F   UNL     1      -9.551   6.795  69.873  1.00  0.00    -0.155 F  
HETATM   29  C   UNL     1     -12.622  10.712  71.126  1.00  0.00    -0.526 A  
HETATM   30  C   UNL     1     -13.166   9.551  71.648  1.00  0.00    -0.486 A  
ENDBRANCH  19  20
ENDBRANCH  13  19
BRANCH  18  31
HETATM   31  C   UNL     1      -7.274  13.808  68.619  1.00  0.00    -0.109 C  
BRANCH  31  32
HETATM   32  C   UNL     1      -8.023  15.125  68.231  1.00  0.00    -0.129 C  
BRANCH  32  33
HETATM   33  N   UNL     1      -7.394  16.364  68.763  1.00  0.00    -0.190 NA 
HETATM   34  H   UNL     1      -6.862  16.154  69.608  1.00  0.00     0.000 HD 
BRANCH  33  35
HETATM   35  C   UNL     1      -6.559  17.090  67.811  1.00  0.00    -0.145 C  
BRANCH  35  36
HETATM   36  C   UNL     1      -7.276  18.354  67.313  1.00  0.00    -0.213 C  
BRANCH  36  37
HETATM   37  C   UNL     1      -8.736  18.434  67.759  1.00  0.00    -0.278 C  
HETATM   38  O   UNL     1     -10.427  19.522  66.430  1.00  0.00    -0.431 OA 
HETATM   39  C   UNL     1      -9.691  18.562  66.601  1.00  0.00    -0.341 C  
HETATM   40  O   UNL     1      -9.703  17.486  65.785  1.00  0.00    -0.534 OA 
ENDBRANCH  36  37
ENDBRANCH  35  36
ENDBRANCH  33  35
ENDBRANCH  32  33
BRANCH  32  41
HETATM   41  C   UNL     1      -9.485  15.122  68.689  1.00  0.00    -0.206 A  
HETATM   42  C   UNL     1     -11.121  15.230  70.489  1.00  0.00    -0.335 A  
HETATM   43  C   UNL     1     -11.869  14.867  68.230  1.00  0.00    -0.308 A  
HETATM   44  C   UNL     1      -9.796  15.279  70.048  1.00  0.00    -0.072 A  
HETATM   45  C   UNL     1     -10.546  14.927  67.784  1.00  0.00    -0.262 A  
HETATM   46  C   UNL     1     -12.157  15.021  69.582  1.00  0.00    -0.337 A  
ENDBRANCH  32  41
ENDBRANCH  31  32
ENDBRANCH  18  31
ENDBRANCH   6  10
ENDBRANCH   2   3
TORSDOF 11
ENDMDL
MODEL      133
REMARK 921   NORMALIZED FREE ENERGY PREDICTED BY IDOCK:   -3.96 KCAL/MOL
REMARK 922        TOTAL FREE ENERGY PREDICTED BY IDOCK:   -9.57 KCAL/MOL
REMARK 923 INTER-LIGAND FREE ENERGY PREDICTED BY IDOCK:   -6.97 KCAL/MOL
REMARK 924 INTRA-LIGAND FREE ENERGY PREDICTED BY IDOCK:   -2.59 KCAL/MOL
REMARK 927      BINDING AFFINITY PREDICTED BY RF-SCORE:    0.00 PKD
ROOT
HETATM    1  C   UNL     1     -10.794   5.736  73.788  1.00  0.00    -0.134 C  
HETATM    2  O   UNL     1     -10.633   7.156  73.875  1.00  0.00    -0.362 OA 
ENDROOT
BRANCH   2   3
HETATM    3  C   UNL     1     -10.894   7.836  72.716  1.00  0.00    -0.379 A  
HETATM    4  C   UNL     1      -9.928   7.766  71.703  1.00  0.00    -0.174 A  
HETATM    5  F   UNL     1      -8.806   7.054  71.909  1.00  0.00    -0.125 F  
HETATM    6  C   UNL     1     -10.119   8.413  70.475  1.00  0.00    -0.211 A  
HETATM    7  C   UNL     1     -11.285   9.167  70.278  1.00  0.00    -0.249 A  
HETATM    8  C   UNL     1     -12.044   8.608  72.513  1.00  0.00    -0.368 A  
HETATM    9  C   UNL     1     -12.238   9.264  71.297  1.00  0.00    -0.410 A  
BRANCH   6  10
HETATM   10  C   UNL     1      -9.142   8.262  69.376  1.00  0.00    -0.154 C  
HETATM   11  C   UNL     1     -10.005   5.993  68.728  1.00  0.00    -0.186 C  
HETATM   12  C   UNL     1      -9.067   7.174  68.578  1.00  0.00    -0.132 C  
HETATM   13  N   UNL     1      -8.129   7.136  67.538  1.00  0.00    -0.113 N  
HETATM   14  C   UNL     1      -7.461   8.287  67.110  1.00  0.00    -0.089 C  
HETATM   15  C   UNL     1      -8.134   9.349  69.185  1.00  0.00    -0.107 C  
HETATM   16  O   UNL     1      -6.941   8.364  65.993  1.00  0.00    -0.064 OA 
HETATM   17  O   UNL     1      -7.977  10.208  70.052  1.00  0.00    -0.172 OA 
HETATM   18  N   UNL     1      -7.422   9.334  68.005  1.00  0.00    -0.083 N  
BRANCH  13  19
HETATM   19  C   UNL     1      -7.890   5.932  66.733  1.00  0.00    -0.101 C  
BRANCH  19  20
HETATM   20  C   UNL     1      -7.317   4.715  67.449  1.00  0.00    -0.074 A  
HETATM   21  F   UNL     1      -8.961   2.364  65.424  1.00  0.00    -0.113 F  
HETATM   22  C   UNL     1      -9.132   3.050  66.586  1.00  0.00    -0.155 C  
HETATM   23  C   UNL     1      -7.813   3.403  67.247  1.00  0.00    -0.078 A  
HETATM   24  F   UNL     1      -5.652   6.066  68.491  1.00  0.00    -0.009 F  
HETATM   25  C   UNL     1      -7.047   2.300  67.702  1.00  0.00    -0.048 A  
HETATM   26  C   UNL     1      -6.131   4.851  68.198  1.00  0.00    -0.031 A  
HETATM   27  F   UNL     1      -9.885   2.240  67.386  1.00  0.00    -0.077 F  
HETATM   28  F   UNL     1      -9.943   4.095  66.287  1.00  0.00    -0.200 F  
HETATM   29  C   UNL     1      -5.411   3.754  68.670  1.00  0.00    -0.012 A  
HETATM   30  C   UNL     1      -5.851   2.472  68.392  1.00  0.00    -0.023 A  
ENDBRANCH  19  20
ENDBRANCH  13  19
BRANCH  18  31
HETATM   31  C   UNL     1      -6.557  10.479  67.696  1.00  0.00    -0.065 C  
BRANCH  31  32
HETATM   32  C   UNL     1      -7.301  11.762  67.200  1.00  0.00    -0.146 C  
BRANCH  32  33
HETATM   33  N   UNL     1      -7.822  12.625  68.294  1.00  0.00    -0.138 NA 
HETATM   34  H   UNL     1      -7.715  12.158  69.194  1.00  0.00     0.000 HD 
BRANCH  33  35
HETATM   35  C   UNL     1      -7.245  13.965  68.351  1.00  0.00    -0.110 C  
BRANCH  35  36
HETATM   36  C   UNL     1      -8.346  15.026  68.495  1.00  0.00    -0.161 C  
BRANCH  36  37
HETATM   37  C   UNL     1      -9.633  14.479  69.114  1.00  0.00    -0.034 C  
HETATM   38  O   UNL     1     -11.341  15.923  70.010  1.00  0.00    -0.305 OA 
HETATM   39  C   UNL     1     -10.777  15.456  69.033  1.00  0.00    -0.242 C  
HETATM   40  O   UNL     1     -11.166  15.734  67.770  1.00  0.00    -0.336 OA 
ENDBRANCH  36  37
ENDBRANCH  35  36
ENDBRANCH  33  35
ENDBRANCH  32  33
BRANCH  32  41
HETATM   41  C   UNL     1      -8.478  11.434  66.276  1.00  0.00    -0.138 A  
HETATM   42  C   UNL     1     -10.880  11.231  65.928  1.00  0.00    -0.264 A  
HETATM   43  C   UNL     1      -9.370  10.606  64.159  1.00  0.00    -0.297 A  
HETATM   44  C   UNL     1      -9.795  11.571  66.741  1.00  0.00    -0.227 A  
HETATM   45  C   UNL     1      -8.284  10.957  64.966  1.00  0.00     0.081 A  
HETATM   46  C   UNL     1     -10.668  10.745  64.640  1.00  0.00    -0.160 A  
ENDBRANCH  32  41
ENDBRANCH  31  32
ENDBRANCH  18  31
ENDBRANCH   6  10
ENDBRANCH   2   3
TORSDOF 11
ENDMDL
MODEL      134
REMARK 921   NORMALIZED FREE ENERGY PREDICTED BY IDOCK:   -3.96 KCAL/MOL
REMARK 922        TOTAL FREE ENERGY PREDICTED BY IDOCK:   -9.56 KCAL/MOL
REMARK 923 INTER-LIGAND FREE ENERGY PREDICTED BY IDOCK:   -8.89 KCAL/MOL
REMARK 924 INTRA-LIGAND FREE ENERGY PREDICTED BY IDOCK:   -0.67 KCAL/MOL
REMARK 927      BINDING AFFINITY PREDICTED BY RF-SCORE:    0.00 PKD
ROOT
HETATM    1  C   UNL     1      -6.349   7.337  63.834  1.00  0.00    -0.044 C  
HETATM    2  O   UNL     1      -6.315   8.766  63.763  1.00  0.00    -0.079 OA 
ENDROOT
BRANCH   2   3
HETATM    3  C   UNL     1      -6.301   9.403  64.975  1.00  0.00    -0.075 A  
HETATM    4  C   UNL     1      -7.502   9.423  65.699  1.00  0.00    -0.095 A  
HETATM    5  F   UNL     1      -8.595   8.835  65.180  1.00  0.00    -0.153 F  
HETATM    6  C   UNL     1      -7.577  10.033  66.958  1.00  0.00    -0.092 A  
HETATM    7  C   UNL     1      -6.435  10.658  67.480  1.00  0.00    -0.058 A  
HETATM    8  C   UNL     1      -5.174  10.047  65.500  1.00  0.00    -0.055 A  
HETATM    9  C   UNL     1      -5.243  10.665  66.749  1.00  0.00    -0.048 A  
BRANCH   6  10
HETATM   10  C   UNL     1      -8.818   9.973  67.759  1.00  0.00    -0.125 C  
HETATM   11  C   UNL     1      -8.257   7.722  68.725  1.00  0.00    -0.128 C  
HETATM   12  C   UNL     1      -9.150   8.935  68.559  1.00  0.00    -0.137 C  
HETATM   13  N   UNL     1     -10.333   8.984  69.307  1.00  0.00    -0.215 N  
HETATM   14  C   UNL     1     -11.042  10.175  69.484  1.00  0.00    -0.250 C  
HETATM   15  C   UNL     1      -9.793  11.096  67.618  1.00  0.00    -0.174 C  
HETATM   16  O   UNL     1     -11.838  10.332  70.413  1.00  0.00    -0.269 OA 
HETATM   17  O   UNL     1      -9.675  11.908  66.700  1.00  0.00    -0.197 OA 
HETATM   18  N   UNL     1     -10.795  11.170  68.561  1.00  0.00    -0.187 N  
BRANCH  13  19
HETATM   19  C   UNL     1     -10.830   7.836  70.075  1.00  0.00    -0.241 C  
BRANCH  19  20
HETATM   20  C   UNL     1      -9.966   7.338  71.227  1.00  0.00    -0.191 A  
HETATM   21  F   UNL     1      -8.802   4.490  69.533  1.00  0.00    -0.093 F  
HETATM   22  C   UNL     1      -9.806   4.879  70.366  1.00  0.00    -0.232 C  
HETATM   23  C   UNL     1      -9.400   6.039  71.256  1.00  0.00    -0.170 A  
HETATM   24  F   UNL     1     -10.101   9.465  72.295  1.00  0.00    -0.189 F  
HETATM   25  C   UNL     1      -8.374   5.756  72.192  1.00  0.00    -0.115 A  
HETATM   26  C   UNL     1      -9.549   8.248  72.218  1.00  0.00    -0.285 A  
HETATM   27  F   UNL     1     -10.122   3.777  71.104  1.00  0.00    -0.251 F  
HETATM   28  F   UNL     1     -10.887   5.091  69.574  1.00  0.00    -0.280 F  
HETATM   29  C   UNL     1      -8.564   7.938  73.156  1.00  0.00    -0.258 A  
HETATM   30  C   UNL     1      -7.949   6.699  73.123  1.00  0.00    -0.106 A  
ENDBRANCH  19  20
ENDBRANCH  13  19
BRANCH  18  31
HETATM   31  C   UNL     1     -11.662  12.355  68.570  1.00  0.00    -0.326 C  
BRANCH  31  32
HETATM   32  C   UNL     1     -10.961  13.697  68.182  1.00  0.00    -0.253 C  
BRANCH  32  33
HETATM   33  N   UNL     1     -11.185  14.805  69.149  1.00  0.00    -0.257 NA 
HETATM   34  H   UNL     1     -11.859  14.521  69.861  1.00  0.00     0.000 HD 
BRANCH  33  35
HETATM   35  C   UNL     1      -9.977  15.327  69.781  1.00  0.00    -0.198 C  
BRANCH  35  36
HETATM   36  C   UNL     1      -8.724  14.866  69.021  1.00  0.00    -0.177 C  
BRANCH  36  37
HETATM   37  C   UNL     1      -7.429  15.464  69.573  1.00  0.00    -0.211 C  
HETATM   38  O   UNL     1      -5.875  16.669  68.180  1.00  0.00    -0.109 OA 
HETATM   39  C   UNL     1      -6.945  16.642  68.769  1.00  0.00    -0.185 C  
HETATM   40  O   UNL     1      -7.782  17.702  68.799  1.00  0.00    -0.267 OA 
ENDBRANCH  36  37
ENDBRANCH  35  36
ENDBRANCH  33  35
ENDBRANCH  32  33
BRANCH  32  41
HETATM   41  C   UNL     1     -11.390  14.202  66.801  1.00  0.00    -0.353 A  
HETATM   42  C   UNL     1     -12.753  13.938  64.800  1.00  0.00    -0.248 A  
HETATM   43  C   UNL     1     -11.153  15.734  64.914  1.00  0.00    -0.411 A  
HETATM   44  C   UNL     1     -12.383  13.520  66.081  1.00  0.00    -0.463 A  
HETATM   45  C   UNL     1     -10.790  15.325  66.201  1.00  0.00    -0.320 A  
HETATM   46  C   UNL     1     -12.137  15.042  64.215  1.00  0.00    -0.323 A  
ENDBRANCH  32  41
ENDBRANCH  31  32
ENDBRANCH  18  31
ENDBRANCH   6  10
ENDBRANCH   2   3
TORSDOF 11
ENDMDL
MODEL      135
REMARK 921   NORMALIZED FREE ENERGY PREDICTED BY IDOCK:   -3.90 KCAL/MOL
REMARK 922        TOTAL FREE ENERGY PREDICTED BY IDOCK:   -9.47 KCAL/MOL
REMARK 923 INTER-LIGAND FREE ENERGY PREDICTED BY IDOCK:   -7.80 KCAL/MOL
REMARK 924 INTRA-LIGAND FREE ENERGY PREDICTED BY IDOCK:   -1.67 KCAL/MOL
REMARK 927      BINDING AFFINITY PREDICTED BY RF-SCORE:    0.00 PKD
ROOT
HETATM    1  C   UNL     1     -13.661   9.340  72.039  1.00  0.00    -0.452 C  
HETATM    2  O   UNL     1     -12.906   8.404  71.262  1.00  0.00    -0.275 OA 
ENDROOT
BRANCH   2   3
HETATM    3  C   UNL     1     -11.548   8.496  71.410  1.00  0.00    -0.289 A  
HETATM    4  C   UNL     1     -10.807   8.879  70.283  1.00  0.00    -0.239 A  
HETATM    5  F   UNL     1     -11.446   9.127  69.126  1.00  0.00    -0.013 F  
HETATM    6  C   UNL     1      -9.414   9.019  70.347  1.00  0.00    -0.247 A  
HETATM    7  C   UNL     1      -8.757   8.740  71.554  1.00  0.00    -0.274 A  
HETATM    8  C   UNL     1     -10.877   8.202  72.603  1.00  0.00    -0.429 A  
HETATM    9  C   UNL     1      -9.489   8.330  72.672  1.00  0.00    -0.354 A  
BRANCH   6  10
HETATM   10  C   UNL     1      -8.646   9.511  69.184  1.00  0.00    -0.140 C  
HETATM   11  C   UNL     1      -9.638  11.815  69.321  1.00  0.00     0.454 C  
HETATM   12  C   UNL     1      -8.737  10.769  68.697  1.00  0.00    -0.152 C  
HETATM   13  N   UNL     1      -7.942  11.153  67.610  1.00  0.00    -0.114 N  
HETATM   14  C   UNL     1      -6.854  10.384  67.186  1.00  0.00    -0.083 C  
HETATM   15  C   UNL     1      -7.772   8.536  68.463  1.00  0.00    -0.103 C  
HETATM   16  O   UNL     1      -5.938  10.862  66.512  1.00  0.00    -0.090 OA 
HETATM   17  O   UNL     1      -7.876   7.329  68.683  1.00  0.00    -0.117 OA 
HETATM   18  N   UNL     1      -6.862   9.060  67.571  1.00  0.00    -0.076 N  
BRANCH  13  19
HETATM   19  C   UNL     1      -8.097  12.449  66.937  1.00  0.00    -0.063 C  
BRANCH  19  20
HETATM   20  C   UNL     1      -9.506  12.857  66.522  1.00  0.00    -0.251 A  
HETATM   21  F   UNL     1     -10.460   9.645  65.470  1.00  0.00    -0.292 F  
HETATM   22  C   UNL     1      -9.912  10.790  64.980  1.00  0.00    -0.300 C  
HETATM   23  C   UNL     1     -10.352  12.017  65.755  1.00  0.00    -0.289 A  
HETATM   24  F   UNL     1      -9.311  14.899  67.735  1.00  0.00    -0.187 F  
HETATM   25  C   UNL     1     -11.733  12.327  65.669  1.00  0.00    -0.440 A  
HETATM   26  C   UNL     1     -10.073  14.025  67.067  1.00  0.00    -0.255 A  
HETATM   27  F   UNL     1     -10.307  10.861  63.676  1.00  0.00    -0.367 F  
HETATM   28  F   UNL     1      -8.574  10.572  64.928  1.00  0.00    -0.165 F  
HETATM   29  C   UNL     1     -11.428  14.333  66.940  1.00  0.00    -0.377 A  
HETATM   30  C   UNL     1     -12.269  13.464  66.267  1.00  0.00    -0.456 A  
ENDBRANCH  19  20
ENDBRANCH  13  19
BRANCH  18  31
HETATM   31  C   UNL     1      -5.863   8.161  66.980  1.00  0.00    -0.045 C  
BRANCH  31  32
HETATM   32  C   UNL     1      -6.334   7.385  65.707  1.00  0.00    -0.041 C  
BRANCH  32  33
HETATM   33  N   UNL     1      -7.788   7.515  65.418  1.00  0.00    -0.109 NA 
HETATM   34  H   UNL     1      -7.931   8.030  64.550  1.00  0.00     0.000 HD 
BRANCH  33  35
HETATM   35  C   UNL     1      -8.525   6.254  65.382  1.00  0.00    -0.129 C  
BRANCH  35  36
HETATM   36  C   UNL     1      -9.681   6.271  66.393  1.00  0.00    -0.146 C  
BRANCH  36  37
HETATM   37  C   UNL     1     -10.407   4.929  66.501  1.00  0.00    -0.311 C  
HETATM   38  O   UNL     1      -9.232   2.826  66.444  1.00  0.00    -0.143 OA 
HETATM   39  C   UNL     1      -9.531   3.838  67.058  1.00  0.00    -0.200 C  
HETATM   40  O   UNL     1      -9.141   4.052  68.334  1.00  0.00    -0.116 OA 
ENDBRANCH  36  37
ENDBRANCH  35  36
ENDBRANCH  33  35
ENDBRANCH  32  33
BRANCH  32  41
HETATM   41  C   UNL     1      -6.015   5.889  65.783  1.00  0.00    -0.028 A  
HETATM   42  C   UNL     1      -5.500   3.794  64.654  1.00  0.00    -0.010 A  
HETATM   43  C   UNL     1      -5.782   3.813  67.045  1.00  0.00    -0.022 A  
HETATM   44  C   UNL     1      -5.746   5.169  64.609  1.00  0.00    -0.017 A  
HETATM   45  C   UNL     1      -6.016   5.190  67.005  1.00  0.00    -0.026 A  
HETATM   46  C   UNL     1      -5.521   3.114  65.870  1.00  0.00    -0.017 A  
ENDBRANCH  32  41
ENDBRANCH  31  32
ENDBRANCH  18  31
ENDBRANCH   6  10
ENDBRANCH   2   3
TORSDOF 11
ENDMDL
MODEL      136
REMARK 921   NORMALIZED FREE ENERGY PREDICTED BY IDOCK:   -3.88 KCAL/MOL
REMARK 922        TOTAL FREE ENERGY PREDICTED BY IDOCK:   -9.44 KCAL/MOL
REMARK 923 INTER-LIGAND FREE ENERGY PREDICTED BY IDOCK:   -7.14 KCAL/MOL
REMARK 924 INTRA-LIGAND FREE ENERGY PREDICTED BY IDOCK:   -2.30 KCAL/MOL
REMARK 927      BINDING AFFINITY PREDICTED BY RF-SCORE:    0.00 PKD
ROOT
HETATM    1  C   UNL     1     -12.128  13.949  69.230  1.00  0.00    -0.339 C  
HETATM    2  O   UNL     1     -11.523  13.114  68.237  1.00  0.00    -0.272 OA 
ENDROOT
BRANCH   2   3
HETATM    3  C   UNL     1     -10.171  12.946  68.373  1.00  0.00    -0.237 A  
HETATM    4  C   UNL     1      -9.689  11.630  68.390  1.00  0.00    -0.199 A  
HETATM    5  F   UNL     1     -10.557  10.608  68.279  1.00  0.00    -0.176 F  
HETATM    6  C   UNL     1      -8.319  11.362  68.505  1.00  0.00    -0.153 A  
HETATM    7  C   UNL     1      -7.426  12.435  68.637  1.00  0.00    -0.095 A  
HETATM    8  C   UNL     1      -9.270  14.007  68.526  1.00  0.00    -0.170 A  
HETATM    9  C   UNL     1      -7.904  13.749  68.651  1.00  0.00    -0.108 A  
BRANCH   6  10
HETATM   10  C   UNL     1      -7.806   9.978  68.429  1.00  0.00    -0.089 C  
HETATM   11  C   UNL     1      -8.243   9.529  70.862  1.00  0.00     0.013 C  
HETATM   12  C   UNL     1      -7.755   9.133  69.483  1.00  0.00    -0.080 C  
HETATM   13  N   UNL     1      -7.284   7.826  69.305  1.00  0.00    -0.079 N  
HETATM   14  C   UNL     1      -7.132   7.267  68.034  1.00  0.00    -0.081 C  
HETATM   15  C   UNL     1      -7.246   9.513  67.124  1.00  0.00    -0.087 C  
HETATM   16  O   UNL     1      -7.092   6.046  67.856  1.00  0.00    -0.070 OA 
HETATM   17  O   UNL     1      -7.006  10.323  66.228  1.00  0.00    -0.101 OA 
HETATM   18  N   UNL     1      -7.034   8.158  66.986  1.00  0.00    -0.073 N  
BRANCH  13  19
HETATM   19  C   UNL     1      -7.059   6.908  70.428  1.00  0.00    -0.067 C  
BRANCH  19  20
HETATM   20  C   UNL     1      -7.971   5.691  70.530  1.00  0.00    -0.104 A  
HETATM   21  F   UNL     1      -5.457   3.516  71.661  1.00  0.00    -0.006 F  
HETATM   22  C   UNL     1      -6.038   3.937  70.505  1.00  0.00    -0.018 C  
HETATM   23  C   UNL     1      -7.476   4.375  70.708  1.00  0.00    -0.052 A  
HETATM   24  F   UNL     1      -9.903   7.083  70.405  1.00  0.00    -0.177 F  
HETATM   25  C   UNL     1      -8.374   3.349  71.096  1.00  0.00    -0.088 A  
HETATM   26  C   UNL     1      -9.363   5.881  70.640  1.00  0.00    -0.160 A  
HETATM   27  F   UNL     1      -5.960   2.881  69.645  1.00  0.00    -0.020 F  
HETATM   28  F   UNL     1      -5.203   4.872  69.987  1.00  0.00     0.000 F  
HETATM   29  C   UNL     1     -10.236   4.849  70.986  1.00  0.00    -0.262 A  
HETATM   30  C   UNL     1      -9.737   3.586  71.248  1.00  0.00    -0.237 A  
ENDBRANCH  19  20
ENDBRANCH  13  19
BRANCH  18  31
HETATM   31  C   UNL     1      -6.661   7.638  65.665  1.00  0.00    -0.045 C  
BRANCH  31  32
HETATM   32  C   UNL     1      -7.852   7.410  64.678  1.00  0.00    -0.123 C  
BRANCH  32  33
HETATM   33  N   UNL     1      -9.009   8.320  64.897  1.00  0.00    -0.393 NA 
HETATM   34  H   UNL     1      -9.031   8.635  65.866  1.00  0.00     0.000 HD 
BRANCH  33  35
HETATM   35  C   UNL     1      -9.071   9.466  63.994  1.00  0.00    -0.060 C  
BRANCH  35  36
HETATM   36  C   UNL     1     -10.046  10.527  64.528  1.00  0.00    -0.402 C  
BRANCH  36  37
HETATM   37  C   UNL     1     -10.596  11.445  63.436  1.00  0.00    -0.435 C  
HETATM   38  O   UNL     1     -12.916  12.089  63.348  1.00  0.00    -0.772 OA 
HETATM   39  C   UNL     1     -11.821  12.202  63.877  1.00  0.00    -0.466 C  
HETATM   40  O   UNL     1     -11.591  13.069  64.886  1.00  0.00    -0.307 OA 
ENDBRANCH  36  37
ENDBRANCH  35  36
ENDBRANCH  33  35
ENDBRANCH  32  33
BRANCH  32  41
HETATM   41  C   UNL     1      -8.385   5.974  64.727  1.00  0.00    -0.086 A  
HETATM   42  C   UNL     1     -10.003   4.364  65.575  1.00  0.00    -0.242 A  
HETATM   43  C   UNL     1      -8.201   3.605  64.169  1.00  0.00    -0.090 A  
HETATM   44  C   UNL     1      -9.531   5.676  65.479  1.00  0.00     0.093 A  
HETATM   45  C   UNL     1      -7.734   4.917  64.062  1.00  0.00    -0.077 A  
HETATM   46  C   UNL     1      -9.337   3.328  64.923  1.00  0.00    -0.149 A  
ENDBRANCH  32  41
ENDBRANCH  31  32
ENDBRANCH  18  31
ENDBRANCH   6  10
ENDBRANCH   2   3
TORSDOF 11
ENDMDL
MODEL      137
REMARK 921   NORMALIZED FREE ENERGY PREDICTED BY IDOCK:   -3.84 KCAL/MOL
REMARK 922        TOTAL FREE ENERGY PREDICTED BY IDOCK:   -9.36 KCAL/MOL
REMARK 923 INTER-LIGAND FREE ENERGY PREDICTED BY IDOCK:   -9.44 KCAL/MOL
REMARK 924 INTRA-LIGAND FREE ENERGY PREDICTED BY IDOCK:    0.08 KCAL/MOL
REMARK 927      BINDING AFFINITY PREDICTED BY RF-SCORE:    0.00 PKD
ROOT
HETATM    1  C   UNL     1     -12.888  12.204  63.770  1.00  0.00    -0.333 C  
HETATM    2  O   UNL     1     -11.687  12.329  63.002  1.00  0.00    -0.263 OA 
ENDROOT
BRANCH   2   3
HETATM    3  C   UNL     1     -10.645  11.553  63.434  1.00  0.00    -0.395 A  
HETATM    4  C   UNL     1     -10.306  11.637  64.792  1.00  0.00    -0.282 A  
HETATM    5  F   UNL     1     -10.999  12.464  65.594  1.00  0.00    -0.288 F  
HETATM    6  C   UNL     1      -9.266  10.865  65.327  1.00  0.00    -0.236 A  
HETATM    7  C   UNL     1      -8.539  10.020  64.476  1.00  0.00    -0.197 A  
HETATM    8  C   UNL     1      -9.898  10.720  62.592  1.00  0.00    -0.166 A  
HETATM    9  C   UNL     1      -8.855   9.955  63.116  1.00  0.00    -0.254 A  
BRANCH   6  10
HETATM   10  C   UNL     1      -8.972  10.887  66.775  1.00  0.00    -0.158 C  
HETATM   11  C   UNL     1     -10.504   8.956  67.263  1.00  0.00    -0.348 C  
HETATM   12  C   UNL     1      -9.525  10.039  67.671  1.00  0.00    -0.144 C  
HETATM   13  N   UNL     1      -9.157  10.114  69.020  1.00  0.00    -0.163 N  
HETATM   14  C   UNL     1      -8.034  10.835  69.436  1.00  0.00    -0.067 C  
HETATM   15  C   UNL     1      -8.062  11.957  67.285  1.00  0.00    -0.171 C  
HETATM   16  O   UNL     1      -7.479  10.616  70.516  1.00  0.00     0.021 OA 
HETATM   17  O   UNL     1      -7.768  12.915  66.568  1.00  0.00     0.383 OA 
HETATM   18  N   UNL     1      -7.578  11.803  68.566  1.00  0.00    -0.125 N  
BRANCH  13  19
HETATM   19  C   UNL     1      -9.826   9.331  70.066  1.00  0.00    -0.205 C  
BRANCH  19  20
HETATM   20  C   UNL     1     -11.138   9.877  70.616  1.00  0.00    -0.409 A  
HETATM   21  F   UNL     1     -11.390   7.520  73.207  1.00  0.00    -0.385 F  
HETATM   22  C   UNL     1     -11.777   7.706  71.916  1.00  0.00    -0.289 C  
HETATM   23  C   UNL     1     -11.924   9.173  71.563  1.00  0.00    -0.422 A  
HETATM   24  F   UNL     1     -10.856  11.899  69.386  1.00  0.00    -0.250 F  
HETATM   25  C   UNL     1     -12.955   9.863  72.249  1.00  0.00    -0.387 A  
HETATM   26  C   UNL     1     -11.507  11.206  70.328  1.00  0.00    -0.237 A  
HETATM   27  F   UNL     1     -12.964   7.045  71.788  1.00  0.00    -0.366 F  
HETATM   28  F   UNL     1     -10.901   6.999  71.159  1.00  0.00    -0.240 F  
HETATM   29  C   UNL     1     -12.550  11.856  70.987  1.00  0.00    -0.381 A  
HETATM   30  C   UNL     1     -13.256  11.194  71.976  1.00  0.00    -0.428 A  
ENDBRANCH  19  20
ENDBRANCH  13  19
BRANCH  18  31
HETATM   31  C   UNL     1      -6.542  12.728  69.039  1.00  0.00    -0.099 C  
BRANCH  31  32
HETATM   32  C   UNL     1      -6.527  14.127  68.341  1.00  0.00    -0.103 C  
BRANCH  32  33
HETATM   33  N   UNL     1      -5.406  15.009  68.764  1.00  0.00    -0.086 NA 
HETATM   34  H   UNL     1      -5.449  15.897  68.266  1.00  0.00     0.000 HD 
BRANCH  33  35
HETATM   35  C   UNL     1      -5.313  15.241  70.203  1.00  0.00    -0.124 C  
BRANCH  35  36
HETATM   36  C   UNL     1      -5.191  16.743  70.504  1.00  0.00    -0.223 C  
BRANCH  36  37
HETATM   37  C   UNL     1      -5.477  17.627  69.289  1.00  0.00    -0.194 C  
HETATM   38  O   UNL     1      -7.335  19.160  69.226  1.00  0.00    -0.306 OA 
HETATM   39  C   UNL     1      -6.223  18.885  69.649  1.00  0.00    -0.257 C  
HETATM   40  O   UNL     1      -5.525  19.720  70.448  1.00  0.00    -0.216 OA 
ENDBRANCH  36  37
ENDBRANCH  35  36
ENDBRANCH  33  35
ENDBRANCH  32  33
BRANCH  32  41
HETATM   41  C   UNL     1      -7.829  14.905  68.563  1.00  0.00    -0.126 A  
HETATM   42  C   UNL     1      -9.312  16.734  67.943  1.00  0.00    -0.229 A  
HETATM   43  C   UNL     1      -9.860  15.355  69.839  1.00  0.00    -0.191 A  
HETATM   44  C   UNL     1      -8.154  15.983  67.726  1.00  0.00    -0.154 A  
HETATM   45  C   UNL     1      -8.709  14.595  69.617  1.00  0.00     0.318 A  
HETATM   46  C   UNL     1     -10.163  16.423  69.001  1.00  0.00    -0.269 A  
ENDBRANCH  32  41
ENDBRANCH  31  32
ENDBRANCH  18  31
ENDBRANCH   6  10
ENDBRANCH   2   3
TORSDOF 11
ENDMDL
MODEL      138
REMARK 921   NORMALIZED FREE ENERGY PREDICTED BY IDOCK:   -3.83 KCAL/MOL
REMARK 922        TOTAL FREE ENERGY PREDICTED BY IDOCK:   -9.36 KCAL/MOL
REMARK 923 INTER-LIGAND FREE ENERGY PREDICTED BY IDOCK:   -7.82 KCAL/MOL
REMARK 924 INTRA-LIGAND FREE ENERGY PREDICTED BY IDOCK:   -1.54 KCAL/MOL
REMARK 927      BINDING AFFINITY PREDICTED BY RF-SCORE:    0.00 PKD
ROOT
HETATM    1  C   UNL     1      -6.905  17.519  65.932  1.00  0.00    -0.167 C  
HETATM    2  O   UNL     1      -8.009  17.546  66.843  1.00  0.00    -0.204 OA 
ENDROOT
BRANCH   2   3
HETATM    3  C   UNL     1      -9.064  16.747  66.490  1.00  0.00    -0.273 A  
HETATM    4  C   UNL     1      -8.944  15.376  66.759  1.00  0.00    -0.259 A  
HETATM    5  F   UNL     1      -7.819  14.912  67.332  1.00  0.00    -0.150 F  
HETATM    6  C   UNL     1      -9.981  14.485  66.451  1.00  0.00    -0.304 A  
HETATM    7  C   UNL     1     -11.141  14.979  65.837  1.00  0.00    -0.334 A  
HETATM    8  C   UNL     1     -10.220  17.222  65.860  1.00  0.00    -0.273 A  
HETATM    9  C   UNL     1     -11.253  16.340  65.542  1.00  0.00     0.101 A  
BRANCH   6  10
HETATM   10  C   UNL     1      -9.890  13.056  66.819  1.00  0.00    -0.243 C  
HETATM   11  C   UNL     1      -9.972  13.536  69.284  1.00  0.00     0.399 C  
HETATM   12  C   UNL     1      -9.876  12.604  68.093  1.00  0.00    -0.226 C  
HETATM   13  N   UNL     1      -9.822  11.227  68.342  1.00  0.00    -0.193 N  
HETATM   14  C   UNL     1     -10.068  10.288  67.337  1.00  0.00    -0.202 C  
HETATM   15  C   UNL     1      -9.732  12.062  65.715  1.00  0.00    -0.235 C  
HETATM   16  O   UNL     1     -10.398   9.127  67.592  1.00  0.00    -0.224 OA 
HETATM   17  O   UNL     1      -9.450  12.437  64.577  1.00  0.00     0.099 OA 
HETATM   18  N   UNL     1      -9.928  10.737  66.040  1.00  0.00    -0.233 N  
BRANCH  13  19
HETATM   19  C   UNL     1      -9.652  10.675  69.691  1.00  0.00     0.062 C  
BRANCH  19  20
HETATM   20  C   UNL     1     -10.860   9.998  70.328  1.00  0.00    -0.370 A  
HETATM   21  F   UNL     1      -9.014   7.409  71.818  1.00  0.00    -0.122 F  
HETATM   22  C   UNL     1      -9.691   7.690  70.672  1.00  0.00    -0.174 C  
HETATM   23  C   UNL     1     -10.802   8.699  70.891  1.00  0.00    -0.288 A  
HETATM   24  F   UNL     1     -12.185  11.948  69.972  1.00  0.00    -0.337 F  
HETATM   25  C   UNL     1     -11.863   8.263  71.724  1.00  0.00    -0.357 A  
HETATM   26  C   UNL     1     -12.035  10.746  70.541  1.00  0.00    -0.361 A  
HETATM   27  F   UNL     1     -10.186   6.496  70.233  1.00  0.00    -0.195 F  
HETATM   28  F   UNL     1      -8.751   8.034  69.757  1.00  0.00    -0.130 F  
HETATM   29  C   UNL     1     -13.085  10.284  71.335  1.00  0.00    -0.512 A  
HETATM   30  C   UNL     1     -12.986   9.051  71.957  1.00  0.00    -0.470 A  
ENDBRANCH  19  20
ENDBRANCH  13  19
BRANCH  18  31
HETATM   31  C   UNL     1      -9.964   9.748  64.957  1.00  0.00    -0.062 C  
BRANCH  31  32
HETATM   32  C   UNL     1      -8.571   9.191  64.515  1.00  0.00    -0.175 C  
BRANCH  32  33
HETATM   33  N   UNL     1      -8.591   7.764  64.093  1.00  0.00    -0.354 NA 
HETATM   34  H   UNL     1      -9.551   7.423  64.048  1.00  0.00     0.000 HD 
BRANCH  33  35
HETATM   35  C   UNL     1      -7.896   7.481  62.841  1.00  0.00    -0.130 C  
BRANCH  35  36
HETATM   36  C   UNL     1      -7.046   6.207  62.966  1.00  0.00    -0.051 C  
BRANCH  36  37
HETATM   37  C   UNL     1      -7.273   5.458  64.280  1.00  0.00    -0.055 C  
HETATM   38  O   UNL     1      -9.442   4.633  64.930  1.00  0.00    -0.155 OA 
HETATM   39  C   UNL     1      -8.454   4.525  64.220  1.00  0.00    -0.120 C  
HETATM   40  O   UNL     1      -8.302   3.512  63.339  1.00  0.00    -0.088 OA 
ENDBRANCH  36  37
ENDBRANCH  35  36
ENDBRANCH  33  35
ENDBRANCH  32  33
BRANCH  32  41
HETATM   41  C   UNL     1      -7.512   9.329  65.613  1.00  0.00    -0.094 A  
HETATM   42  C   UNL     1      -5.754  10.632  66.682  1.00  0.00    -0.068 A  
HETATM   43  C   UNL     1      -6.224   8.406  67.471  1.00  0.00    -0.053 A  
HETATM   44  C   UNL     1      -6.758  10.507  65.717  1.00  0.00    -0.123 A  
HETATM   45  C   UNL     1      -7.237   8.283  66.515  1.00  0.00    -0.076 A  
HETATM   46  C   UNL     1      -5.484   9.581  67.556  1.00  0.00    -0.037 A  
ENDBRANCH  32  41
ENDBRANCH  31  32
ENDBRANCH  18  31
ENDBRANCH   6  10
ENDBRANCH   2   3
TORSDOF 11
ENDMDL
MODEL      139
REMARK 921   NORMALIZED FREE ENERGY PREDICTED BY IDOCK:   -3.83 KCAL/MOL
REMARK 922        TOTAL FREE ENERGY PREDICTED BY IDOCK:   -9.35 KCAL/MOL
REMARK 923 INTER-LIGAND FREE ENERGY PREDICTED BY IDOCK:   -8.43 KCAL/MOL
REMARK 924 INTRA-LIGAND FREE ENERGY PREDICTED BY IDOCK:   -0.92 KCAL/MOL
REMARK 927      BINDING AFFINITY PREDICTED BY RF-SCORE:    0.00 PKD
ROOT
HETATM    1  C   UNL     1     -10.576  11.431  62.835  1.00  0.00     0.056 C  
HETATM    2  O   UNL     1      -9.646  10.460  62.346  1.00  0.00    -0.265 OA 
ENDROOT
BRANCH   2   3
HETATM    3  C   UNL     1      -8.514  10.314  63.103  1.00  0.00    -0.180 A  
HETATM    4  C   UNL     1      -8.681   9.867  64.421  1.00  0.00    -0.202 A  
HETATM    5  F   UNL     1      -9.919   9.613  64.880  1.00  0.00    -0.369 F  
HETATM    6  C   UNL     1      -7.578   9.670  65.263  1.00  0.00    -0.113 A  
HETATM    7  C   UNL     1      -6.294   9.957  64.779  1.00  0.00    -0.115 A  
HETATM    8  C   UNL     1      -7.228  10.614  62.639  1.00  0.00    -0.069 A  
HETATM    9  C   UNL     1      -6.125  10.430  63.474  1.00  0.00    -0.105 A  
BRANCH   6  10
HETATM   10  C   UNL     1      -7.749   9.112  66.621  1.00  0.00    -0.097 C  
HETATM   11  C   UNL     1      -6.417   7.048  66.097  1.00  0.00    -0.051 C  
HETATM   12  C   UNL     1      -7.240   7.925  67.018  1.00  0.00    -0.090 C  
HETATM   13  N   UNL     1      -7.425   7.495  68.338  1.00  0.00    -0.106 N  
HETATM   14  C   UNL     1      -7.867   8.365  69.339  1.00  0.00    -0.103 C  
HETATM   15  C   UNL     1      -8.596   9.876  67.586  1.00  0.00    -0.122 C  
HETATM   16  O   UNL     1      -7.680   8.134  70.537  1.00  0.00    -0.080 OA 
HETATM   17  O   UNL     1      -9.309  10.799  67.191  1.00  0.00    -0.154 OA 
HETATM   18  N   UNL     1      -8.521   9.501  68.910  1.00  0.00    -0.120 N  
BRANCH  13  19
HETATM   19  C   UNL     1      -7.033   6.156  68.795  1.00  0.00    -0.076 C  
BRANCH  19  20
HETATM   20  C   UNL     1      -7.959   5.456  69.784  1.00  0.00    -0.088 A  
HETATM   21  F   UNL     1     -10.091   4.135  67.326  1.00  0.00    -0.225 F  
HETATM   22  C   UNL     1      -9.960   5.230  68.123  1.00  0.00    -0.155 C  
HETATM   23  C   UNL     1      -9.217   4.922  69.409  1.00  0.00    -0.160 A  
HETATM   24  F   UNL     1      -6.342   5.690  71.519  1.00  0.00    -0.036 F  
HETATM   25  C   UNL     1      -9.876   4.030  70.292  1.00  0.00    -0.205 A  
HETATM   26  C   UNL     1      -7.485   5.154  71.075  1.00  0.00    -0.078 A  
HETATM   27  F   UNL     1     -11.230   5.658  68.376  1.00  0.00    -0.271 F  
HETATM   28  F   UNL     1      -9.416   6.197  67.342  1.00  0.00    -0.116 F  
HETATM   29  C   UNL     1      -8.167   4.303  71.946  1.00  0.00    -0.097 A  
HETATM   30  C   UNL     1      -9.350   3.711  71.541  1.00  0.00    -0.207 A  
ENDBRANCH  19  20
ENDBRANCH  13  19
BRANCH  18  31
HETATM   31  C   UNL     1      -9.190  10.336  69.914  1.00  0.00     0.022 C  
BRANCH  31  32
HETATM   32  C   UNL     1     -10.725  10.085  70.076  1.00  0.00    -0.299 C  
BRANCH  32  33
HETATM   33  N   UNL     1     -11.477  11.242  70.633  1.00  0.00    -0.378 NA 
HETATM   34  H   UNL     1     -10.962  11.656  71.409  1.00  0.00     0.000 HD 
BRANCH  33  35
HETATM   35  C   UNL     1     -11.835  12.271  69.660  1.00  0.00    -0.324 C  
BRANCH  35  36
HETATM   36  C   UNL     1     -11.806  13.664  70.308  1.00  0.00    -0.336 C  
BRANCH  36  37
HETATM   37  C   UNL     1     -13.140  14.063  70.939  1.00  0.00    -0.296 C  
HETATM   38  O   UNL     1     -14.186  12.750  72.668  1.00  0.00    -0.420 OA 
HETATM   39  C   UNL     1     -13.304  13.527  72.338  1.00  0.00    -0.540 C  
HETATM   40  O   UNL     1     -12.412  14.029  73.219  1.00  0.00    -0.170 OA 
ENDBRANCH  36  37
ENDBRANCH  35  36
ENDBRANCH  33  35
ENDBRANCH  32  33
BRANCH  32  41
HETATM   41  C   UNL     1     -11.029   8.873  70.962  1.00  0.00    -0.341 A  
HETATM   42  C   UNL     1     -12.237   6.790  71.327  1.00  0.00    -0.415 A  
HETATM   43  C   UNL     1     -10.811   7.652  73.065  1.00  0.00    -0.457 A  
HETATM   44  C   UNL     1     -11.911   7.878  70.513  1.00  0.00    -0.037 A  
HETATM   45  C   UNL     1     -10.474   8.735  72.248  1.00  0.00    -0.317 A  
HETATM   46  C   UNL     1     -11.691   6.679  72.604  1.00  0.00    -0.123 A  
ENDBRANCH  32  41
ENDBRANCH  31  32
ENDBRANCH  18  31
ENDBRANCH   6  10
ENDBRANCH   2   3
TORSDOF 11
ENDMDL
MODEL      140
REMARK 921   NORMALIZED FREE ENERGY PREDICTED BY IDOCK:   -3.83 KCAL/MOL
REMARK 922        TOTAL FREE ENERGY PREDICTED BY IDOCK:   -9.34 KCAL/MOL
REMARK 923 INTER-LIGAND FREE ENERGY PREDICTED BY IDOCK:   -7.32 KCAL/MOL
REMARK 924 INTRA-LIGAND FREE ENERGY PREDICTED BY IDOCK:   -2.02 KCAL/MOL
REMARK 927      BINDING AFFINITY PREDICTED BY RF-SCORE:    0.00 PKD
ROOT
HETATM    1  C   UNL     1      -7.926  15.670  67.585  1.00  0.00    -0.153 C  
HETATM    2  O   UNL     1      -8.857  15.073  68.494  1.00  0.00    -0.166 OA 
ENDROOT
BRANCH   2   3
HETATM    3  C   UNL     1      -9.829  14.311  67.903  1.00  0.00    -0.226 A  
HETATM    4  C   UNL     1      -9.605  12.929  67.838  1.00  0.00    -0.215 A  
HETATM    5  F   UNL     1      -8.466  12.420  68.342  1.00  0.00    -0.159 F  
HETATM    6  C   UNL     1     -10.554  12.068  67.270  1.00  0.00    -0.252 A  
HETATM    7  C   UNL     1     -11.729  12.613  66.732  1.00  0.00    -0.460 A  
HETATM    8  C   UNL     1     -10.998  14.843  67.345  1.00  0.00    -0.314 A  
HETATM    9  C   UNL     1     -11.943  13.994  66.769  1.00  0.00    -0.473 A  
BRANCH   6  10
HETATM   10  C   UNL     1     -10.357  10.604  67.285  1.00  0.00    -0.265 C  
HETATM   11  C   UNL     1      -9.251  10.583  65.029  1.00  0.00    -0.245 C  
HETATM   12  C   UNL     1      -9.777   9.910  66.280  1.00  0.00    -0.222 C  
HETATM   13  N   UNL     1      -9.602   8.525  66.401  1.00  0.00    -0.231 N  
HETATM   14  C   UNL     1      -9.740   7.872  67.629  1.00  0.00    -0.156 C  
HETATM   15  C   UNL     1     -10.895   9.841  68.452  1.00  0.00    -0.201 C  
HETATM   16  O   UNL     1      -9.236   6.765  67.842  1.00  0.00    -0.116 OA 
HETATM   17  O   UNL     1     -11.673  10.379  69.239  1.00  0.00    -0.222 OA 
HETATM   18  N   UNL     1     -10.467   8.538  68.592  1.00  0.00    -0.198 N  
BRANCH  13  19
HETATM   19  C   UNL     1      -9.122   7.690  65.294  1.00  0.00     0.376 C  
BRANCH  19  20
HETATM   20  C   UNL     1      -7.811   6.941  65.500  1.00  0.00    -0.112 A  
HETATM   21  F   UNL     1      -8.972   3.911  64.157  1.00  0.00    -0.112 F  
HETATM   22  C   UNL     1      -8.867   4.559  65.349  1.00  0.00    -0.137 C  
HETATM   23  C   UNL     1      -7.705   5.533  65.375  1.00  0.00    -0.089 A  
HETATM   24  F   UNL     1      -6.648   8.995  65.835  1.00  0.00    -0.061 F  
HETATM   25  C   UNL     1      -6.418   4.946  65.278  1.00  0.00    -0.036 A  
HETATM   26  C   UNL     1      -6.614   7.672  65.635  1.00  0.00    -0.045 A  
HETATM   27  F   UNL     1      -8.714   3.581  66.288  1.00  0.00    -0.107 F  
HETATM   28  F   UNL     1     -10.090   5.090  65.594  1.00  0.00    -0.188 F  
HETATM   29  C   UNL     1      -5.356   7.071  65.575  1.00  0.00    -0.027 A  
HETATM   30  C   UNL     1      -5.256   5.708  65.362  1.00  0.00    -0.009 A  
ENDBRANCH  19  20
ENDBRANCH  13  19
BRANCH  18  31
HETATM   31  C   UNL     1     -10.823   7.812  69.818  1.00  0.00    -0.209 C  
BRANCH  31  32
HETATM   32  C   UNL     1      -9.843   8.012  71.019  1.00  0.00    -0.174 C  
BRANCH  32  33
HETATM   33  N   UNL     1      -8.405   7.865  70.664  1.00  0.00    -0.121 NA 
HETATM   34  H   UNL     1      -8.146   8.549  69.954  1.00  0.00     0.000 HD 
BRANCH  33  35
HETATM   35  C   UNL     1      -7.481   7.936  71.792  1.00  0.00    -0.074 C  
BRANCH  35  36
HETATM   36  C   UNL     1      -6.027   8.014  71.300  1.00  0.00    -0.034 C  
BRANCH  36  37
HETATM   37  C   UNL     1      -5.913   8.215  69.789  1.00  0.00    -0.029 C  
HETATM   38  O   UNL     1      -7.049  10.004  68.642  1.00  0.00    -0.075 OA 
HETATM   39  C   UNL     1      -6.140   9.645  69.374  1.00  0.00    -0.036 C  
HETATM   40  O   UNL     1      -5.209  10.502  69.845  1.00  0.00    -0.038 OA 
ENDBRANCH  36  37
ENDBRANCH  35  36
ENDBRANCH  33  35
ENDBRANCH  32  33
BRANCH  32  41
HETATM   41  C   UNL     1     -10.129   7.047  72.174  1.00  0.00    -0.198 A  
HETATM   42  C   UNL     1     -11.054   4.938  72.966  1.00  0.00    -0.368 A  
HETATM   43  C   UNL     1     -10.154   6.507  74.555  1.00  0.00    -0.332 A  
HETATM   44  C   UNL     1     -10.741   5.810  71.920  1.00  0.00    -0.297 A  
HETATM   45  C   UNL     1      -9.829   7.376  73.510  1.00  0.00    -0.363 A  
HETATM   46  C   UNL     1     -10.765   5.286  74.283  1.00  0.00    -0.151 A  
ENDBRANCH  32  41
ENDBRANCH  31  32
ENDBRANCH  18  31
ENDBRANCH   6  10
ENDBRANCH   2   3
TORSDOF 11
ENDMDL
MODEL      141
REMARK 921   NORMALIZED FREE ENERGY PREDICTED BY IDOCK:   -3.81 KCAL/MOL
REMARK 922        TOTAL FREE ENERGY PREDICTED BY IDOCK:   -9.32 KCAL/MOL
REMARK 923 INTER-LIGAND FREE ENERGY PREDICTED BY IDOCK:   -7.87 KCAL/MOL
REMARK 924 INTRA-LIGAND FREE ENERGY PREDICTED BY IDOCK:   -1.44 KCAL/MOL
REMARK 927      BINDING AFFINITY PREDICTED BY RF-SCORE:    0.00 PKD
ROOT
HETATM    1  C   UNL     1      -6.224   7.156  68.629  1.00  0.00    -0.031 C  
HETATM    2  O   UNL     1      -6.752   8.376  69.159  1.00  0.00    -0.046 OA 
ENDROOT
BRANCH   2   3
HETATM    3  C   UNL     1      -7.497   9.112  68.277  1.00  0.00    -0.083 A  
HETATM    4  C   UNL     1      -7.576  10.493  68.505  1.00  0.00    -0.097 A  
HETATM    5  F   UNL     1      -6.937  11.025  69.562  1.00  0.00    -0.090 F  
HETATM    6  C   UNL     1      -8.299  11.328  67.643  1.00  0.00    -0.123 A  
HETATM    7  C   UNL     1      -8.977  10.759  66.555  1.00  0.00    -0.168 A  
HETATM    8  C   UNL     1      -8.194   8.555  67.198  1.00  0.00    -0.108 A  
HETATM    9  C   UNL     1      -8.924   9.379  66.341  1.00  0.00    -0.182 A  
BRANCH   6  10
HETATM   10  C   UNL     1      -8.305  12.794  67.833  1.00  0.00    -0.172 C  
HETATM   11  C   UNL     1      -6.003  13.074  66.866  1.00  0.00     0.862 C  
HETATM   12  C   UNL     1      -7.275  13.602  67.496  1.00  0.00    -0.156 C  
HETATM   13  N   UNL     1      -7.387  14.986  67.682  1.00  0.00    -0.170 N  
HETATM   14  C   UNL     1      -8.619  15.596  67.934  1.00  0.00    -0.162 C  
HETATM   15  C   UNL     1      -9.493  13.405  68.502  1.00  0.00    -0.121 C  
HETATM   16  O   UNL     1      -8.809  16.798  67.727  1.00  0.00    -0.204 OA 
HETATM   17  O   UNL     1     -10.314  12.693  69.081  1.00  0.00    -0.006 OA 
HETATM   18  N   UNL     1      -9.614  14.776  68.423  1.00  0.00    -0.207 N  
BRANCH  13  19
HETATM   19  C   UNL     1      -6.259  15.904  67.482  1.00  0.00    -0.158 C  
BRANCH  19  20
HETATM   20  C   UNL     1      -5.794  16.713  68.687  1.00  0.00    -0.130 A  
HETATM   21  F   UNL     1      -7.482  19.649  67.756  1.00  0.00    -0.278 F  
HETATM   22  C   UNL     1      -6.272  19.043  67.612  1.00  0.00    -0.203 C  
HETATM   23  C   UNL     1      -5.947  18.120  68.771  1.00  0.00    -0.198 A  
HETATM   24  F   UNL     1      -5.126  14.722  69.813  1.00  0.00    -0.093 F  
HETATM   25  C   UNL     1      -5.776  18.757  70.025  1.00  0.00    -0.253 A  
HETATM   26  C   UNL     1      -5.365  16.038  69.847  1.00  0.00    -0.133 A  
HETATM   27  F   UNL     1      -5.361  20.055  67.516  1.00  0.00    -0.169 F  
HETATM   28  F   UNL     1      -6.286  18.469  66.383  1.00  0.00    -0.174 F  
HETATM   29  C   UNL     1      -5.166  16.689  71.064  1.00  0.00    -0.120 A  
HETATM   30  C   UNL     1      -5.404  18.048  71.164  1.00  0.00    -0.150 A  
ENDBRANCH  19  20
ENDBRANCH  13  19
BRANCH  18  31
HETATM   31  C   UNL     1     -10.853  15.399  68.904  1.00  0.00    -0.251 C  
BRANCH  31  32
HETATM   32  C   UNL     1     -12.160  14.920  68.192  1.00  0.00    -0.085 C  
BRANCH  32  33
HETATM   33  N   UNL     1     -12.860  13.806  68.887  1.00  0.00     0.266 NA 
HETATM   34  H   UNL     1     -12.729  12.934  68.375  1.00  0.00     0.000 HD 
BRANCH  33  35
HETATM   35  C   UNL     1     -12.493  13.626  70.289  1.00  0.00    -0.265 C  
BRANCH  35  36
HETATM   36  C   UNL     1     -13.329  14.546  71.191  1.00  0.00    -0.415 C  
BRANCH  36  37
HETATM   37  C   UNL     1     -13.160  14.244  72.681  1.00  0.00    -0.567 C  
HETATM   38  O   UNL     1     -11.831  15.638  74.130  1.00  0.00    -0.310 OA 
HETATM   39  C   UNL     1     -12.860  15.478  73.493  1.00  0.00    -0.560 C  
HETATM   40  O   UNL     1     -13.864  16.381  73.499  1.00  0.00    -0.487 OA 
ENDBRANCH  36  37
ENDBRANCH  35  36
ENDBRANCH  33  35
ENDBRANCH  32  33
BRANCH  32  41
HETATM   41  C   UNL     1     -11.909  14.473  66.748  1.00  0.00    -0.390 A  
HETATM   42  C   UNL     1     -11.340  15.031  64.447  1.00  0.00    -0.207 A  
HETATM   43  C   UNL     1     -11.912  12.760  65.008  1.00  0.00    -0.456 A  
HETATM   44  C   UNL     1     -11.526  15.412  65.779  1.00  0.00    -0.022 A  
HETATM   45  C   UNL     1     -12.087  13.137  66.343  1.00  0.00    -0.447 A  
HETATM   46  C   UNL     1     -11.536  13.707  64.061  1.00  0.00    -0.353 A  
ENDBRANCH  32  41
ENDBRANCH  31  32
ENDBRANCH  18  31
ENDBRANCH   6  10
ENDBRANCH   2   3
TORSDOF 11
ENDMDL
MODEL      142
REMARK 921   NORMALIZED FREE ENERGY PREDICTED BY IDOCK:   -3.77 KCAL/MOL
REMARK 922        TOTAL FREE ENERGY PREDICTED BY IDOCK:   -9.25 KCAL/MOL
REMARK 923 INTER-LIGAND FREE ENERGY PREDICTED BY IDOCK:   -8.31 KCAL/MOL
REMARK 924 INTRA-LIGAND FREE ENERGY PREDICTED BY IDOCK:   -0.94 KCAL/MOL
REMARK 927      BINDING AFFINITY PREDICTED BY RF-SCORE:    0.00 PKD
ROOT
HETATM    1  C   UNL     1      -9.603   7.236  73.585  1.00  0.00    -0.269 C  
HETATM    2  O   UNL     1      -9.769   7.532  72.194  1.00  0.00    -0.158 OA 
ENDROOT
BRANCH   2   3
HETATM    3  C   UNL     1     -10.774   8.418  71.910  1.00  0.00    -0.303 A  
HETATM    4  C   UNL     1     -10.547   9.327  70.866  1.00  0.00    -0.296 A  
HETATM    5  F   UNL     1      -9.376   9.295  70.207  1.00  0.00    -0.180 F  
HETATM    6  C   UNL     1     -11.527  10.256  70.492  1.00  0.00    -0.427 A  
HETATM    7  C   UNL     1     -12.737  10.291  71.199  1.00  0.00    -0.502 A  
HETATM    8  C   UNL     1     -11.979   8.476  72.620  1.00  0.00    -0.309 A  
HETATM    9  C   UNL     1     -12.955   9.406  72.259  1.00  0.00    -0.479 A  
BRANCH   6  10
HETATM   10  C   UNL     1     -11.322  11.150  69.333  1.00  0.00    -0.352 C  
HETATM   11  C   UNL     1     -11.843  13.222  70.656  1.00  0.00    -0.128 C  
HETATM   12  C   UNL     1     -11.466  12.493  69.382  1.00  0.00    -0.263 C  
HETATM   13  N   UNL     1     -11.216  13.262  68.238  1.00  0.00    -0.260 N  
HETATM   14  C   UNL     1     -10.549  12.734  67.129  1.00  0.00    -0.237 C  
HETATM   15  C   UNL     1     -11.005  10.521  68.015  1.00  0.00    -0.290 C  
HETATM   16  O   UNL     1      -9.992  13.453  66.296  1.00  0.00    -0.283 OA 
HETATM   17  O   UNL     1     -11.147   9.308  67.856  1.00  0.00    -0.098 OA 
HETATM   18  N   UNL     1     -10.546  11.359  67.022  1.00  0.00    -0.236 N  
BRANCH  13  19
HETATM   19  C   UNL     1     -11.498  14.701  68.176  1.00  0.00    -0.323 C  
BRANCH  19  20
HETATM   20  C   UNL     1     -10.304  15.647  68.131  1.00  0.00    -0.246 A  
HETATM   21  F   UNL     1     -11.411  17.407  65.301  1.00  0.00    -0.095 F  
HETATM   22  C   UNL     1     -10.637  16.339  65.636  1.00  0.00    -0.346 C  
HETATM   23  C   UNL     1     -10.027  16.480  67.018  1.00  0.00    -0.268 A  
HETATM   24  F   UNL     1      -9.700  15.049  70.358  1.00  0.00    -0.059 F  
HETATM   25  C   UNL     1      -9.096  17.538  67.166  1.00  0.00    -0.247 A  
HETATM   26  C   UNL     1      -9.543  15.852  69.299  1.00  0.00    -0.266 A  
HETATM   27  F   UNL     1      -9.672  16.266  64.675  1.00  0.00     0.556 F  
HETATM   28  F   UNL     1     -11.410  15.242  65.439  1.00  0.00    -0.338 F  
HETATM   29  C   UNL     1      -8.603  16.876  69.413  1.00  0.00     0.254 A  
HETATM   30  C   UNL     1      -8.401  17.744  68.354  1.00  0.00    -0.295 A  
ENDBRANCH  19  20
ENDBRANCH  13  19
BRANCH  18  31
HETATM   31  C   UNL     1     -10.050  10.762  65.776  1.00  0.00    -0.261 C  
BRANCH  31  32
HETATM   32  C   UNL     1      -8.544  11.034  65.458  1.00  0.00    -0.102 C  
BRANCH  32  33
HETATM   33  N   UNL     1      -8.049  10.361  64.227  1.00  0.00    -0.275 NA 
HETATM   34  H   UNL     1      -7.153   9.910  64.408  1.00  0.00     0.000 HD 
BRANCH  33  35
HETATM   35  C   UNL     1      -8.979   9.410  63.627  1.00  0.00    -0.115 C  
BRANCH  35  36
HETATM   36  C   UNL     1      -8.220   8.246  62.972  1.00  0.00    -0.118 C  
BRANCH  36  37
HETATM   37  C   UNL     1      -7.764   7.185  63.975  1.00  0.00    -0.123 C  
HETATM   38  O   UNL     1      -5.780   5.861  63.628  1.00  0.00    -0.020 OA 
HETATM   39  C   UNL     1      -6.279   6.937  63.921  1.00  0.00    -0.036 C  
HETATM   40  O   UNL     1      -5.536   8.005  64.281  1.00  0.00    -0.043 OA 
ENDBRANCH  36  37
ENDBRANCH  35  36
ENDBRANCH  33  35
ENDBRANCH  32  33
BRANCH  32  41
HETATM   41  C   UNL     1      -7.620  10.620  66.608  1.00  0.00    -0.129 A  
HETATM   42  C   UNL     1      -6.710   8.878  68.046  1.00  0.00    -0.069 A  
HETATM   43  C   UNL     1      -6.102  11.174  68.439  1.00  0.00    -0.045 A  
HETATM   44  C   UNL     1      -7.510   9.269  66.968  1.00  0.00    -0.091 A  
HETATM   45  C   UNL     1      -6.893  11.567  67.354  1.00  0.00    -0.104 A  
HETATM   46  C   UNL     1      -6.010   9.829  68.783  1.00  0.00    -0.038 A  
ENDBRANCH  32  41
ENDBRANCH  31  32
ENDBRANCH  18  31
ENDBRANCH   6  10
ENDBRANCH   2   3
TORSDOF 11
ENDMDL
MODEL      143
REMARK 921   NORMALIZED FREE ENERGY PREDICTED BY IDOCK:   -3.76 KCAL/MOL
REMARK 922        TOTAL FREE ENERGY PREDICTED BY IDOCK:   -9.23 KCAL/MOL
REMARK 923 INTER-LIGAND FREE ENERGY PREDICTED BY IDOCK:   -6.96 KCAL/MOL
REMARK 924 INTRA-LIGAND FREE ENERGY PREDICTED BY IDOCK:   -2.27 KCAL/MOL
REMARK 927      BINDING AFFINITY PREDICTED BY RF-SCORE:    0.00 PKD
ROOT
HETATM    1  C   UNL     1      -6.253   4.747  68.446  1.00  0.00    -0.032 C  
HETATM    2  O   UNL     1      -6.372   5.085  67.061  1.00  0.00    -0.034 OA 
ENDROOT
BRANCH   2   3
HETATM    3  C   UNL     1      -7.650   5.339  66.639  1.00  0.00    -0.088 A  
HETATM    4  C   UNL     1      -8.162   6.620  66.889  1.00  0.00    -0.113 A  
HETATM    5  F   UNL     1      -7.397   7.524  67.525  1.00  0.00    -0.089 F  
HETATM    6  C   UNL     1      -9.453   6.976  66.476  1.00  0.00    -0.199 A  
HETATM    7  C   UNL     1     -10.248   6.018  65.830  1.00  0.00     0.498 A  
HETATM    8  C   UNL     1      -8.462   4.387  66.010  1.00  0.00    -0.113 A  
HETATM    9  C   UNL     1      -9.752   4.731  65.604  1.00  0.00    -0.188 A  
BRANCH   6  10
HETATM   10  C   UNL     1      -9.956   8.353  66.658  1.00  0.00    -0.354 C  
HETATM   11  C   UNL     1      -8.682   9.236  64.681  1.00  0.00    -0.223 C  
HETATM   12  C   UNL     1      -9.616   9.393  65.864  1.00  0.00    -0.270 C  
HETATM   13  N   UNL     1     -10.172  10.657  66.095  1.00  0.00    -0.247 N  
HETATM   14  C   UNL     1     -11.279  10.831  66.930  1.00  0.00    -0.032 C  
HETATM   15  C   UNL     1     -10.838   8.623  67.834  1.00  0.00     0.007 C  
HETATM   16  O   UNL     1     -12.005  11.827  66.857  1.00  0.00    -0.605 OA 
HETATM   17  O   UNL     1     -10.941   7.791  68.736  1.00  0.00    -0.036 OA 
HETATM   18  N   UNL     1     -11.518   9.821  67.839  1.00  0.00     0.205 N  
BRANCH  13  19
HETATM   19  C   UNL     1      -9.734  11.857  65.373  1.00  0.00    -0.207 C  
BRANCH  19  20
HETATM   20  C   UNL     1      -9.313  13.061  66.207  1.00  0.00    -0.149 A  
HETATM   21  F   UNL     1     -12.211  14.928  65.537  1.00  0.00    -0.277 F  
HETATM   22  C   UNL     1     -10.952  14.736  65.058  1.00  0.00    -0.414 C  
HETATM   23  C   UNL     1      -9.981  14.310  66.142  1.00  0.00    -0.330 A  
HETATM   24  F   UNL     1      -7.627  11.769  67.288  1.00  0.00    -0.116 F  
HETATM   25  C   UNL     1      -9.736  15.274  67.151  1.00  0.00    -0.220 A  
HETATM   26  C   UNL     1      -8.349  12.895  67.220  1.00  0.00    -0.185 A  
HETATM   27  F   UNL     1     -10.583  15.927  64.503  1.00  0.00    -0.384 F  
HETATM   28  F   UNL     1     -11.078  13.887  64.008  1.00  0.00    -0.333 F  
HETATM   29  C   UNL     1      -8.093  13.871  68.182  1.00  0.00    -0.150 A  
HETATM   30  C   UNL     1      -8.813  15.053  68.169  1.00  0.00    -0.167 A  
ENDBRANCH  19  20
ENDBRANCH  13  19
BRANCH  18  31
HETATM   31  C   UNL     1     -12.531  10.048  68.876  1.00  0.00     1.678 C  
BRANCH  31  32
HETATM   32  C   UNL     1     -11.990  10.638  70.219  1.00  0.00    -0.339 C  
BRANCH  32  33
HETATM   33  N   UNL     1     -10.878  11.613  70.053  1.00  0.00    -0.302 NA 
HETATM   34  H   UNL     1     -10.243  11.300  69.319  1.00  0.00     0.000 HD 
BRANCH  33  35
HETATM   35  C   UNL     1     -11.296  12.989  69.805  1.00  0.00    -0.044 C  
BRANCH  35  36
HETATM   36  C   UNL     1     -12.698  13.244  70.380  1.00  0.00    -0.103 C  
BRANCH  36  37
HETATM   37  C   UNL     1     -12.955  14.714  70.713  1.00  0.00    -0.405 C  
HETATM   38  O   UNL     1     -11.304  16.426  70.324  1.00  0.00    -0.338 OA 
HETATM   39  C   UNL     1     -12.132  15.653  69.869  1.00  0.00    -0.341 C  
HETATM   40  O   UNL     1     -12.432  15.604  68.553  1.00  0.00     0.173 OA 
ENDBRANCH  36  37
ENDBRANCH  35  36
ENDBRANCH  33  35
ENDBRANCH  32  33
BRANCH  32  41
HETATM   41  C   UNL     1     -11.504   9.550  71.182  1.00  0.00    -0.430 A  
HETATM   42  C   UNL     1     -12.005   7.832  72.834  1.00  0.00    -0.065 A  
HETATM   43  C   UNL     1      -9.710   8.342  72.315  1.00  0.00    -0.386 A  
HETATM   44  C   UNL     1     -12.432   8.795  71.915  1.00  0.00    -0.434 A  
HETATM   45  C   UNL     1     -10.134   9.298  71.388  1.00  0.00    -0.348 A  
HETATM   46  C   UNL     1     -10.645   7.608  73.037  1.00  0.00    -0.433 A  
ENDBRANCH  32  41
ENDBRANCH  31  32
ENDBRANCH  18  31
ENDBRANCH   6  10
ENDBRANCH   2   3
TORSDOF 11
ENDMDL
MODEL      144
REMARK 921   NORMALIZED FREE ENERGY PREDICTED BY IDOCK:   -3.75 KCAL/MOL
REMARK 922        TOTAL FREE ENERGY PREDICTED BY IDOCK:   -9.22 KCAL/MOL
REMARK 923 INTER-LIGAND FREE ENERGY PREDICTED BY IDOCK:   -8.19 KCAL/MOL
REMARK 924 INTRA-LIGAND FREE ENERGY PREDICTED BY IDOCK:   -1.03 KCAL/MOL
REMARK 927      BINDING AFFINITY PREDICTED BY RF-SCORE:    0.00 PKD
ROOT
HETATM    1  C   UNL     1     -12.018  14.173  69.082  1.00  0.00    -0.349 C  
HETATM    2  O   UNL     1     -11.393  13.390  68.060  1.00  0.00    -0.257 OA 
ENDROOT
BRANCH   2   3
HETATM    3  C   UNL     1     -10.051  13.180  68.236  1.00  0.00    -0.247 A  
HETATM    4  C   UNL     1      -9.596  11.856  68.158  1.00  0.00    -0.195 A  
HETATM    5  F   UNL     1     -10.478  10.868  67.926  1.00  0.00    -0.188 F  
HETATM    6  C   UNL     1      -8.237  11.549  68.305  1.00  0.00    -0.152 A  
HETATM    7  C   UNL     1      -7.329  12.586  68.565  1.00  0.00    -0.115 A  
HETATM    8  C   UNL     1      -9.137  14.203  68.515  1.00  0.00    -0.176 A  
HETATM    9  C   UNL     1      -7.783  13.904  68.672  1.00  0.00    -0.128 A  
BRANCH   6  10
HETATM   10  C   UNL     1      -7.748  10.165  68.131  1.00  0.00    -0.088 C  
HETATM   11  C   UNL     1      -8.377   9.495  70.469  1.00  0.00    -0.203 C  
HETATM   12  C   UNL     1      -7.794   9.221  69.097  1.00  0.00    -0.086 C  
HETATM   13  N   UNL     1      -7.338   7.925  68.827  1.00  0.00    -0.084 N  
HETATM   14  C   UNL     1      -7.101   7.487  67.521  1.00  0.00    -0.085 C  
HETATM   15  C   UNL     1      -7.100   9.813  66.831  1.00  0.00    -0.089 C  
HETATM   16  O   UNL     1      -7.073   6.288  67.228  1.00  0.00    -0.070 OA 
HETATM   17  O   UNL     1      -6.776  10.699  66.039  1.00  0.00    -0.122 OA 
HETATM   18  N   UNL     1      -6.906   8.473  66.577  1.00  0.00    -0.070 N  
BRANCH  13  19
HETATM   19  C   UNL     1      -7.217   6.897  69.868  1.00  0.00    -0.076 C  
BRANCH  19  20
HETATM   20  C   UNL     1      -7.811   5.525  69.568  1.00  0.00    -0.087 A  
HETATM   21  F   UNL     1     -10.988   6.746  68.703  1.00  0.00    -0.229 F  
HETATM   22  C   UNL     1     -10.298   6.286  69.782  1.00  0.00    -0.207 C  
HETATM   23  C   UNL     1      -9.201   5.313  69.393  1.00  0.00    -0.152 A  
HETATM   24  F   UNL     1      -5.632   4.562  69.481  1.00  0.00    -0.012 F  
HETATM   25  C   UNL     1      -9.645   4.094  68.822  1.00  0.00    -0.210 A  
HETATM   26  C   UNL     1      -6.949   4.453  69.264  1.00  0.00    -0.050 A  
HETATM   27  F   UNL     1     -11.225   5.689  70.586  1.00  0.00    -0.343 F  
HETATM   28  F   UNL     1      -9.899   7.386  70.468  1.00  0.00    -0.178 F  
HETATM   29  C   UNL     1      -7.408   3.246  68.738  1.00  0.00    -0.049 A  
HETATM   30  C   UNL     1      -8.758   3.076  68.484  1.00  0.00    -0.141 A  
ENDBRANCH  19  20
ENDBRANCH  13  19
BRANCH  18  31
HETATM   31  C   UNL     1      -6.445   8.072  65.242  1.00  0.00    -0.048 C  
BRANCH  31  32
HETATM   32  C   UNL     1      -7.570   7.906  64.170  1.00  0.00    -0.112 C  
BRANCH  32  33
HETATM   33  N   UNL     1      -8.845   8.592  64.512  1.00  0.00    -0.409 NA 
HETATM   34  H   UNL     1      -8.903   8.746  65.519  1.00  0.00     0.000 HD 
BRANCH  33  35
HETATM   35  C   UNL     1      -9.086   9.841  63.797  1.00  0.00    -0.230 C  
BRANCH  35  36
HETATM   36  C   UNL     1     -10.044  10.745  64.587  1.00  0.00    -0.410 C  
BRANCH  36  37
HETATM   37  C   UNL     1     -10.668  11.852  63.737  1.00  0.00    -0.476 C  
HETATM   38  O   UNL     1     -12.992  11.826  63.099  1.00  0.00    -0.576 OA 
HETATM   39  C   UNL     1     -12.150  11.996  63.967  1.00  0.00    -0.406 C  
HETATM   40  O   UNL     1     -12.469  12.387  65.219  1.00  0.00    -0.611 OA 
ENDBRANCH  36  37
ENDBRANCH  35  36
ENDBRANCH  33  35
ENDBRANCH  32  33
BRANCH  32  41
HETATM   41  C   UNL     1      -7.902   6.436  63.894  1.00  0.00    -0.109 A  
HETATM   42  C   UNL     1      -7.709   4.473  62.466  1.00  0.00    -0.060 A  
HETATM   43  C   UNL     1      -9.095   4.375  64.432  1.00  0.00    -0.152 A  
HETATM   44  C   UNL     1      -7.378   5.799  62.759  1.00  0.00    -0.054 A  
HETATM   45  C   UNL     1      -8.757   5.697  64.734  1.00  0.00    -0.005 A  
HETATM   46  C   UNL     1      -8.569   3.762  63.299  1.00  0.00    -0.093 A  
ENDBRANCH  32  41
ENDBRANCH  31  32
ENDBRANCH  18  31
ENDBRANCH   6  10
ENDBRANCH   2   3
TORSDOF 11
ENDMDL
MODEL      145
REMARK 921   NORMALIZED FREE ENERGY PREDICTED BY IDOCK:   -3.74 KCAL/MOL
REMARK 922        TOTAL FREE ENERGY PREDICTED BY IDOCK:   -9.21 KCAL/MOL
REMARK 923 INTER-LIGAND FREE ENERGY PREDICTED BY IDOCK:   -7.91 KCAL/MOL
REMARK 924 INTRA-LIGAND FREE ENERGY PREDICTED BY IDOCK:   -1.30 KCAL/MOL
REMARK 927      BINDING AFFINITY PREDICTED BY RF-SCORE:    0.00 PKD
ROOT
HETATM    1  C   UNL     1      -9.826  15.613  69.765  1.00  0.00    -0.257 C  
HETATM    2  O   UNL     1      -9.235  15.274  68.506  1.00  0.00    -0.186 OA 
ENDROOT
BRANCH   2   3
HETATM    3  C   UNL     1      -8.006  14.675  68.591  1.00  0.00    -0.141 A  
HETATM    4  C   UNL     1      -7.978  13.273  68.572  1.00  0.00    -0.097 A  
HETATM    5  F   UNL     1      -9.133  12.590  68.482  1.00  0.00    -0.191 F  
HETATM    6  C   UNL     1      -6.765  12.574  68.633  1.00  0.00    -0.087 A  
HETATM    7  C   UNL     1      -5.568  13.296  68.745  1.00  0.00    -0.073 A  
HETATM    8  C   UNL     1      -6.806  15.382  68.722  1.00  0.00    -0.113 A  
HETATM    9  C   UNL     1      -5.595  14.693  68.793  1.00  0.00    -0.087 A  
BRANCH   6  10
HETATM   10  C   UNL     1      -6.731  11.100  68.521  1.00  0.00    -0.062 C  
HETATM   11  C   UNL     1      -5.719  10.805  70.801  1.00  0.00    -0.099 C  
HETATM   12  C   UNL     1      -6.256  10.281  69.485  1.00  0.00    -0.051 C  
HETATM   13  N   UNL     1      -6.298   8.893  69.301  1.00  0.00    -0.041 N  
HETATM   14  C   UNL     1      -7.067   8.308  68.292  1.00  0.00    -0.081 C  
HETATM   15  C   UNL     1      -7.185  10.489  67.235  1.00  0.00    -0.090 C  
HETATM   16  O   UNL     1      -7.421   7.126  68.339  1.00  0.00    -0.100 OA 
HETATM   17  O   UNL     1      -7.350  11.192  66.238  1.00  0.00    -0.127 OA 
HETATM   18  N   UNL     1      -7.413   9.130  67.240  1.00  0.00    -0.087 N  
BRANCH  13  19
HETATM   19  C   UNL     1      -5.664   7.953  70.235  1.00  0.00    -0.023 C  
BRANCH  19  20
HETATM   20  C   UNL     1      -6.516   6.800  70.752  1.00  0.00    -0.051 A  
HETATM   21  F   UNL     1      -9.083   8.848  71.998  1.00  0.00    -0.298 F  
HETATM   22  C   UNL     1      -7.924   8.258  72.398  1.00  0.00    -0.140 C  
HETATM   23  C   UNL     1      -7.622   6.992  71.618  1.00  0.00    -0.089 A  
HETATM   24  F   UNL     1      -5.263   5.243  69.453  1.00  0.00     0.000 F  
HETATM   25  C   UNL     1      -8.539   5.929  71.809  1.00  0.00    -0.131 A  
HETATM   26  C   UNL     1      -6.330   5.511  70.215  1.00  0.00    -0.030 A  
HETATM   27  F   UNL     1      -8.082   7.994  73.727  1.00  0.00    -0.187 F  
HETATM   28  F   UNL     1      -6.975   9.226  72.345  1.00  0.00     0.076 F  
HETATM   29  C   UNL     1      -7.224   4.465  70.445  1.00  0.00    -0.048 A  
HETATM   30  C   UNL     1      -8.352   4.683  71.217  1.00  0.00    -0.107 A  
ENDBRANCH  19  20
ENDBRANCH  13  19
BRANCH  18  31
HETATM   31  C   UNL     1      -8.033   8.519  66.058  1.00  0.00    -0.107 C  
BRANCH  31  32
HETATM   32  C   UNL     1      -9.593   8.603  66.004  1.00  0.00    -0.195 C  
BRANCH  32  33
HETATM   33  N   UNL     1     -10.121   9.967  65.730  1.00  0.00    -0.276 NA 
HETATM   34  H   UNL     1      -9.779  10.625  66.429  1.00  0.00     0.000 HD 
BRANCH  33  35
HETATM   35  C   UNL     1      -9.852  10.474  64.387  1.00  0.00    -0.341 C  
BRANCH  35  36
HETATM   36  C   UNL     1     -11.006  11.365  63.901  1.00  0.00    -0.442 C  
BRANCH  36  37
HETATM   37  C   UNL     1     -11.005  12.754  64.540  1.00  0.00    -0.370 C  
HETATM   38  O   UNL     1     -13.037  13.856  65.220  1.00  0.00    -0.777 OA 
HETATM   39  C   UNL     1     -12.202  12.988  65.423  1.00  0.00    -0.471 C  
HETATM   40  O   UNL     1     -12.246  12.180  66.504  1.00  0.00    -0.584 OA 
ENDBRANCH  36  37
ENDBRANCH  35  36
ENDBRANCH  33  35
ENDBRANCH  32  33
BRANCH  32  41
HETATM   41  C   UNL     1     -10.249   8.110  67.298  1.00  0.00    -0.348 A  
HETATM   42  C   UNL     1     -11.113   8.583  69.525  1.00  0.00     0.039 A  
HETATM   43  C   UNL     1     -11.069   6.311  68.730  1.00  0.00    -0.424 A  
HETATM   44  C   UNL     1     -10.558   9.021  68.319  1.00  0.00    -0.213 A  
HETATM   45  C   UNL     1     -10.526   6.748  67.518  1.00  0.00    -0.302 A  
HETATM   46  C   UNL     1     -11.365   7.229  69.733  1.00  0.00    -0.098 A  
ENDBRANCH  32  41
ENDBRANCH  31  32
ENDBRANCH  18  31
ENDBRANCH   6  10
ENDBRANCH   2   3
TORSDOF 11
ENDMDL
MODEL      146
REMARK 921   NORMALIZED FREE ENERGY PREDICTED BY IDOCK:   -3.74 KCAL/MOL
REMARK 922        TOTAL FREE ENERGY PREDICTED BY IDOCK:   -9.21 KCAL/MOL
REMARK 923 INTER-LIGAND FREE ENERGY PREDICTED BY IDOCK:   -9.38 KCAL/MOL
REMARK 924 INTRA-LIGAND FREE ENERGY PREDICTED BY IDOCK:    0.18 KCAL/MOL
REMARK 927      BINDING AFFINITY PREDICTED BY RF-SCORE:    0.00 PKD
ROOT
HETATM    1  C   UNL     1      -6.783   5.569  74.565  1.00  0.00    -0.073 C  
HETATM    2  O   UNL     1      -7.823   6.533  74.373  1.00  0.00    -0.107 OA 
ENDROOT
BRANCH   2   3
HETATM    3  C   UNL     1      -8.655   6.278  73.315  1.00  0.00    -0.122 A  
HETATM    4  C   UNL     1      -8.521   7.099  72.186  1.00  0.00    -0.110 A  
HETATM    5  F   UNL     1      -7.606   8.084  72.191  1.00  0.00    -0.079 F  
HETATM    6  C   UNL     1      -9.315   6.899  71.049  1.00  0.00    -0.156 A  
HETATM    7  C   UNL     1     -10.278   5.880  71.062  1.00  0.00    -0.266 A  
HETATM    8  C   UNL     1      -9.633   5.277  73.322  1.00  0.00    -0.151 A  
HETATM    9  C   UNL     1     -10.435   5.078  72.197  1.00  0.00    -0.274 A  
BRANCH   6  10
HETATM   10  C   UNL     1      -9.109   7.705  69.827  1.00  0.00    -0.147 C  
HETATM   11  C   UNL     1      -7.062   6.416  69.148  1.00  0.00    -0.084 C  
HETATM   12  C   UNL     1      -8.093   7.510  68.957  1.00  0.00    -0.127 C  
HETATM   13  N   UNL     1      -8.000   8.303  67.807  1.00  0.00    -0.120 N  
HETATM   14  C   UNL     1      -9.067   9.095  67.372  1.00  0.00    -0.127 C  
HETATM   15  C   UNL     1     -10.041   8.847  69.580  1.00  0.00    -0.200 C  
HETATM   16  O   UNL     1      -9.157   9.489  66.206  1.00  0.00    -0.149 OA 
HETATM   17  O   UNL     1     -10.790   9.241  70.474  1.00  0.00    -0.228 OA 
HETATM   18  N   UNL     1     -10.017   9.407  68.321  1.00  0.00    -0.167 N  
BRANCH  13  19
HETATM   19  C   UNL     1      -6.846   8.250  66.901  1.00  0.00    -0.069 C  
BRANCH  19  20
HETATM   20  C   UNL     1      -7.116   8.428  65.412  1.00  0.00    -0.081 A  
HETATM   21  F   UNL     1      -9.648   5.999  65.265  1.00  0.00     0.094 F  
HETATM   22  C   UNL     1      -8.302   6.124  65.103  1.00  0.00    -0.129 C  
HETATM   23  C   UNL     1      -7.902   7.518  64.661  1.00  0.00    -0.130 A  
HETATM   24  F   UNL     1      -5.932  10.497  65.408  1.00  0.00    -0.096 F  
HETATM   25  C   UNL     1      -8.359   7.902  63.376  1.00  0.00     0.071 A  
HETATM   26  C   UNL     1      -6.738   9.630  64.783  1.00  0.00    -0.103 A  
HETATM   27  F   UNL     1      -7.953   5.190  64.171  1.00  0.00    -0.084 F  
HETATM   28  F   UNL     1      -7.745   5.687  66.260  1.00  0.00    -0.092 F  
HETATM   29  C   UNL     1      -7.167   9.975  63.501  1.00  0.00    -0.135 A  
HETATM   30  C   UNL     1      -8.009   9.123  62.806  1.00  0.00    -0.136 A  
ENDBRANCH  19  20
ENDBRANCH  13  19
BRANCH  18  31
HETATM   31  C   UNL     1     -11.038  10.404  67.979  1.00  0.00    -0.298 C  
BRANCH  31  32
HETATM   32  C   UNL     1     -10.486  11.800  67.540  1.00  0.00    -0.202 C  
BRANCH  32  33
HETATM   33  N   UNL     1     -10.687  12.879  68.546  1.00  0.00    -0.249 NA 
HETATM   34  H   UNL     1     -10.894  13.761  68.079  1.00  0.00     0.000 HD 
BRANCH  33  35
HETATM   35  C   UNL     1     -11.699  12.596  69.559  1.00  0.00    -0.308 C  
BRANCH  35  36
HETATM   36  C   UNL     1     -12.506  13.861  69.890  1.00  0.00    -0.285 C  
BRANCH  36  37
HETATM   37  C   UNL     1     -12.239  14.396  71.298  1.00  0.00    -0.429 C  
HETATM   38  O   UNL     1     -13.989  15.319  72.674  1.00  0.00    -0.495 OA 
HETATM   39  C   UNL     1     -13.456  14.336  72.182  1.00  0.00    -0.433 C  
HETATM   40  O   UNL     1     -13.884  13.079  72.433  1.00  0.00    -0.564 OA 
ENDBRANCH  36  37
ENDBRANCH  35  36
ENDBRANCH  33  35
ENDBRANCH  32  33
BRANCH  32  41
HETATM   41  C   UNL     1     -11.100  12.283  66.223  1.00  0.00    -0.342 A  
HETATM   42  C   UNL     1     -10.995  12.452  63.795  1.00  0.00    -0.501 A  
HETATM   43  C   UNL     1     -12.779  13.550  64.983  1.00  0.00    -0.399 A  
HETATM   44  C   UNL     1     -10.476  11.978  65.004  1.00  0.00    -0.327 A  
HETATM   45  C   UNL     1     -12.269  13.068  66.191  1.00  0.00    -0.428 A  
HETATM   46  C   UNL     1     -12.144  13.240  63.784  1.00  0.00    -0.546 A  
ENDBRANCH  32  41
ENDBRANCH  31  32
ENDBRANCH  18  31
ENDBRANCH   6  10
ENDBRANCH   2   3
TORSDOF 11
ENDMDL
MODEL      147
REMARK 921   NORMALIZED FREE ENERGY PREDICTED BY IDOCK:   -3.73 KCAL/MOL
REMARK 922        TOTAL FREE ENERGY PREDICTED BY IDOCK:   -9.19 KCAL/MOL
REMARK 923 INTER-LIGAND FREE ENERGY PREDICTED BY IDOCK:   -8.59 KCAL/MOL
REMARK 924 INTRA-LIGAND FREE ENERGY PREDICTED BY IDOCK:   -0.60 KCAL/MOL
REMARK 927      BINDING AFFINITY PREDICTED BY RF-SCORE:    0.00 PKD
ROOT
HETATM    1  C   UNL     1     -13.076  13.884  65.757  1.00  0.00    -0.087 C  
HETATM    2  O   UNL     1     -12.048  14.480  66.554  1.00  0.00    -0.396 OA 
ENDROOT
BRANCH   2   3
HETATM    3  C   UNL     1     -11.905  13.942  67.805  1.00  0.00    -0.380 A  
HETATM    4  C   UNL     1     -11.453  12.617  67.882  1.00  0.00    -0.309 A  
HETATM    5  F   UNL     1     -11.190  11.943  66.749  1.00  0.00    -0.299 F  
HETATM    6  C   UNL     1     -11.258  11.991  69.120  1.00  0.00    -0.305 A  
HETATM    7  C   UNL     1     -11.553  12.698  70.294  1.00  0.00    -0.050 A  
HETATM    8  C   UNL     1     -12.214  14.630  68.984  1.00  0.00    -0.199 A  
HETATM    9  C   UNL     1     -12.032  14.010  70.221  1.00  0.00    -0.409 A  
BRANCH   6  10
HETATM   10  C   UNL     1     -10.694  10.627  69.201  1.00  0.00    -0.264 C  
HETATM   11  C   UNL     1     -12.726   9.698  70.350  1.00  0.00     0.146 C  
HETATM   12  C   UNL     1     -11.336   9.576  69.759  1.00  0.00    -0.083 C  
HETATM   13  N   UNL     1     -10.734   8.312  69.757  1.00  0.00    -0.238 N  
HETATM   14  C   UNL     1      -9.627   8.026  68.954  1.00  0.00    -0.152 C  
HETATM   15  C   UNL     1      -9.303  10.417  68.697  1.00  0.00    -0.167 C  
HETATM   16  O   UNL     1      -9.321   6.871  68.646  1.00  0.00    -0.137 OA 
HETATM   17  O   UNL     1      -8.580  11.383  68.451  1.00  0.00    -0.146 OA 
HETATM   18  N   UNL     1      -8.897   9.112  68.519  1.00  0.00    -0.129 N  
BRANCH  13  19
HETATM   19  C   UNL     1     -11.303   7.165  70.476  1.00  0.00    -0.297 C  
BRANCH  19  20
HETATM   20  C   UNL     1     -10.326   6.159  71.072  1.00  0.00    -0.260 A  
HETATM   21  F   UNL     1     -10.377   7.552  74.296  1.00  0.00    -0.205 F  
HETATM   22  C   UNL     1      -9.684   7.634  73.128  1.00  0.00    -0.269 C  
HETATM   23  C   UNL     1      -9.722   6.337  72.342  1.00  0.00    -0.162 A  
HETATM   24  F   UNL     1     -10.626   4.707  69.206  1.00  0.00    -0.187 F  
HETATM   25  C   UNL     1      -9.075   5.235  72.957  1.00  0.00    -0.125 A  
HETATM   26  C   UNL     1     -10.148   4.913  70.439  1.00  0.00    -0.245 A  
HETATM   27  F   UNL     1      -8.407   7.962  73.479  1.00  0.00    -0.176 F  
HETATM   28  F   UNL     1     -10.161   8.729  72.486  1.00  0.00    -0.366 F  
HETATM   29  C   UNL     1      -9.475   3.852  71.044  1.00  0.00    -0.237 A  
HETATM   30  C   UNL     1      -8.966   4.001  72.322  1.00  0.00    -0.137 A  
ENDBRANCH  19  20
ENDBRANCH  13  19
BRANCH  18  31
HETATM   31  C   UNL     1      -7.611   8.863  67.857  1.00  0.00    -0.093 C  
BRANCH  31  32
HETATM   32  C   UNL     1      -7.682   8.704  66.303  1.00  0.00    -0.098 C  
BRANCH  32  33
HETATM   33  N   UNL     1      -9.061   8.548  65.768  1.00  0.00    -0.297 NA 
HETATM   34  H   UNL     1      -9.739   8.940  66.421  1.00  0.00     0.000 HD 
BRANCH  33  35
HETATM   35  C   UNL     1      -9.272   9.100  64.433  1.00  0.00     0.153 C  
BRANCH  35  36
HETATM   36  C   UNL     1      -8.942  10.600  64.407  1.00  0.00    -0.212 C  
BRANCH  36  37
HETATM   37  C   UNL     1      -9.528  11.325  63.195  1.00  0.00    -0.367 C  
HETATM   38  O   UNL     1     -11.719  12.328  63.233  1.00  0.00    -0.433 OA 
HETATM   39  C   UNL     1     -10.547  12.366  63.577  1.00  0.00    -0.413 C  
HETATM   40  O   UNL     1     -10.037  13.387  64.298  1.00  0.00    -0.330 OA 
ENDBRANCH  36  37
ENDBRANCH  35  36
ENDBRANCH  33  35
ENDBRANCH  32  33
BRANCH  32  41
HETATM   41  C   UNL     1      -6.859   7.514  65.799  1.00  0.00    -0.056 A  
HETATM   42  C   UNL     1      -5.405   6.531  64.110  1.00  0.00    -0.026 A  
HETATM   43  C   UNL     1      -6.135   5.188  65.971  1.00  0.00    -0.030 A  
HETATM   44  C   UNL     1      -6.122   7.622  64.610  1.00  0.00    -0.038 A  
HETATM   45  C   UNL     1      -6.843   6.281  66.479  1.00  0.00    -0.062 A  
HETATM   46  C   UNL     1      -5.414   5.314  64.787  1.00  0.00    -0.013 A  
ENDBRANCH  32  41
ENDBRANCH  31  32
ENDBRANCH  18  31
ENDBRANCH   6  10
ENDBRANCH   2   3
TORSDOF 11
ENDMDL
MODEL      148
REMARK 921   NORMALIZED FREE ENERGY PREDICTED BY IDOCK:   -3.69 KCAL/MOL
REMARK 922        TOTAL FREE ENERGY PREDICTED BY IDOCK:   -9.13 KCAL/MOL
REMARK 923 INTER-LIGAND FREE ENERGY PREDICTED BY IDOCK:   -7.68 KCAL/MOL
REMARK 924 INTRA-LIGAND FREE ENERGY PREDICTED BY IDOCK:   -1.45 KCAL/MOL
REMARK 927      BINDING AFFINITY PREDICTED BY RF-SCORE:    0.00 PKD
ROOT
HETATM    1  C   UNL     1     -10.847  14.905  67.254  1.00  0.00    -0.306 C  
HETATM    2  O   UNL     1      -9.872  14.589  66.254  1.00  0.00    -0.276 OA 
ENDROOT
BRANCH   2   3
HETATM    3  C   UNL     1     -10.184  13.513  65.467  1.00  0.00    -0.295 A  
HETATM    4  C   UNL     1      -9.695  12.263  65.872  1.00  0.00    -0.235 A  
HETATM    5  F   UNL     1      -8.951  12.175  66.989  1.00  0.00    -0.173 F  
HETATM    6  C   UNL     1      -9.981  11.103  65.140  1.00  0.00    -0.323 A  
HETATM    7  C   UNL     1     -10.743  11.210  63.967  1.00  0.00    -0.409 A  
HETATM    8  C   UNL     1     -10.927  13.607  64.284  1.00  0.00    -0.317 A  
HETATM    9  C   UNL     1     -11.207  12.458  63.544  1.00  0.00    -0.540 A  
BRANCH   6  10
HETATM   10  C   UNL     1      -9.543   9.775  65.618  1.00  0.00    -0.329 C  
HETATM   11  C   UNL     1      -7.562   9.712  64.074  1.00  0.00    -0.128 C  
HETATM   12  C   UNL     1      -8.456   9.123  65.146  1.00  0.00    -0.167 C  
HETATM   13  N   UNL     1      -8.100   7.882  65.688  1.00  0.00    -0.122 N  
HETATM   14  C   UNL     1      -8.648   7.418  66.887  1.00  0.00    -0.120 C  
HETATM   15  C   UNL     1     -10.393   9.085  66.635  1.00  0.00    -0.219 C  
HETATM   16  O   UNL     1      -8.097   6.547  67.565  1.00  0.00    -0.118 OA 
HETATM   17  O   UNL     1     -11.527   9.499  66.879  1.00  0.00     0.578 OA 
HETATM   18  N   UNL     1      -9.839   7.996  67.272  1.00  0.00    -0.178 N  
BRANCH  13  19
HETATM   19  C   UNL     1      -7.028   7.053  65.123  1.00  0.00    -0.052 C  
BRANCH  19  20
HETATM   20  C   UNL     1      -7.443   5.871  64.254  1.00  0.00    -0.074 A  
HETATM   21  F   UNL     1      -7.103   3.480  66.804  1.00  0.00    -0.054 F  
HETATM   22  C   UNL     1      -6.385   4.052  65.799  1.00  0.00    -0.032 C  
HETATM   23  C   UNL     1      -7.266   4.524  64.658  1.00  0.00    -0.063 A  
HETATM   24  F   UNL     1      -8.339   7.346  62.611  1.00  0.00    -0.139 F  
HETATM   25  C   UNL     1      -7.942   3.499  63.949  1.00  0.00    -0.085 A  
HETATM   26  C   UNL     1      -8.200   6.104  63.089  1.00  0.00    -0.020 A  
HETATM   27  F   UNL     1      -5.505   3.096  65.383  1.00  0.00    -0.008 F  
HETATM   28  F   UNL     1      -5.616   5.003  66.385  1.00  0.00    -0.014 F  
HETATM   29  C   UNL     1      -8.827   5.078  62.383  1.00  0.00    -0.105 A  
HETATM   30  C   UNL     1      -8.727   3.773  62.833  1.00  0.00    -0.096 A  
ENDBRANCH  19  20
ENDBRANCH  13  19
BRANCH  18  31
HETATM   31  C   UNL     1     -10.564   7.402  68.402  1.00  0.00    -0.152 C  
BRANCH  31  32
HETATM   32  C   UNL     1     -10.587   8.264  69.706  1.00  0.00    -0.228 C  
BRANCH  32  33
HETATM   33  N   UNL     1     -11.528   9.416  69.659  1.00  0.00    -0.439 NA 
HETATM   34  H   UNL     1     -12.360   9.215  70.213  1.00  0.00     0.000 HD 
BRANCH  33  35
HETATM   35  C   UNL     1     -10.954  10.698  70.058  1.00  0.00    -0.259 C  
BRANCH  35  36
HETATM   36  C   UNL     1     -11.886  11.856  69.670  1.00  0.00    -0.406 C  
BRANCH  36  37
HETATM   37  C   UNL     1     -12.472  12.589  70.877  1.00  0.00    -0.361 C  
HETATM   38  O   UNL     1     -11.779  14.815  71.487  1.00  0.00    -0.341 OA 
HETATM   39  C   UNL     1     -12.407  14.087  70.734  1.00  0.00    -0.373 C  
HETATM   40  O   UNL     1     -13.157  14.569  69.719  1.00  0.00     0.131 OA 
ENDBRANCH  36  37
ENDBRANCH  35  36
ENDBRANCH  33  35
ENDBRANCH  32  33
BRANCH  32  41
HETATM   41  C   UNL     1      -9.205   8.817  70.066  1.00  0.00    -0.173 A  
HETATM   42  C   UNL     1      -7.246   8.792  71.512  1.00  0.00    -0.107 A  
HETATM   43  C   UNL     1      -7.398  10.428  69.752  1.00  0.00    -0.157 A  
HETATM   44  C   UNL     1      -8.487   8.269  71.139  1.00  0.00    -0.164 A  
HETATM   45  C   UNL     1      -8.633   9.899  69.369  1.00  0.00    -0.180 A  
HETATM   46  C   UNL     1      -6.703   9.874  70.822  1.00  0.00    -0.053 A  
ENDBRANCH  32  41
ENDBRANCH  31  32
ENDBRANCH  18  31
ENDBRANCH   6  10
ENDBRANCH   2   3
TORSDOF 11
ENDMDL
MODEL      149
REMARK 921   NORMALIZED FREE ENERGY PREDICTED BY IDOCK:   -3.66 KCAL/MOL
REMARK 922        TOTAL FREE ENERGY PREDICTED BY IDOCK:   -9.08 KCAL/MOL
REMARK 923 INTER-LIGAND FREE ENERGY PREDICTED BY IDOCK:   -9.24 KCAL/MOL
REMARK 924 INTRA-LIGAND FREE ENERGY PREDICTED BY IDOCK:    0.16 KCAL/MOL
REMARK 927      BINDING AFFINITY PREDICTED BY RF-SCORE:    0.00 PKD
ROOT
HETATM    1  C   UNL     1     -11.804  12.300  63.969  1.00  0.00    -0.444 C  
HETATM    2  O   UNL     1     -11.250  11.300  63.108  1.00  0.00    -0.141 OA 
ENDROOT
BRANCH   2   3
HETATM    3  C   UNL     1      -9.963  10.936  63.404  1.00  0.00    -0.361 A  
HETATM    4  C   UNL     1      -9.747  10.298  64.634  1.00  0.00    -0.333 A  
HETATM    5  F   UNL     1     -10.789  10.081  65.457  1.00  0.00    -0.105 F  
HETATM    6  C   UNL     1      -8.467   9.872  65.013  1.00  0.00    -0.161 A  
HETATM    7  C   UNL     1      -7.387  10.120  64.154  1.00  0.00    -0.108 A  
HETATM    8  C   UNL     1      -8.872  11.194  62.566  1.00  0.00    -0.331 A  
HETATM    9  C   UNL     1      -7.593  10.781  62.940  1.00  0.00     0.052 A  
BRANCH   6  10
HETATM   10  C   UNL     1      -8.258   9.118  66.267  1.00  0.00    -0.111 C  
HETATM   11  C   UNL     1      -6.993   7.276  65.119  1.00  0.00    -0.055 C  
HETATM   12  C   UNL     1      -7.601   7.939  66.338  1.00  0.00    -0.091 C  
HETATM   13  N   UNL     1      -7.422   7.316  67.579  1.00  0.00    -0.098 N  
HETATM   14  C   UNL     1      -7.641   7.995  68.781  1.00  0.00    -0.103 C  
HETATM   15  C   UNL     1      -8.870   9.662  67.517  1.00  0.00    -0.125 C  
HETATM   16  O   UNL     1      -7.143   7.619  69.846  1.00  0.00    -0.060 OA 
HETATM   17  O   UNL     1      -9.709  10.561  67.457  1.00  0.00    -0.162 OA 
HETATM   18  N   UNL     1      -8.441   9.115  68.707  1.00  0.00    -0.128 N  
BRANCH  13  19
HETATM   19  C   UNL     1      -6.856   5.968  67.712  1.00  0.00    -0.060 C  
BRANCH  19  20
HETATM   20  C   UNL     1      -7.581   4.831  67.001  1.00  0.00    -0.087 A  
HETATM   21  F   UNL     1     -10.796   5.873  67.955  1.00  0.00    -0.265 F  
HETATM   22  C   UNL     1      -9.790   5.058  68.373  1.00  0.00    -0.147 C  
HETATM   23  C   UNL     1      -8.950   4.540  67.221  1.00  0.00    -0.125 A  
HETATM   24  F   UNL     1      -5.625   4.325  65.737  1.00  0.00    -0.015 F  
HETATM   25  C   UNL     1      -9.625   3.684  66.315  1.00  0.00    -0.146 A  
HETATM   26  C   UNL     1      -6.935   4.155  65.948  1.00  0.00    -0.066 A  
HETATM   27  F   UNL     1     -10.396   4.035  69.042  1.00  0.00    -0.014 F  
HETATM   28  F   UNL     1      -9.121   5.751  69.328  1.00  0.00    -0.116 F  
HETATM   29  C   UNL     1      -7.608   3.285  65.089  1.00  0.00    -0.080 A  
HETATM   30  C   UNL     1      -8.966   3.074  65.251  1.00  0.00    -0.142 A  
ENDBRANCH  19  20
ENDBRANCH  13  19
BRANCH  18  31
HETATM   31  C   UNL     1      -8.877   9.740  69.962  1.00  0.00    -0.215 C  
BRANCH  31  32
HETATM   32  C   UNL     1     -10.392   9.561  70.305  1.00  0.00    -0.269 C  
BRANCH  32  33
HETATM   33  N   UNL     1     -11.012  10.743  70.963  1.00  0.00     0.120 NA 
HETATM   34  H   UNL     1     -10.342  11.510  71.014  1.00  0.00     0.000 HD 
BRANCH  33  35
HETATM   35  C   UNL     1     -12.258  11.203  70.356  1.00  0.00    -0.369 C  
BRANCH  35  36
HETATM   36  C   UNL     1     -12.558  12.654  70.764  1.00  0.00    -0.302 C  
BRANCH  36  37
HETATM   37  C   UNL     1     -13.382  12.761  72.048  1.00  0.00    -0.565 C  
HETATM   38  O   UNL     1     -13.159  14.621  73.564  1.00  0.00    -0.566 OA 
HETATM   39  C   UNL     1     -13.570  14.186  72.499  1.00  0.00    -0.541 C  
HETATM   40  O   UNL     1     -14.289  14.938  71.638  1.00  0.00    -0.469 OA 
ENDBRANCH  36  37
ENDBRANCH  35  36
ENDBRANCH  33  35
ENDBRANCH  32  33
BRANCH  32  41
HETATM   41  C   UNL     1     -10.647   8.349  71.208  1.00  0.00    -0.279 A  
HETATM   42  C   UNL     1     -11.742   6.207  71.585  1.00  0.00    -0.290 A  
HETATM   43  C   UNL     1     -10.413   7.183  73.340  1.00  0.00    -0.410 A  
HETATM   44  C   UNL     1     -11.458   7.297  70.758  1.00  0.00    -0.328 A  
HETATM   45  C   UNL     1     -10.118   8.269  72.510  1.00  0.00    -0.376 A  
HETATM   46  C   UNL     1     -11.223   6.151  72.877  1.00  0.00    -0.250 A  
ENDBRANCH  32  41
ENDBRANCH  31  32
ENDBRANCH  18  31
ENDBRANCH   6  10
ENDBRANCH   2   3
TORSDOF 11
ENDMDL
MODEL      150
REMARK 921   NORMALIZED FREE ENERGY PREDICTED BY IDOCK:   -3.65 KCAL/MOL
REMARK 922        TOTAL FREE ENERGY PREDICTED BY IDOCK:   -9.05 KCAL/MOL
REMARK 923 INTER-LIGAND FREE ENERGY PREDICTED BY IDOCK:   -7.65 KCAL/MOL
REMARK 924 INTRA-LIGAND FREE ENERGY PREDICTED BY IDOCK:   -1.40 KCAL/MOL
REMARK 927      BINDING AFFINITY PREDICTED BY RF-SCORE:    0.00 PKD
ROOT
HETATM    1  C   UNL     1     -10.799  16.199  70.147  1.00  0.00    -0.328 C  
HETATM    2  O   UNL     1      -9.970  15.302  69.399  1.00  0.00    -0.234 OA 
ENDROOT
BRANCH   2   3
HETATM    3  C   UNL     1     -10.630  14.567  68.450  1.00  0.00    -0.244 A  
HETATM    4  C   UNL     1     -10.235  13.231  68.290  1.00  0.00    -0.250 A  
HETATM    5  F   UNL     1      -9.244  12.740  69.054  1.00  0.00     0.042 F  
HETATM    6  C   UNL     1     -10.867  12.398  67.357  1.00  0.00    -0.273 A  
HETATM    7  C   UNL     1     -11.887  12.927  66.554  1.00  0.00    -0.473 A  
HETATM    8  C   UNL     1     -11.636  15.087  67.628  1.00  0.00    -0.327 A  
HETATM    9  C   UNL     1     -12.264  14.267  66.690  1.00  0.00    -0.411 A  
BRANCH   6  10
HETATM   10  C   UNL     1     -10.513  10.967  67.255  1.00  0.00    -0.275 C  
HETATM   11  C   UNL     1     -11.851  10.341  69.288  1.00  0.00    -0.081 C  
HETATM   12  C   UNL     1     -10.940  10.020  68.120  1.00  0.00    -0.235 C  
HETATM   13  N   UNL     1     -10.579   8.682  67.921  1.00  0.00    -0.199 N  
HETATM   14  C   UNL     1     -10.035   8.239  66.712  1.00  0.00    -0.285 C  
HETATM   15  C   UNL     1      -9.570  10.558  66.170  1.00  0.00    -0.190 C  
HETATM   16  O   UNL     1     -10.064   7.052  66.376  1.00  0.00    -0.113 OA 
HETATM   17  O   UNL     1      -8.935  11.409  65.547  1.00  0.00    -0.183 OA 
HETATM   18  N   UNL     1      -9.468   9.208  65.912  1.00  0.00    -0.246 N  
BRANCH  13  19
HETATM   19  C   UNL     1     -10.878   7.629  68.900  1.00  0.00    -0.017 C  
BRANCH  19  20
HETATM   20  C   UNL     1     -10.081   7.635  70.199  1.00  0.00    -0.199 A  
HETATM   21  F   UNL     1      -7.025   6.788  68.691  1.00  0.00    -0.067 F  
HETATM   22  C   UNL     1      -8.104   6.202  69.278  1.00  0.00    -0.109 C  
HETATM   23  C   UNL     1      -8.769   7.108  70.296  1.00  0.00    -0.144 A  
HETATM   24  F   UNL     1     -11.832   8.811  71.310  1.00  0.00    -0.296 F  
HETATM   25  C   UNL     1      -7.985   7.419  71.436  1.00  0.00    -0.096 A  
HETATM   26  C   UNL     1     -10.574   8.354  71.306  1.00  0.00    -0.222 A  
HETATM   27  F   UNL     1      -7.633   5.062  69.862  1.00  0.00    -0.056 F  
HETATM   28  F   UNL     1      -8.894   5.773  68.262  1.00  0.00    -0.111 F  
HETATM   29  C   UNL     1      -9.800   8.618  72.436  1.00  0.00    -0.315 A  
HETATM   30  C   UNL     1      -8.489   8.178  72.488  1.00  0.00    -0.244 A  
ENDBRANCH  19  20
ENDBRANCH  13  19
BRANCH  18  31
HETATM   31  C   UNL     1      -8.698   8.776  64.739  1.00  0.00    -0.097 C  
BRANCH  31  32
HETATM   32  C   UNL     1      -7.243   8.289  65.040  1.00  0.00    -0.080 C  
BRANCH  32  33
HETATM   33  N   UNL     1      -7.168   6.944  65.671  1.00  0.00    -0.071 NA 
HETATM   34  H   UNL     1      -7.761   6.910  66.500  1.00  0.00     0.000 HD 
BRANCH  33  35
HETATM   35  C   UNL     1      -7.480   5.827  64.783  1.00  0.00    -0.076 C  
BRANCH  35  36
HETATM   36  C   UNL     1      -7.076   4.492  65.426  1.00  0.00    -0.067 C  
BRANCH  36  37
HETATM   37  C   UNL     1      -8.181   3.879  66.288  1.00  0.00    -0.104 C  
HETATM   38  O   UNL     1     -10.516   4.318  65.885  1.00  0.00    -0.200 OA 
HETATM   39  C   UNL     1      -9.488   3.750  65.551  1.00  0.00    -0.169 C  
HETATM   40  O   UNL     1      -9.439   2.897  64.505  1.00  0.00    -0.142 OA 
ENDBRANCH  36  37
ENDBRANCH  35  36
ENDBRANCH  33  35
ENDBRANCH  32  33
BRANCH  32  41
HETATM   41  C   UNL     1      -6.477   9.261  65.943  1.00  0.00    -0.071 A  
HETATM   42  C   UNL     1      -5.577   9.823  68.135  1.00  0.00    -0.039 A  
HETATM   43  C   UNL     1      -5.389  11.411  66.335  1.00  0.00    -0.121 A  
HETATM   44  C   UNL     1      -6.232   8.929  67.284  1.00  0.00    -0.059 A  
HETATM   45  C   UNL     1      -6.033  10.514  65.478  1.00  0.00    -0.134 A  
HETATM   46  C   UNL     1      -5.159  11.065  67.663  1.00  0.00    -0.037 A  
ENDBRANCH  32  41
ENDBRANCH  31  32
ENDBRANCH  18  31
ENDBRANCH   6  10
ENDBRANCH   2   3
TORSDOF 11
ENDMDL
MODEL      151
REMARK 921   NORMALIZED FREE ENERGY PREDICTED BY IDOCK:   -3.61 KCAL/MOL
REMARK 922        TOTAL FREE ENERGY PREDICTED BY IDOCK:   -8.98 KCAL/MOL
REMARK 923 INTER-LIGAND FREE ENERGY PREDICTED BY IDOCK:   -7.57 KCAL/MOL
REMARK 924 INTRA-LIGAND FREE ENERGY PREDICTED BY IDOCK:   -1.41 KCAL/MOL
REMARK 927      BINDING AFFINITY PREDICTED BY RF-SCORE:    0.00 PKD
ROOT
HETATM    1  C   UNL     1     -13.586   9.504  71.933  1.00  0.00    -0.391 C  
HETATM    2  O   UNL     1     -12.928   8.374  71.351  1.00  0.00    -0.299 OA 
ENDROOT
BRANCH   2   3
HETATM    3  C   UNL     1     -11.559   8.437  71.363  1.00  0.00    -0.284 A  
HETATM    4  C   UNL     1     -10.919   8.649  70.134  1.00  0.00    -0.226 A  
HETATM    5  F   UNL     1     -11.659   8.772  69.017  1.00  0.00     0.252 F  
HETATM    6  C   UNL     1      -9.524   8.748  70.053  1.00  0.00    -0.176 A  
HETATM    7  C   UNL     1      -8.763   8.600  71.221  1.00  0.00    -0.246 A  
HETATM    8  C   UNL     1     -10.787   8.272  72.518  1.00  0.00    -0.421 A  
HETATM    9  C   UNL     1      -9.396   8.359  72.444  1.00  0.00    -0.356 A  
BRANCH   6  10
HETATM   10  C   UNL     1      -8.858   9.063  68.771  1.00  0.00    -0.137 C  
HETATM   11  C   UNL     1      -9.621  11.456  68.797  1.00  0.00    -0.139 C  
HETATM   12  C   UNL     1      -8.894  10.278  68.181  1.00  0.00    -0.123 C  
HETATM   13  N   UNL     1      -8.202  10.490  66.982  1.00  0.00    -0.123 N  
HETATM   14  C   UNL     1      -7.243   9.586  66.517  1.00  0.00    -0.089 C  
HETATM   15  C   UNL     1      -8.163   7.950  68.056  1.00  0.00    -0.127 C  
HETATM   16  O   UNL     1      -6.374   9.913  65.705  1.00  0.00    -0.072 OA 
HETATM   17  O   UNL     1      -8.345   6.782  68.399  1.00  0.00    -0.121 OA 
HETATM   18  N   UNL     1      -7.321   8.306  67.024  1.00  0.00    -0.083 N  
BRANCH  13  19
HETATM   19  C   UNL     1      -8.321  11.733  66.210  1.00  0.00     0.024 C  
BRANCH  19  20
HETATM   20  C   UNL     1      -9.715  12.134  65.742  1.00  0.00    -0.245 A  
HETATM   21  F   UNL     1      -9.051  15.583  65.715  1.00  0.00    -0.351 F  
HETATM   22  C   UNL     1      -9.534  14.613  66.539  1.00  0.00    -0.297 C  
HETATM   23  C   UNL     1     -10.178  13.474  65.772  1.00  0.00    -0.305 A  
HETATM   24  F   UNL     1     -10.178   9.892  65.080  1.00  0.00    -0.402 F  
HETATM   25  C   UNL     1     -11.349  13.813  65.049  1.00  0.00    -0.334 A  
HETATM   26  C   UNL     1     -10.518  11.186  65.078  1.00  0.00    -0.293 A  
HETATM   27  F   UNL     1     -10.437  15.235  67.351  1.00  0.00    -0.252 F  
HETATM   28  F   UNL     1      -8.507  14.271  67.356  1.00  0.00    -0.156 F  
HETATM   29  C   UNL     1     -11.688  11.534  64.403  1.00  0.00    -0.131 A  
HETATM   30  C   UNL     1     -12.088  12.858  64.358  1.00  0.00    -0.474 A  
ENDBRANCH  19  20
ENDBRANCH  13  19
BRANCH  18  31
HETATM   31  C   UNL     1      -6.481   7.267  66.416  1.00  0.00    -0.048 C  
BRANCH  31  32
HETATM   32  C   UNL     1      -7.092   6.568  65.158  1.00  0.00    -0.060 C  
BRANCH  32  33
HETATM   33  N   UNL     1      -8.561   6.341  65.239  1.00  0.00    -0.294 NA 
HETATM   34  H   UNL     1      -9.043   6.900  64.536  1.00  0.00     0.000 HD 
BRANCH  33  35
HETATM   35  C   UNL     1      -8.976   4.945  65.144  1.00  0.00    -0.152 C  
BRANCH  35  36
HETATM   36  C   UNL     1      -9.765   4.700  63.848  1.00  0.00     0.178 C  
BRANCH  36  37
HETATM   37  C   UNL     1     -10.890   3.677  64.012  1.00  0.00    -0.185 C  
HETATM   38  O   UNL     1     -11.316   1.964  62.372  1.00  0.00    -0.190 OA 
HETATM   39  C   UNL     1     -10.617   2.391  63.278  1.00  0.00    -0.206 C  
HETATM   40  O   UNL     1      -9.548   1.713  63.748  1.00  0.00    -0.115 OA 
ENDBRANCH  36  37
ENDBRANCH  35  36
ENDBRANCH  33  35
ENDBRANCH  32  33
BRANCH  32  41
HETATM   41  C   UNL     1      -6.437   5.214  64.866  1.00  0.00    -0.035 A  
HETATM   42  C   UNL     1      -5.742   3.009  65.633  1.00  0.00    -0.018 A  
HETATM   43  C   UNL     1      -5.201   3.709  63.393  1.00  0.00    -0.008 A  
HETATM   44  C   UNL     1      -6.379   4.232  65.866  1.00  0.00    -0.032 A  
HETATM   45  C   UNL     1      -5.847   4.927  63.620  1.00  0.00    -0.017 A  
HETATM   46  C   UNL     1      -5.150   2.749  64.399  1.00  0.00    -0.008 A  
ENDBRANCH  32  41
ENDBRANCH  31  32
ENDBRANCH  18  31
ENDBRANCH   6  10
ENDBRANCH   2   3
TORSDOF 11
ENDMDL
MODEL      152
REMARK 921   NORMALIZED FREE ENERGY PREDICTED BY IDOCK:   -3.60 KCAL/MOL
REMARK 922        TOTAL FREE ENERGY PREDICTED BY IDOCK:   -8.97 KCAL/MOL
REMARK 923 INTER-LIGAND FREE ENERGY PREDICTED BY IDOCK:   -9.60 KCAL/MOL
REMARK 924 INTRA-LIGAND FREE ENERGY PREDICTED BY IDOCK:    0.63 KCAL/MOL
REMARK 927      BINDING AFFINITY PREDICTED BY RF-SCORE:    0.00 PKD
ROOT
HETATM    1  C   UNL     1      -7.455   4.741  70.447  1.00  0.00    -0.051 C  
HETATM    2  O   UNL     1      -7.060   5.596  71.524  1.00  0.00    -0.068 OA 
ENDROOT
BRANCH   2   3
HETATM    3  C   UNL     1      -7.820   6.726  71.670  1.00  0.00    -0.101 A  
HETATM    4  C   UNL     1      -7.847   7.621  70.591  1.00  0.00    -0.097 A  
HETATM    5  F   UNL     1      -7.135   7.341  69.484  1.00  0.00    -0.064 F  
HETATM    6  C   UNL     1      -8.613   8.793  70.642  1.00  0.00    -0.203 A  
HETATM    7  C   UNL     1      -9.336   9.081  71.808  1.00  0.00    -0.208 A  
HETATM    8  C   UNL     1      -8.531   7.036  72.835  1.00  0.00    -0.130 A  
HETATM    9  C   UNL     1      -9.289   8.206  72.897  1.00  0.00    -0.343 A  
BRANCH   6  10
HETATM   10  C   UNL     1      -8.713   9.687  69.469  1.00  0.00    -0.191 C  
HETATM   11  C   UNL     1     -10.706   8.476  68.534  1.00  0.00    -0.080 C  
HETATM   12  C   UNL     1      -9.646   9.559  68.500  1.00  0.00    -0.142 C  
HETATM   13  N   UNL     1      -9.682  10.478  67.444  1.00  0.00    -0.162 N  
HETATM   14  C   UNL     1      -8.981  11.685  67.495  1.00  0.00    -0.165 C  
HETATM   15  C   UNL     1      -7.675  10.751  69.315  1.00  0.00    -0.129 C  
HETATM   16  O   UNL     1      -9.284  12.649  66.787  1.00  0.00    -0.217 OA 
HETATM   17  O   UNL     1      -6.654  10.727  70.002  1.00  0.00    -0.137 OA 
HETATM   18  N   UNL     1      -7.933  11.740  68.390  1.00  0.00    -0.142 N  
BRANCH  13  19
HETATM   19  C   UNL     1     -10.566  10.312  66.283  1.00  0.00    -0.080 C  
BRANCH  19  20
HETATM   20  C   UNL     1     -10.974  11.572  65.529  1.00  0.00    -0.290 A  
HETATM   21  F   UNL     1     -10.152  10.312  62.355  1.00  0.00    -0.195 F  
HETATM   22  C   UNL     1      -9.602  11.022  63.377  1.00  0.00    -0.333 C  
HETATM   23  C   UNL     1     -10.640  11.793  64.169  1.00  0.00    -0.403 A  
HETATM   24  F   UNL     1     -12.168  12.368  67.432  1.00  0.00    -0.376 F  
HETATM   25  C   UNL     1     -11.303  12.825  63.458  1.00  0.00    -0.480 A  
HETATM   26  C   UNL     1     -11.872  12.474  66.131  1.00  0.00    -0.397 A  
HETATM   27  F   UNL     1      -8.697  11.863  62.798  1.00  0.00    -0.099 F  
HETATM   28  F   UNL     1      -8.854  10.138  64.085  1.00  0.00    -0.161 F  
HETATM   29  C   UNL     1     -12.486  13.508  65.423  1.00  0.00    -0.540 A  
HETATM   30  C   UNL     1     -12.227  13.665  64.073  1.00  0.00    -0.443 A  
ENDBRANCH  19  20
ENDBRANCH  13  19
BRANCH  18  31
HETATM   31  C   UNL     1      -7.034  12.899  68.335  1.00  0.00    -0.096 C  
BRANCH  31  32
HETATM   32  C   UNL     1      -7.519  14.157  69.126  1.00  0.00    -0.037 C  
BRANCH  32  33
HETATM   33  N   UNL     1      -8.976  14.162  69.430  1.00  0.00    -0.202 NA 
HETATM   34  H   UNL     1      -9.174  13.549  70.220  1.00  0.00     0.000 HD 
BRANCH  33  35
HETATM   35  C   UNL     1      -9.553  15.483  69.662  1.00  0.00    -0.262 C  
BRANCH  35  36
HETATM   36  C   UNL     1     -10.924  15.605  68.979  1.00  0.00    -0.263 C  
BRANCH  36  37
HETATM   37  C   UNL     1     -12.031  16.067  69.928  1.00  0.00    -0.187 C  
HETATM   38  O   UNL     1     -13.082  14.573  71.500  1.00  0.00    -0.310 OA 
HETATM   39  C   UNL     1     -12.106  15.235  71.181  1.00  0.00    -0.348 C  
HETATM   40  O   UNL     1     -11.008  15.328  71.962  1.00  0.00    -0.265 OA 
ENDBRANCH  36  37
ENDBRANCH  35  36
ENDBRANCH  33  35
ENDBRANCH  32  33
BRANCH  32  41
HETATM   41  C   UNL     1      -7.200  15.466  68.397  1.00  0.00    -0.114 A  
HETATM   42  C   UNL     1      -6.358  17.750  68.456  1.00  0.00    -0.187 A  
HETATM   43  C   UNL     1      -7.269  16.876  66.405  1.00  0.00    -0.269 A  
HETATM   44  C   UNL     1      -6.612  16.533  69.093  1.00  0.00    -0.200 A  
HETATM   45  C   UNL     1      -7.513  15.654  67.037  1.00  0.00    -0.228 A  
HETATM   46  C   UNL     1      -6.690  17.924  67.114  1.00  0.00    -0.200 A  
ENDBRANCH  32  41
ENDBRANCH  31  32
ENDBRANCH  18  31
ENDBRANCH   6  10
ENDBRANCH   2   3
TORSDOF 11
ENDMDL
MODEL      153
REMARK 921   NORMALIZED FREE ENERGY PREDICTED BY IDOCK:   -3.59 KCAL/MOL
REMARK 922        TOTAL FREE ENERGY PREDICTED BY IDOCK:   -8.96 KCAL/MOL
REMARK 923 INTER-LIGAND FREE ENERGY PREDICTED BY IDOCK:   -8.83 KCAL/MOL
REMARK 924 INTRA-LIGAND FREE ENERGY PREDICTED BY IDOCK:   -0.13 KCAL/MOL
REMARK 927      BINDING AFFINITY PREDICTED BY RF-SCORE:    0.00 PKD
ROOT
HETATM    1  C   UNL     1      -7.282   5.214  74.563  1.00  0.00    -0.082 C  
HETATM    2  O   UNL     1      -8.239   6.277  74.511  1.00  0.00    -0.121 OA 
ENDROOT
BRANCH   2   3
HETATM    3  C   UNL     1      -9.203   6.136  73.548  1.00  0.00    -0.131 A  
HETATM    4  C   UNL     1      -8.908   6.637  72.272  1.00  0.00    -0.133 A  
HETATM    5  F   UNL     1      -7.719   7.226  72.053  1.00  0.00    -0.086 F  
HETATM    6  C   UNL     1      -9.826   6.519  71.220  1.00  0.00    -0.197 A  
HETATM    7  C   UNL     1     -11.068   5.918  71.466  1.00  0.00    -0.314 A  
HETATM    8  C   UNL     1     -10.454   5.556  73.784  1.00  0.00    -0.302 A  
HETATM    9  C   UNL     1     -11.378   5.445  72.744  1.00  0.00    -0.358 A  
BRANCH   6  10
HETATM   10  C   UNL     1      -9.476   6.964  69.854  1.00  0.00    -0.156 C  
HETATM   11  C   UNL     1      -7.822   5.104  69.516  1.00  0.00    -0.076 C  
HETATM   12  C   UNL     1      -8.568   6.344  69.068  1.00  0.00    -0.124 C  
HETATM   13  N   UNL     1      -8.330   6.820  67.772  1.00  0.00    -0.119 N  
HETATM   14  C   UNL     1      -9.191   7.730  67.153  1.00  0.00    -0.146 C  
HETATM   15  C   UNL     1     -10.117   8.214  69.343  1.00  0.00    -0.194 C  
HETATM   16  O   UNL     1      -9.226   7.868  65.927  1.00  0.00    -0.142 OA 
HETATM   17  O   UNL     1     -10.718   8.963  70.114  1.00  0.00    -0.216 OA 
HETATM   18  N   UNL     1     -10.004   8.461  67.992  1.00  0.00    -0.174 N  
BRANCH  13  19
HETATM   19  C   UNL     1      -7.254   6.293  66.923  1.00  0.00    -0.074 C  
BRANCH  19  20
HETATM   20  C   UNL     1      -7.638   5.808  65.530  1.00  0.00    -0.083 A  
HETATM   21  F   UNL     1     -10.135   3.606  66.645  1.00  0.00    -0.167 F  
HETATM   22  C   UNL     1      -8.808   3.622  66.347  1.00  0.00    -0.129 C  
HETATM   23  C   UNL     1      -8.462   4.676  65.312  1.00  0.00    -0.128 A  
HETATM   24  F   UNL     1      -6.489   7.645  64.535  1.00  0.00    -0.043 F  
HETATM   25  C   UNL     1      -9.020   4.469  64.025  1.00  0.00    -0.138 A  
HETATM   26  C   UNL     1      -7.326   6.607  64.413  1.00  0.00    -0.087 A  
HETATM   27  F   UNL     1      -8.515   2.370  65.893  1.00  0.00    -0.083 F  
HETATM   28  F   UNL     1      -8.159   3.724  67.534  1.00  0.00    -0.087 F  
HETATM   29  C   UNL     1      -7.855   6.366  63.145  1.00  0.00    -0.102 A  
HETATM   30  C   UNL     1      -8.732   5.312  62.956  1.00  0.00    -0.015 A  
ENDBRANCH  19  20
ENDBRANCH  13  19
BRANCH  18  31
HETATM   31  C   UNL     1     -10.769   9.575  67.418  1.00  0.00    -0.227 C  
BRANCH  31  32
HETATM   32  C   UNL     1      -9.911  10.709  66.769  1.00  0.00    -0.198 C  
BRANCH  32  33
HETATM   33  N   UNL     1      -9.526  11.797  67.708  1.00  0.00    -0.176 NA 
HETATM   34  H   UNL     1      -9.237  12.626  67.188  1.00  0.00     0.000 HD 
BRANCH  33  35
HETATM   35  C   UNL     1     -10.545  12.151  68.692  1.00  0.00    -0.223 C  
BRANCH  35  36
HETATM   36  C   UNL     1     -10.619  13.675  68.874  1.00  0.00    -0.211 C  
BRANCH  36  37
HETATM   37  C   UNL     1      -9.878  14.449  67.783  1.00  0.00    -0.221 C  
HETATM   38  O   UNL     1     -11.013  15.372  65.868  1.00  0.00    -0.325 OA 
HETATM   39  C   UNL     1     -10.766  15.430  67.063  1.00  0.00    -0.321 C  
HETATM   40  O   UNL     1     -11.228  16.424  67.851  1.00  0.00    -0.295 OA 
ENDBRANCH  36  37
ENDBRANCH  35  36
ENDBRANCH  33  35
ENDBRANCH  32  33
BRANCH  32  41
HETATM   41  C   UNL     1     -10.613  11.363  65.575  1.00  0.00    -0.328 A  
HETATM   42  C   UNL     1     -10.614  11.976  63.218  1.00  0.00    -0.399 A  
HETATM   43  C   UNL     1     -12.443  12.669  64.622  1.00  0.00    -0.538 A  
HETATM   44  C   UNL     1     -10.010  11.343  64.308  1.00  0.00    -0.329 A  
HETATM   45  C   UNL     1     -11.847  12.026  65.711  1.00  0.00    -0.236 A  
HETATM   46  C   UNL     1     -11.827  12.642  63.375  1.00  0.00    -0.594 A  
ENDBRANCH  32  41
ENDBRANCH  31  32
ENDBRANCH  18  31
ENDBRANCH   6  10
ENDBRANCH   2   3
TORSDOF 11
ENDMDL
MODEL      154
REMARK 921   NORMALIZED FREE ENERGY PREDICTED BY IDOCK:   -3.56 KCAL/MOL
REMARK 922        TOTAL FREE ENERGY PREDICTED BY IDOCK:   -8.91 KCAL/MOL
REMARK 923 INTER-LIGAND FREE ENERGY PREDICTED BY IDOCK:   -9.20 KCAL/MOL
REMARK 924 INTRA-LIGAND FREE ENERGY PREDICTED BY IDOCK:    0.29 KCAL/MOL
REMARK 927      BINDING AFFINITY PREDICTED BY RF-SCORE:    0.00 PKD
ROOT
HETATM    1  C   UNL     1     -12.332   6.005  72.399  1.00  0.00     0.031 C  
HETATM    2  O   UNL     1     -13.123   6.822  71.529  1.00  0.00    -0.310 OA 
ENDROOT
BRANCH   2   3
HETATM    3  C   UNL     1     -12.639   8.087  71.331  1.00  0.00    -0.289 A  
HETATM    4  C   UNL     1     -11.633   8.241  70.365  1.00  0.00    -0.060 A  
HETATM    5  F   UNL     1     -11.192   7.162  69.694  1.00  0.00    -0.260 F  
HETATM    6  C   UNL     1     -11.092   9.502  70.080  1.00  0.00    -0.294 A  
HETATM    7  C   UNL     1     -11.548  10.616  70.799  1.00  0.00    -0.388 A  
HETATM    8  C   UNL     1     -13.070   9.205  72.054  1.00  0.00    -0.497 A  
HETATM    9  C   UNL     1     -12.529  10.462  71.783  1.00  0.00    -0.400 A  
BRANCH   6  10
HETATM   10  C   UNL     1     -10.100   9.675  68.999  1.00  0.00    -0.193 C  
HETATM   11  C   UNL     1     -11.577  11.235  67.696  1.00  0.00    -0.290 C  
HETATM   12  C   UNL     1     -10.300  10.447  67.908  1.00  0.00    -0.190 C  
HETATM   13  N   UNL     1      -9.285  10.577  66.951  1.00  0.00    -0.154 N  
HETATM   14  C   UNL     1      -7.972  10.175  67.213  1.00  0.00    -0.110 C  
HETATM   15  C   UNL     1      -8.829   8.893  69.087  1.00  0.00    -0.136 C  
HETATM   16  O   UNL     1      -7.013  10.609  66.570  1.00  0.00    -0.109 OA 
HETATM   17  O   UNL     1      -8.724   7.970  69.896  1.00  0.00    -0.136 OA 
HETATM   18  N   UNL     1      -7.810   9.267  68.238  1.00  0.00    -0.097 N  
BRANCH  13  19
HETATM   19  C   UNL     1      -9.487  11.273  65.675  1.00  0.00    -0.229 C  
BRANCH  19  20
HETATM   20  C   UNL     1      -9.883  12.744  65.734  1.00  0.00    -0.222 A  
HETATM   21  F   UNL     1     -13.153  12.229  64.563  1.00  0.00    -0.545 F  
HETATM   22  C   UNL     1     -11.906  12.516  64.101  1.00  0.00    -0.411 C  
HETATM   23  C   UNL     1     -11.063  13.244  65.130  1.00  0.00    -0.315 A  
HETATM   24  F   UNL     1      -8.000  13.233  67.112  1.00  0.00    -0.169 F  
HETATM   25  C   UNL     1     -11.519  14.540  65.480  1.00  0.00    -0.343 A  
HETATM   26  C   UNL     1      -9.163  13.617  66.572  1.00  0.00    -0.179 A  
HETATM   27  F   UNL     1     -12.091  13.277  62.984  1.00  0.00    -0.608 F  
HETATM   28  F   UNL     1     -11.399  11.343  63.643  1.00  0.00    -0.461 F  
HETATM   29  C   UNL     1      -9.608  14.904  66.876  1.00  0.00    -0.256 A  
HETATM   30  C   UNL     1     -10.808  15.357  66.355  1.00  0.00    -0.303 A  
ENDBRANCH  19  20
ENDBRANCH  13  19
BRANCH  18  31
HETATM   31  C   UNL     1      -6.489   8.650  68.416  1.00  0.00    -0.056 C  
BRANCH  31  32
HETATM   32  C   UNL     1      -6.168   7.470  67.442  1.00  0.00    -0.049 C  
BRANCH  32  33
HETATM   33  N   UNL     1      -7.181   7.270  66.371  1.00  0.00    -0.077 NA 
HETATM   34  H   UNL     1      -6.755   7.400  65.454  1.00  0.00     0.000 HD 
BRANCH  33  35
HETATM   35  C   UNL     1      -7.888   5.994  66.421  1.00  0.00    -0.104 C  
BRANCH  35  36
HETATM   36  C   UNL     1      -8.002   5.380  65.017  1.00  0.00    -0.110 C  
BRANCH  36  37
HETATM   37  C   UNL     1      -8.759   4.051  64.999  1.00  0.00    -0.117 C  
HETATM   38  O   UNL     1      -9.511   2.975  67.020  1.00  0.00    -0.163 OA 
HETATM   39  C   UNL     1      -9.647   3.873  66.203  1.00  0.00    -0.183 C  
HETATM   40  O   UNL     1     -10.653   4.771  66.274  1.00  0.00    -0.301 OA 
ENDBRANCH  36  37
ENDBRANCH  35  36
ENDBRANCH  33  35
ENDBRANCH  32  33
BRANCH  32  41
HETATM   41  C   UNL     1      -6.009   6.134  68.176  1.00  0.00    -0.016 A  
HETATM   42  C   UNL     1      -6.133   4.845  70.237  1.00  0.00    -0.021 A  
HETATM   43  C   UNL     1      -5.325   3.791  68.228  1.00  0.00    -0.012 A  
HETATM   44  C   UNL     1      -6.318   6.042  69.541  1.00  0.00    -0.041 A  
HETATM   45  C   UNL     1      -5.521   4.984  67.527  1.00  0.00    -0.012 A  
HETATM   46  C   UNL     1      -5.633   3.721  69.584  1.00  0.00    -0.017 A  
ENDBRANCH  32  41
ENDBRANCH  31  32
ENDBRANCH  18  31
ENDBRANCH   6  10
ENDBRANCH   2   3
TORSDOF 11
ENDMDL
MODEL      155
REMARK 921   NORMALIZED FREE ENERGY PREDICTED BY IDOCK:   -3.55 KCAL/MOL
REMARK 922        TOTAL FREE ENERGY PREDICTED BY IDOCK:   -8.90 KCAL/MOL
REMARK 923 INTER-LIGAND FREE ENERGY PREDICTED BY IDOCK:   -7.68 KCAL/MOL
REMARK 924 INTRA-LIGAND FREE ENERGY PREDICTED BY IDOCK:   -1.22 KCAL/MOL
REMARK 927      BINDING AFFINITY PREDICTED BY RF-SCORE:    0.00 PKD
ROOT
HETATM    1  C   UNL     1     -10.940  16.595  65.557  1.00  0.00    -0.059 C  
HETATM    2  O   UNL     1     -10.371  15.453  66.204  1.00  0.00    -0.283 OA 
ENDROOT
BRANCH   2   3
HETATM    3  C   UNL     1     -10.640  14.255  65.598  1.00  0.00    -0.319 A  
HETATM    4  C   UNL     1     -10.061  13.110  66.163  1.00  0.00    -0.291 A  
HETATM    5  F   UNL     1      -9.276  13.233  67.248  1.00  0.00    -0.189 F  
HETATM    6  C   UNL     1     -10.297  11.839  65.622  1.00  0.00    -0.293 A  
HETATM    7  C   UNL     1     -11.101  11.724  64.480  1.00  0.00    -0.376 A  
HETATM    8  C   UNL     1     -11.425  14.128  64.447  1.00  0.00    -0.344 A  
HETATM    9  C   UNL     1     -11.657  12.867  63.896  1.00  0.00    -0.515 A  
BRANCH   6  10
HETATM   10  C   UNL     1      -9.760  10.625  66.273  1.00  0.00    -0.245 C  
HETATM   11  C   UNL     1      -7.789  10.489  64.722  1.00  0.00    -0.022 C  
HETATM   12  C   UNL     1      -8.632   9.993  65.879  1.00  0.00    -0.139 C  
HETATM   13  N   UNL     1      -8.183   8.867  66.581  1.00  0.00    -0.110 N  
HETATM   14  C   UNL     1      -8.690   8.537  67.841  1.00  0.00    -0.138 C  
HETATM   15  C   UNL     1     -10.553  10.024  67.388  1.00  0.00    -0.271 C  
HETATM   16  O   UNL     1      -8.073   7.810  68.625  1.00  0.00    -0.123 OA 
HETATM   17  O   UNL     1     -11.713  10.386  67.590  1.00  0.00    -0.309 OA 
HETATM   18  N   UNL     1      -9.918   9.076  68.161  1.00  0.00    -0.167 N  
BRANCH  13  19
HETATM   19  C   UNL     1      -7.058   8.046  66.120  1.00  0.00    -0.062 C  
BRANCH  19  20
HETATM   20  C   UNL     1      -7.381   6.662  65.570  1.00  0.00    -0.076 A  
HETATM   21  F   UNL     1      -6.870   4.992  68.617  1.00  0.00    -0.046 F  
HETATM   22  C   UNL     1      -6.195   5.354  67.493  1.00  0.00    -0.034 C  
HETATM   23  C   UNL     1      -7.106   5.469  66.285  1.00  0.00    -0.072 A  
HETATM   24  F   UNL     1      -8.381   7.625  63.633  1.00  0.00    -0.113 F  
HETATM   25  C   UNL     1      -7.702   4.257  65.857  1.00  0.00    -0.090 A  
HETATM   26  C   UNL     1      -8.151   6.550  64.396  1.00  0.00    -0.065 A  
HETATM   27  F   UNL     1      -5.245   4.392  67.306  1.00  0.00    -0.009 F  
HETATM   28  F   UNL     1      -5.500   6.472  67.818  1.00  0.00    -0.004 F  
HETATM   29  C   UNL     1      -8.699   5.340  63.969  1.00  0.00    -0.008 A  
HETATM   30  C   UNL     1      -8.502   4.194  64.720  1.00  0.00    -0.116 A  
ENDBRANCH  19  20
ENDBRANCH  13  19
BRANCH  18  31
HETATM   31  C   UNL     1     -10.592   8.595  69.374  1.00  0.00    -0.199 C  
BRANCH  31  32
HETATM   32  C   UNL     1     -10.049   7.246  69.947  1.00  0.00    -0.194 C  
BRANCH  32  33
HETATM   33  N   UNL     1     -10.948   6.081  69.721  1.00  0.00    -0.372 NA 
HETATM   34  H   UNL     1     -10.857   5.747  68.762  1.00  0.00     0.000 HD 
BRANCH  33  35
HETATM   35  C   UNL     1     -10.773   4.976  70.658  1.00  0.00     0.030 C  
BRANCH  35  36
HETATM   36  C   UNL     1      -9.661   4.029  70.182  1.00  0.00    -0.270 C  
BRANCH  36  37
HETATM   37  C   UNL     1      -8.766   3.530  71.317  1.00  0.00    -0.121 C  
HETATM   38  O   UNL     1      -9.192   4.082  73.624  1.00  0.00    -0.098 OA 
HETATM   39  C   UNL     1      -9.495   3.437  72.632  1.00  0.00    -0.113 C  
HETATM   40  O   UNL     1     -10.493   2.527  72.638  1.00  0.00    -0.160 OA 
ENDBRANCH  36  37
ENDBRANCH  35  36
ENDBRANCH  33  35
ENDBRANCH  32  33
BRANCH  32  41
HETATM   41  C   UNL     1      -9.768   7.321  71.451  1.00  0.00    -0.170 A  
HETATM   42  C   UNL     1      -8.173   7.499  73.282  1.00  0.00    -0.163 A  
HETATM   43  C   UNL     1     -10.512   7.210  73.774  1.00  0.00    -0.371 A  
HETATM   44  C   UNL     1      -8.453   7.478  71.913  1.00  0.00    -0.120 A  
HETATM   45  C   UNL     1     -10.796   7.200  72.406  1.00  0.00    -0.280 A  
HETATM   46  C   UNL     1      -9.200   7.362  74.213  1.00  0.00    -0.188 A  
ENDBRANCH  32  41
ENDBRANCH  31  32
ENDBRANCH  18  31
ENDBRANCH   6  10
ENDBRANCH   2   3
TORSDOF 11
ENDMDL
MODEL      156
REMARK 921   NORMALIZED FREE ENERGY PREDICTED BY IDOCK:   -3.49 KCAL/MOL
REMARK 922        TOTAL FREE ENERGY PREDICTED BY IDOCK:   -8.80 KCAL/MOL
REMARK 923 INTER-LIGAND FREE ENERGY PREDICTED BY IDOCK:   -6.75 KCAL/MOL
REMARK 924 INTRA-LIGAND FREE ENERGY PREDICTED BY IDOCK:   -2.05 KCAL/MOL
REMARK 927      BINDING AFFINITY PREDICTED BY RF-SCORE:    0.00 PKD
ROOT
HETATM    1  C   UNL     1     -11.678  12.605  63.601  1.00  0.00    -0.522 C  
HETATM    2  O   UNL     1     -11.364  11.223  63.401  1.00  0.00    -0.272 OA 
ENDROOT
BRANCH   2   3
HETATM    3  C   UNL     1     -10.028  10.924  63.448  1.00  0.00    -0.361 A  
HETATM    4  C   UNL     1      -9.598  10.086  64.487  1.00  0.00    -0.279 A  
HETATM    5  F   UNL     1     -10.494   9.625  65.377  1.00  0.00    -0.271 F  
HETATM    6  C   UNL     1      -8.253   9.710  64.603  1.00  0.00    -0.149 A  
HETATM    7  C   UNL     1      -7.325  10.212  63.679  1.00  0.00    -0.123 A  
HETATM    8  C   UNL     1      -9.088  11.433  62.545  1.00  0.00    -0.177 A  
HETATM    9  C   UNL     1      -7.745  11.072  62.659  1.00  0.00     0.055 A  
BRANCH   6  10
HETATM   10  C   UNL     1      -7.818   8.754  65.642  1.00  0.00    -0.097 C  
HETATM   11  C   UNL     1      -7.421   6.909  63.983  1.00  0.00    -0.098 C  
HETATM   12  C   UNL     1      -7.445   7.480  65.386  1.00  0.00    -0.082 C  
HETATM   13  N   UNL     1      -7.014   6.657  66.435  1.00  0.00    -0.061 N  
HETATM   14  C   UNL     1      -6.682   7.178  67.689  1.00  0.00    -0.064 C  
HETATM   15  C   UNL     1      -7.863   9.204  67.066  1.00  0.00    -0.102 C  
HETATM   16  O   UNL     1      -5.962   6.566  68.482  1.00  0.00    -0.019 OA 
HETATM   17  O   UNL     1      -8.461  10.236  67.372  1.00  0.00    -0.124 OA 
HETATM   18  N   UNL     1      -7.202   8.420  67.987  1.00  0.00    -0.089 N  
BRANCH  13  19
HETATM   19  C   UNL     1      -6.741   5.226  66.255  1.00  0.00    -0.057 C  
BRANCH  19  20
HETATM   20  C   UNL     1      -7.837   4.379  65.618  1.00  0.00    -0.094 A  
HETATM   21  F   UNL     1     -10.430   5.703  67.583  1.00  0.00    -0.191 F  
HETATM   22  C   UNL     1      -9.539   4.674  67.575  1.00  0.00    -0.163 C  
HETATM   23  C   UNL     1      -9.137   4.269  66.170  1.00  0.00    -0.133 A  
HETATM   24  F   UNL     1      -6.404   3.833  63.793  1.00  0.00    -0.023 F  
HETATM   25  C   UNL     1     -10.177   3.723  65.375  1.00  0.00     0.031 A  
HETATM   26  C   UNL     1      -7.627   3.831  64.338  1.00  0.00    -0.079 A  
HETATM   27  F   UNL     1     -10.154   3.647  68.230  1.00  0.00    -0.107 F  
HETATM   28  F   UNL     1      -8.525   5.052  68.394  1.00  0.00    -0.094 F  
HETATM   29  C   UNL     1      -8.656   3.264  63.585  1.00  0.00    -0.090 A  
HETATM   30  C   UNL     1      -9.943   3.239  64.091  1.00  0.00    -0.177 A  
ENDBRANCH  19  20
ENDBRANCH  13  19
BRANCH  18  31
HETATM   31  C   UNL     1      -7.064   8.918  69.361  1.00  0.00    -0.057 C  
BRANCH  31  32
HETATM   32  C   UNL     1      -8.238   8.547  70.325  1.00  0.00    -0.115 C  
BRANCH  32  33
HETATM   33  N   UNL     1      -8.976   9.720  70.867  1.00  0.00    -0.338 NA 
HETATM   34  H   UNL     1      -8.346  10.515  70.972  1.00  0.00     0.000 HD 
BRANCH  33  35
HETATM   35  C   UNL     1     -10.157  10.112  70.104  1.00  0.00    -0.141 C  
BRANCH  35  36
HETATM   36  C   UNL     1     -11.199   8.983  70.097  1.00  0.00    -0.191 C  
BRANCH  36  37
HETATM   37  C   UNL     1     -11.406   8.345  71.471  1.00  0.00    -0.334 C  
HETATM   38  O   UNL     1     -13.033   6.608  71.849  1.00  0.00    -0.306 OA 
HETATM   39  C   UNL     1     -11.954   6.945  71.386  1.00  0.00    -0.349 C  
HETATM   40  O   UNL     1     -11.116   6.069  70.791  1.00  0.00    -0.291 OA 
ENDBRANCH  36  37
ENDBRANCH  35  36
ENDBRANCH  33  35
ENDBRANCH  32  33
BRANCH  32  41
HETATM   41  C   UNL     1      -7.770   7.709  71.520  1.00  0.00    -0.085 A  
HETATM   42  C   UNL     1      -7.276   5.532  72.491  1.00  0.00    -0.093 A  
HETATM   43  C   UNL     1      -7.115   7.505  73.863  1.00  0.00    -0.107 A  
HETATM   44  C   UNL     1      -7.654   6.317  71.398  1.00  0.00    -0.098 A  
HETATM   45  C   UNL     1      -7.482   8.293  72.768  1.00  0.00    -0.152 A  
HETATM   46  C   UNL     1      -7.010   6.124  73.724  1.00  0.00    -0.080 A  
ENDBRANCH  32  41
ENDBRANCH  31  32
ENDBRANCH  18  31
ENDBRANCH   6  10
ENDBRANCH   2   3
TORSDOF 11
ENDMDL
MODEL      157
REMARK 921   NORMALIZED FREE ENERGY PREDICTED BY IDOCK:   -3.47 KCAL/MOL
REMARK 922        TOTAL FREE ENERGY PREDICTED BY IDOCK:   -8.75 KCAL/MOL
REMARK 923 INTER-LIGAND FREE ENERGY PREDICTED BY IDOCK:   -8.22 KCAL/MOL
REMARK 924 INTRA-LIGAND FREE ENERGY PREDICTED BY IDOCK:   -0.53 KCAL/MOL
REMARK 927      BINDING AFFINITY PREDICTED BY RF-SCORE:    0.00 PKD
ROOT
HETATM    1  C   UNL     1      -5.177   8.064  62.569  1.00  0.00    -0.059 C  
HETATM    2  O   UNL     1      -5.874   8.480  63.748  1.00  0.00    -0.069 OA 
ENDROOT
BRANCH   2   3
HETATM    3  C   UNL     1      -6.769   7.567  64.239  1.00  0.00    -0.048 A  
HETATM    4  C   UNL     1      -7.085   7.652  65.603  1.00  0.00    -0.061 A  
HETATM    5  F   UNL     1      -6.504   8.603  66.356  1.00  0.00    -0.057 F  
HETATM    6  C   UNL     1      -8.006   6.773  66.188  1.00  0.00    -0.110 A  
HETATM    7  C   UNL     1      -8.591   5.775  65.395  1.00  0.00    -0.143 A  
HETATM    8  C   UNL     1      -7.346   6.554  63.465  1.00  0.00    -0.067 A  
HETATM    9  C   UNL     1      -8.256   5.668  64.042  1.00  0.00    -0.102 A  
BRANCH   6  10
HETATM   10  C   UNL     1      -8.406   6.924  67.603  1.00  0.00    -0.123 C  
HETATM   11  C   UNL     1      -7.974   4.506  68.133  1.00  0.00    -0.080 C  
HETATM   12  C   UNL     1      -8.407   5.911  68.498  1.00  0.00    -0.109 C  
HETATM   13  N   UNL     1      -8.770   6.159  69.828  1.00  0.00    -0.134 N  
HETATM   14  C   UNL     1      -8.857   7.458  70.336  1.00  0.00    -0.149 C  
HETATM   15  C   UNL     1      -8.906   8.260  68.046  1.00  0.00    -0.135 C  
HETATM   16  O   UNL     1      -8.798   7.694  71.546  1.00  0.00    -0.122 OA 
HETATM   17  O   UNL     1      -9.196   9.122  67.216  1.00  0.00    -0.131 OA 
HETATM   18  N   UNL     1      -9.008   8.464  69.406  1.00  0.00    -0.152 N  
BRANCH  13  19
HETATM   19  C   UNL     1      -8.940   5.085  70.814  1.00  0.00    -0.132 C  
BRANCH  19  20
HETATM   20  C   UNL     1      -8.179   5.216  72.128  1.00  0.00    -0.114 A  
HETATM   21  F   UNL     1     -10.927   4.400  74.157  1.00  0.00    -0.305 F  
HETATM   22  C   UNL     1     -10.308   5.484  73.615  1.00  0.00    -0.237 C  
HETATM   23  C   UNL     1      -8.826   5.248  73.388  1.00  0.00    -0.113 A  
HETATM   24  F   UNL     1      -6.096   5.156  70.971  1.00  0.00    -0.018 F  
HETATM   25  C   UNL     1      -8.055   5.064  74.563  1.00  0.00    -0.098 A  
HETATM   26  C   UNL     1      -6.774   5.113  72.124  1.00  0.00    -0.056 A  
HETATM   27  F   UNL     1     -10.518   6.507  74.492  1.00  0.00    -0.347 F  
HETATM   28  F   UNL     1     -11.029   5.813  72.514  1.00  0.00    -0.242 F  
HETATM   29  C   UNL     1      -6.028   4.970  73.294  1.00  0.00    -0.023 A  
HETATM   30  C   UNL     1      -6.672   4.912  74.517  1.00  0.00    -0.071 A  
ENDBRANCH  19  20
ENDBRANCH  13  19
BRANCH  18  31
HETATM   31  C   UNL     1      -9.318   9.815  69.889  1.00  0.00    -0.231 C  
BRANCH  31  32
HETATM   32  C   UNL     1     -10.738  10.350  69.511  1.00  0.00    -0.251 C  
BRANCH  32  33
HETATM   33  N   UNL     1     -10.789  11.815  69.253  1.00  0.00    -0.416 NA 
HETATM   34  H   UNL     1      -9.865  12.228  69.379  1.00  0.00     0.000 HD 
BRANCH  33  35
HETATM   35  C   UNL     1     -11.337  12.194  67.954  1.00  0.00    -0.300 C  
BRANCH  35  36
HETATM   36  C   UNL     1     -11.341  13.721  67.790  1.00  0.00    -0.331 C  
BRANCH  36  37
HETATM   37  C   UNL     1      -9.972  14.292  67.418  1.00  0.00    -0.242 C  
HETATM   38  O   UNL     1      -9.407  16.608  67.769  1.00  0.00    -0.219 OA 
HETATM   39  C   UNL     1      -9.602  15.498  68.240  1.00  0.00    -0.201 C  
HETATM   40  O   UNL     1      -9.450  15.233  69.556  1.00  0.00    -0.239 OA 
ENDBRANCH  36  37
ENDBRANCH  35  36
ENDBRANCH  33  35
ENDBRANCH  32  33
BRANCH  32  41
HETATM   41  C   UNL     1     -11.785  10.038  70.585  1.00  0.00    -0.421 A  
HETATM   42  C   UNL     1     -13.494  10.813  72.137  1.00  0.00    -0.227 A  
HETATM   43  C   UNL     1     -12.887   8.483  72.110  1.00  0.00    -0.413 A  
HETATM   44  C   UNL     1     -12.569  11.071  71.122  1.00  0.00    -0.522 A  
HETATM   45  C   UNL     1     -11.968   8.736  71.088  1.00  0.00    -0.331 A  
HETATM   46  C   UNL     1     -13.651   9.521  72.634  1.00  0.00    -0.267 A  
ENDBRANCH  32  41
ENDBRANCH  31  32
ENDBRANCH  18  31
ENDBRANCH   6  10
ENDBRANCH   2   3
TORSDOF 11
ENDMDL
MODEL      158
REMARK 921   NORMALIZED FREE ENERGY PREDICTED BY IDOCK:   -3.45 KCAL/MOL
REMARK 922        TOTAL FREE ENERGY PREDICTED BY IDOCK:   -8.73 KCAL/MOL
REMARK 923 INTER-LIGAND FREE ENERGY PREDICTED BY IDOCK:   -5.67 KCAL/MOL
REMARK 924 INTRA-LIGAND FREE ENERGY PREDICTED BY IDOCK:   -3.06 KCAL/MOL
REMARK 927      BINDING AFFINITY PREDICTED BY RF-SCORE:    0.00 PKD
ROOT
HETATM    1  C   UNL     1     -10.562  17.451  65.848  1.00  0.00    -0.200 C  
HETATM    2  O   UNL     1     -11.636  16.730  66.461  1.00  0.00     0.775 OA 
ENDROOT
BRANCH   2   3
HETATM    3  C   UNL     1     -11.277  15.980  67.550  1.00  0.00    -0.138 A  
HETATM    4  C   UNL     1     -11.094  14.605  67.345  1.00  0.00    -0.326 A  
HETATM    5  F   UNL     1     -11.281  14.090  66.117  1.00  0.00    -0.304 F  
HETATM    6  C   UNL     1     -10.707  13.763  68.396  1.00  0.00    -0.266 A  
HETATM    7  C   UNL     1     -10.532  14.309  69.676  1.00  0.00     0.111 A  
HETATM    8  C   UNL     1     -11.118  16.508  68.836  1.00  0.00    -0.300 A  
HETATM    9  C   UNL     1     -10.742  15.675  69.890  1.00  0.00    -0.328 A  
BRANCH   6  10
HETATM   10  C   UNL     1     -10.425  12.332  68.158  1.00  0.00    -0.228 C  
HETATM   11  C   UNL     1     -12.233  11.567  69.727  1.00  0.00    -0.310 C  
HETATM   12  C   UNL     1     -11.097  11.322  68.754  1.00  0.00    -0.233 C  
HETATM   13  N   UNL     1     -10.781   9.994  68.438  1.00  0.00    -0.223 N  
HETATM   14  C   UNL     1     -10.000   9.669  67.326  1.00  0.00    -0.197 C  
HETATM   15  C   UNL     1      -9.283  11.986  67.259  1.00  0.00    -0.182 C  
HETATM   16  O   UNL     1     -10.022   8.546  66.816  1.00  0.00    -0.230 OA 
HETATM   17  O   UNL     1      -8.471  12.850  66.928  1.00  0.00    -0.174 OA 
HETATM   18  N   UNL     1      -9.206  10.680  66.827  1.00  0.00    -0.155 N  
BRANCH  13  19
HETATM   19  C   UNL     1     -11.362   8.852  69.155  1.00  0.00     0.411 C  
BRANCH  19  20
HETATM   20  C   UNL     1     -10.469   8.128  70.156  1.00  0.00    -0.225 A  
HETATM   21  F   UNL     1      -9.433   5.643  67.901  1.00  0.00    -0.110 F  
HETATM   22  C   UNL     1     -10.397   5.879  68.832  1.00  0.00    -0.228 C  
HETATM   23  C   UNL     1      -9.933   6.839  69.912  1.00  0.00    -0.184 A  
HETATM   24  F   UNL     1     -10.517  10.010  71.618  1.00  0.00    -0.086 F  
HETATM   25  C   UNL     1      -8.881   6.363  70.735  1.00  0.00    -0.144 A  
HETATM   26  C   UNL     1      -9.996   8.822  71.287  1.00  0.00    -0.263 A  
HETATM   27  F   UNL     1     -10.712   4.660  69.356  1.00  0.00    -0.115 F  
HETATM   28  F   UNL     1     -11.500   6.257  68.139  1.00  0.00    -0.392 F  
HETATM   29  C   UNL     1      -8.986   8.322  72.108  1.00  0.00    -0.274 A  
HETATM   30  C   UNL     1      -8.402   7.102  71.813  1.00  0.00    -0.105 A  
ENDBRANCH  19  20
ENDBRANCH  13  19
BRANCH  18  31
HETATM   31  C   UNL     1      -8.213  10.339  65.801  1.00  0.00    -0.147 C  
BRANCH  31  32
HETATM   32  C   UNL     1      -6.721  10.511  66.235  1.00  0.00    -0.123 C  
BRANCH  32  33
HETATM   33  N   UNL     1      -5.735  10.221  65.158  1.00  0.00    -0.111 NA 
HETATM   34  H   UNL     1      -5.138   9.440  65.428  1.00  0.00     0.000 HD 
BRANCH  33  35
HETATM   35  C   UNL     1      -6.315   9.978  63.840  1.00  0.00    -0.132 C  
BRANCH  35  36
HETATM   36  C   UNL     1      -5.813   8.646  63.262  1.00  0.00    -0.077 C  
BRANCH  36  37
HETATM   37  C   UNL     1      -6.943   7.720  62.814  1.00  0.00    -0.081 C  
HETATM   38  O   UNL     1      -6.741   5.319  62.887  1.00  0.00    -0.025 OA 
HETATM   39  C   UNL     1      -6.892   6.373  63.486  1.00  0.00    -0.045 C  
HETATM   40  O   UNL     1      -7.082   6.425  64.822  1.00  0.00    -0.053 OA 
ENDBRANCH  36  37
ENDBRANCH  35  36
ENDBRANCH  33  35
ENDBRANCH  32  33
BRANCH  32  41
HETATM   41  C   UNL     1      -6.356   9.634  67.437  1.00  0.00    -0.068 A  
HETATM   42  C   UNL     1      -5.519   7.524  68.318  1.00  0.00    -0.027 A  
HETATM   43  C   UNL     1      -6.300   9.216  69.842  1.00  0.00    -0.042 A  
HETATM   44  C   UNL     1      -5.813   8.357  67.234  1.00  0.00    -0.043 A  
HETATM   45  C   UNL     1      -6.584  10.056  68.761  1.00  0.00    -0.049 A  
HETATM   46  C   UNL     1      -5.766   7.951  69.620  1.00  0.00    -0.023 A  
ENDBRANCH  32  41
ENDBRANCH  31  32
ENDBRANCH  18  31
ENDBRANCH   6  10
ENDBRANCH   2   3
TORSDOF 11
ENDMDL
MODEL      159
REMARK 921   NORMALIZED FREE ENERGY PREDICTED BY IDOCK:   -3.45 KCAL/MOL
REMARK 922        TOTAL FREE ENERGY PREDICTED BY IDOCK:   -8.73 KCAL/MOL
REMARK 923 INTER-LIGAND FREE ENERGY PREDICTED BY IDOCK:   -8.35 KCAL/MOL
REMARK 924 INTRA-LIGAND FREE ENERGY PREDICTED BY IDOCK:   -0.39 KCAL/MOL
REMARK 927      BINDING AFFINITY PREDICTED BY RF-SCORE:    0.00 PKD
ROOT
HETATM    1  C   UNL     1     -10.574  17.745  67.773  1.00  0.00    -0.386 C  
HETATM    2  O   UNL     1     -11.458  16.679  67.412  1.00  0.00     0.143 OA 
ENDROOT
BRANCH   2   3
HETATM    3  C   UNL     1     -11.385  15.573  68.217  1.00  0.00    -0.357 A  
HETATM    4  C   UNL     1     -10.858  14.404  67.649  1.00  0.00    -0.273 A  
HETATM    5  F   UNL     1     -10.461  14.415  66.364  1.00  0.00    -0.278 F  
HETATM    6  C   UNL     1     -10.726  13.231  68.403  1.00  0.00    -0.273 A  
HETATM    7  C   UNL     1     -11.160  13.227  69.737  1.00  0.00     0.083 A  
HETATM    8  C   UNL     1     -11.832  15.550  69.543  1.00  0.00    -0.390 A  
HETATM    9  C   UNL     1     -11.713  14.382  70.297  1.00  0.00    -0.355 A  
BRANCH   6  10
HETATM   10  C   UNL     1     -10.086  12.028  67.831  1.00  0.00    -0.199 C  
HETATM   11  C   UNL     1      -7.920  13.219  67.379  1.00  0.00    -0.175 C  
HETATM   12  C   UNL     1      -8.821  12.001  67.355  1.00  0.00    -0.178 C  
HETATM   13  N   UNL     1      -8.288  10.803  66.862  1.00  0.00    -0.129 N  
HETATM   14  C   UNL     1      -8.904   9.571  67.103  1.00  0.00    -0.131 C  
HETATM   15  C   UNL     1     -10.913  10.789  67.709  1.00  0.00    -0.297 C  
HETATM   16  O   UNL     1      -8.288   8.504  67.022  1.00  0.00    -0.109 OA 
HETATM   17  O   UNL     1     -12.134  10.842  67.855  1.00  0.00    -0.527 OA 
HETATM   18  N   UNL     1     -10.240   9.617  67.441  1.00  0.00    -0.211 N  
BRANCH  13  19
HETATM   19  C   UNL     1      -6.983  10.734  66.194  1.00  0.00    -0.124 C  
BRANCH  19  20
HETATM   20  C   UNL     1      -6.773   9.612  65.184  1.00  0.00    -0.094 A  
HETATM   21  F   UNL     1      -8.287  11.315  62.511  1.00  0.00    -0.240 F  
HETATM   22  C   UNL     1      -8.596  10.447  63.512  1.00  0.00    -0.188 C  
HETATM   23  C   UNL     1      -7.412   9.590  63.919  1.00  0.00    -0.117 A  
HETATM   24  F   UNL     1      -5.182   8.569  66.619  1.00  0.00    -0.029 F  
HETATM   25  C   UNL     1      -6.942   8.694  62.926  1.00  0.00    -0.090 A  
HETATM   26  C   UNL     1      -5.770   8.652  65.420  1.00  0.00    -0.047 A  
HETATM   27  F   UNL     1      -9.619   9.681  63.034  1.00  0.00    -0.273 F  
HETATM   28  F   UNL     1      -9.151  11.195  64.498  1.00  0.00    -0.198 F  
HETATM   29  C   UNL     1      -5.346   7.752  64.442  1.00  0.00    -0.029 A  
HETATM   30  C   UNL     1      -5.910   7.794  63.179  1.00  0.00    -0.055 A  
ENDBRANCH  19  20
ENDBRANCH  13  19
BRANCH  18  31
HETATM   31  C   UNL     1     -10.985   8.353  67.495  1.00  0.00     0.171 C  
BRANCH  31  32
HETATM   32  C   UNL     1     -10.988   7.639  68.886  1.00  0.00     0.089 C  
BRANCH  32  33
HETATM   33  N   UNL     1     -10.219   8.355  69.940  1.00  0.00    -0.197 NA 
HETATM   34  H   UNL     1      -9.655   9.095  69.524  1.00  0.00     0.000 HD 
BRANCH  33  35
HETATM   35  C   UNL     1     -11.024   8.890  71.034  1.00  0.00    -0.276 C  
BRANCH  35  36
HETATM   36  C   UNL     1     -10.932   7.984  72.271  1.00  0.00    -0.377 C  
BRANCH  36  37
HETATM   37  C   UNL     1      -9.635   8.170  73.059  1.00  0.00    -0.336 C  
HETATM   38  O   UNL     1      -8.438   6.311  74.019  1.00  0.00    -0.115 OA 
HETATM   39  C   UNL     1      -8.755   6.948  73.026  1.00  0.00    -0.118 C  
HETATM   40  O   UNL     1      -8.296   6.643  71.793  1.00  0.00    -0.111 OA 
ENDBRANCH  36  37
ENDBRANCH  35  36
ENDBRANCH  33  35
ENDBRANCH  32  33
BRANCH  32  41
HETATM   41  C   UNL     1     -10.440   6.211  68.810  1.00  0.00    -0.295 A  
HETATM   42  C   UNL     1      -9.786   4.282  67.476  1.00  0.00    -0.198 A  
HETATM   43  C   UNL     1      -9.718   4.137  69.878  1.00  0.00    -0.280 A  
HETATM   44  C   UNL     1     -10.239   5.601  67.563  1.00  0.00    -0.246 A  
HETATM   45  C   UNL     1     -10.160   5.460  69.968  1.00  0.00    -0.324 A  
HETATM   46  C   UNL     1      -9.529   3.549  68.632  1.00  0.00    -0.209 A  
ENDBRANCH  32  41
ENDBRANCH  31  32
ENDBRANCH  18  31
ENDBRANCH   6  10
ENDBRANCH   2   3
TORSDOF 11
ENDMDL
MODEL      160
REMARK 921   NORMALIZED FREE ENERGY PREDICTED BY IDOCK:   -3.42 KCAL/MOL
REMARK 922        TOTAL FREE ENERGY PREDICTED BY IDOCK:   -8.67 KCAL/MOL
REMARK 923 INTER-LIGAND FREE ENERGY PREDICTED BY IDOCK:  -10.23 KCAL/MOL
REMARK 924 INTRA-LIGAND FREE ENERGY PREDICTED BY IDOCK:    1.56 KCAL/MOL
REMARK 927      BINDING AFFINITY PREDICTED BY RF-SCORE:    0.00 PKD
ROOT
HETATM    1  C   UNL     1      -9.179  20.691  67.388  1.00  0.00    -0.300 C  
HETATM    2  O   UNL     1      -9.526  19.686  66.430  1.00  0.00    -0.354 OA 
ENDROOT
BRANCH   2   3
HETATM    3  C   UNL     1      -8.875  18.491  66.587  1.00  0.00    -0.294 A  
HETATM    4  C   UNL     1      -9.655  17.381  66.939  1.00  0.00    -0.277 A  
HETATM    5  F   UNL     1     -10.980  17.532  67.111  1.00  0.00    -0.279 F  
HETATM    6  C   UNL     1      -9.078  16.114  67.102  1.00  0.00    -0.218 A  
HETATM    7  C   UNL     1      -7.692  15.973  66.938  1.00  0.00    -0.279 A  
HETATM    8  C   UNL     1      -7.491  18.339  66.446  1.00  0.00    -0.284 A  
HETATM    9  C   UNL     1      -6.907  17.083  66.616  1.00  0.00    -0.279 A  
BRANCH   6  10
HETATM   10  C   UNL     1      -9.914  14.928  67.382  1.00  0.00    -0.223 C  
HETATM   11  C   UNL     1      -9.836  14.131  65.000  1.00  0.00    -0.064 C  
HETATM   12  C   UNL     1     -10.276  14.022  66.446  1.00  0.00    -0.291 C  
HETATM   13  N   UNL     1     -11.043  12.910  66.815  1.00  0.00    -0.273 N  
HETATM   14  C   UNL     1     -11.211  12.544  68.153  1.00  0.00    -0.267 C  
HETATM   15  C   UNL     1     -10.447  14.764  68.768  1.00  0.00    -0.250 C  
HETATM   16  O   UNL     1     -11.541  11.401  68.484  1.00  0.00    -0.271 OA 
HETATM   17  O   UNL     1     -10.390  15.696  69.570  1.00  0.00    -0.237 OA 
HETATM   18  N   UNL     1     -10.981  13.533  69.086  1.00  0.00    -0.216 N  
BRANCH  13  19
HETATM   19  C   UNL     1     -11.597  11.972  65.831  1.00  0.00    -0.300 C  
BRANCH  19  20
HETATM   20  C   UNL     1     -10.653  11.446  64.757  1.00  0.00    -0.377 A  
HETATM   21  F   UNL     1      -9.535   8.703  66.643  1.00  0.00    -0.185 F  
HETATM   22  C   UNL     1      -9.214  10.000  66.385  1.00  0.00    -0.156 C  
HETATM   23  C   UNL     1      -9.681  10.447  65.013  1.00  0.00    -0.362 A  
HETATM   24  F   UNL     1     -11.709  12.809  63.111  1.00  0.00    -0.542 F  
HETATM   25  C   UNL     1      -9.057   9.798  63.918  1.00  0.00    -0.275 A  
HETATM   26  C   UNL     1     -10.863  11.818  63.414  1.00  0.00    -0.388 A  
HETATM   27  F   UNL     1      -7.856  10.073  66.494  1.00  0.00    -0.106 F  
HETATM   28  F   UNL     1      -9.688  10.717  67.434  1.00  0.00    -0.173 F  
HETATM   29  C   UNL     1     -10.211  11.192  62.351  1.00  0.00     0.514 A  
HETATM   30  C   UNL     1      -9.329  10.155  62.600  1.00  0.00    -0.322 A  
ENDBRANCH  19  20
ENDBRANCH  13  19
BRANCH  18  31
HETATM   31  C   UNL     1     -11.347  13.268  70.483  1.00  0.00     0.643 C  
BRANCH  31  32
HETATM   32  C   UNL     1     -12.789  12.706  70.699  1.00  0.00     0.056 C  
BRANCH  32  33
HETATM   33  N   UNL     1     -13.645  13.543  71.583  1.00  0.00    -0.310 NA 
HETATM   34  H   UNL     1     -13.183  13.694  72.480  1.00  0.00     0.000 HD 
BRANCH  33  35
HETATM   35  C   UNL     1     -14.061  14.820  71.010  1.00  0.00    -0.125 C  
BRANCH  35  36
HETATM   36  C   UNL     1     -14.373  15.837  72.118  1.00  0.00    -0.353 C  
BRANCH  36  37
HETATM   37  C   UNL     1     -13.658  15.533  73.435  1.00  0.00    -0.240 C  
HETATM   38  O   UNL     1     -11.318  14.964  73.523  1.00  0.00     0.103 OA 
HETATM   39  C   UNL     1     -12.180  15.816  73.372  1.00  0.00    -0.517 C  
HETATM   40  O   UNL     1     -11.884  17.120  73.184  1.00  0.00    -0.135 OA 
ENDBRANCH  36  37
ENDBRANCH  35  36
ENDBRANCH  33  35
ENDBRANCH  32  33
BRANCH  32  41
HETATM   41  C   UNL     1     -12.783  11.288  71.278  1.00  0.00    -0.510 A  
HETATM   42  C   UNL     1     -11.662   9.146  71.573  1.00  0.00    -0.433 A  
HETATM   43  C   UNL     1     -13.888   9.446  72.440  1.00  0.00    -0.422 A  
HETATM   44  C   UNL     1     -11.666  10.459  71.094  1.00  0.00    -0.387 A  
HETATM   45  C   UNL     1     -13.891  10.763  71.971  1.00  0.00     0.181 A  
HETATM   46  C   UNL     1     -12.773   8.638  72.243  1.00  0.00    -0.450 A  
ENDBRANCH  32  41
ENDBRANCH  31  32
ENDBRANCH  18  31
ENDBRANCH   6  10
ENDBRANCH   2   3
TORSDOF 11
ENDMDL
MODEL      161
REMARK 921   NORMALIZED FREE ENERGY PREDICTED BY IDOCK:   -3.39 KCAL/MOL
REMARK 922        TOTAL FREE ENERGY PREDICTED BY IDOCK:   -8.63 KCAL/MOL
REMARK 923 INTER-LIGAND FREE ENERGY PREDICTED BY IDOCK:   -9.15 KCAL/MOL
REMARK 924 INTRA-LIGAND FREE ENERGY PREDICTED BY IDOCK:    0.51 KCAL/MOL
REMARK 927      BINDING AFFINITY PREDICTED BY RF-SCORE:    0.00 PKD
ROOT
HETATM    1  C   UNL     1      -5.425   4.241  69.347  1.00  0.00    -0.012 C  
HETATM    2  O   UNL     1      -5.138   5.499  68.726  1.00  0.00     0.000 OA 
ENDROOT
BRANCH   2   3
HETATM    3  C   UNL     1      -5.706   6.585  69.338  1.00  0.00    -0.014 A  
HETATM    4  C   UNL     1      -6.126   7.636  68.510  1.00  0.00    -0.032 A  
HETATM    5  F   UNL     1      -5.951   7.539  67.180  1.00  0.00    -0.038 F  
HETATM    6  C   UNL     1      -6.736   8.778  69.045  1.00  0.00    -0.052 A  
HETATM    7  C   UNL     1      -6.897   8.875  70.435  1.00  0.00    -0.049 A  
HETATM    8  C   UNL     1      -5.856   6.703  70.724  1.00  0.00    -0.027 A  
HETATM    9  C   UNL     1      -6.454   7.842  71.266  1.00  0.00    -0.038 A  
BRANCH   6  10
HETATM   10  C   UNL     1      -7.261   9.842  68.164  1.00  0.00    -0.078 C  
HETATM   11  C   UNL     1      -9.210   8.452  67.403  1.00  0.00    -0.163 C  
HETATM   12  C   UNL     1      -8.373   9.715  67.407  1.00  0.00    -0.114 C  
HETATM   13  N   UNL     1      -8.812  10.794  66.628  1.00  0.00    -0.142 N  
HETATM   14  C   UNL     1      -8.316  12.087  66.817  1.00  0.00    -0.135 C  
HETATM   15  C   UNL     1      -6.472  11.107  68.054  1.00  0.00    -0.057 C  
HETATM   16  O   UNL     1      -8.930  13.086  66.435  1.00  0.00    -0.133 OA 
HETATM   17  O   UNL     1      -5.321  11.160  68.488  1.00  0.00    -0.044 OA 
HETATM   18  N   UNL     1      -7.101  12.181  67.462  1.00  0.00    -0.123 N  
BRANCH  13  19
HETATM   19  C   UNL     1      -9.918  10.678  65.670  1.00  0.00    -0.268 C  
BRANCH  19  20
HETATM   20  C   UNL     1     -10.965  11.786  65.673  1.00  0.00    -0.348 A  
HETATM   21  F   UNL     1     -10.834  12.325  69.141  1.00  0.00    -0.244 F  
HETATM   22  C   UNL     1     -11.515  11.594  68.217  1.00  0.00    -0.303 C  
HETATM   23  C   UNL     1     -11.561  12.274  66.862  1.00  0.00    -0.427 A  
HETATM   24  F   UNL     1     -10.756  12.039  63.312  1.00  0.00    -0.402 F  
HETATM   25  C   UNL     1     -12.285  13.492  66.820  1.00  0.00    -0.392 A  
HETATM   26  C   UNL     1     -11.225  12.491  64.482  1.00  0.00    -0.325 A  
HETATM   27  F   UNL     1     -12.768  11.426  68.730  1.00  0.00    -0.039 F  
HETATM   28  F   UNL     1     -10.960  10.356  68.239  1.00  0.00    -0.229 F  
HETATM   29  C   UNL     1     -11.971  13.669  64.453  1.00  0.00    -0.476 A  
HETATM   30  C   UNL     1     -12.476  14.191  65.631  1.00  0.00    -0.490 A  
ENDBRANCH  19  20
ENDBRANCH  13  19
BRANCH  18  31
HETATM   31  C   UNL     1      -6.435  13.489  67.497  1.00  0.00    -0.100 C  
BRANCH  31  32
HETATM   32  C   UNL     1      -6.857  14.421  68.680  1.00  0.00    -0.096 C  
BRANCH  32  33
HETATM   33  N   UNL     1      -8.266  14.244  69.123  1.00  0.00    -0.351 NA 
HETATM   34  H   UNL     1      -8.310  13.596  69.909  1.00  0.00     0.000 HD 
BRANCH  33  35
HETATM   35  C   UNL     1      -8.970  15.480  69.450  1.00  0.00    -0.275 C  
BRANCH  35  36
HETATM   36  C   UNL     1     -10.490  15.254  69.464  1.00  0.00    -0.265 C  
BRANCH  36  37
HETATM   37  C   UNL     1     -11.149  15.669  70.780  1.00  0.00    -0.382 C  
HETATM   38  O   UNL     1     -13.542  15.719  71.056  1.00  0.00    -0.568 OA 
HETATM   39  C   UNL     1     -12.516  15.064  70.960  1.00  0.00    -0.338 C  
HETATM   40  O   UNL     1     -12.505  13.717  71.062  1.00  0.00    -0.354 OA 
ENDBRANCH  36  37
ENDBRANCH  35  36
ENDBRANCH  33  35
ENDBRANCH  32  33
BRANCH  32  41
HETATM   41  C   UNL     1      -6.664  15.905  68.352  1.00  0.00    -0.116 A  
HETATM   42  C   UNL     1      -6.625  17.704  66.712  1.00  0.00    -0.226 A  
HETATM   43  C   UNL     1      -6.039  18.175  68.999  1.00  0.00    -0.227 A  
HETATM   44  C   UNL     1      -6.844  16.363  67.039  1.00  0.00    -0.245 A  
HETATM   45  C   UNL     1      -6.269  16.837  69.331  1.00  0.00    -0.219 A  
HETATM   46  C   UNL     1      -6.219  18.609  67.690  1.00  0.00    -0.191 A  
ENDBRANCH  32  41
ENDBRANCH  31  32
ENDBRANCH  18  31
ENDBRANCH   6  10
ENDBRANCH   2   3
TORSDOF 11
ENDMDL
MODEL      162
REMARK 921   NORMALIZED FREE ENERGY PREDICTED BY IDOCK:   -3.39 KCAL/MOL
REMARK 922        TOTAL FREE ENERGY PREDICTED BY IDOCK:   -8.62 KCAL/MOL
REMARK 923 INTER-LIGAND FREE ENERGY PREDICTED BY IDOCK:   -7.36 KCAL/MOL
REMARK 924 INTRA-LIGAND FREE ENERGY PREDICTED BY IDOCK:   -1.27 KCAL/MOL
REMARK 927      BINDING AFFINITY PREDICTED BY RF-SCORE:    0.00 PKD
ROOT
HETATM    1  C   UNL     1     -10.813   3.483  63.860  1.00  0.00    -0.171 C  
HETATM    2  O   UNL     1      -9.827   3.145  64.841  1.00  0.00    -0.125 OA 
ENDROOT
BRANCH   2   3
HETATM    3  C   UNL     1      -8.911   4.129  65.099  1.00  0.00    -0.130 A  
HETATM    4  C   UNL     1      -9.284   5.125  66.013  1.00  0.00    -0.155 A  
HETATM    5  F   UNL     1     -10.502   5.077  66.580  1.00  0.00    -0.232 F  
HETATM    6  C   UNL     1      -8.403   6.160  66.353  1.00  0.00    -0.120 A  
HETATM    7  C   UNL     1      -7.142   6.209  65.741  1.00  0.00    -0.073 A  
HETATM    8  C   UNL     1      -7.657   4.201  64.481  1.00  0.00    -0.076 A  
HETATM    9  C   UNL     1      -6.778   5.234  64.807  1.00  0.00    -0.048 A  
BRANCH   6  10
HETATM   10  C   UNL     1      -8.763   7.156  67.384  1.00  0.00    -0.120 C  
HETATM   11  C   UNL     1      -7.653   5.861  69.229  1.00  0.00    -0.089 C  
HETATM   12  C   UNL     1      -8.442   7.038  68.692  1.00  0.00    -0.121 C  
HETATM   13  N   UNL     1      -8.797   8.052  69.590  1.00  0.00    -0.140 N  
HETATM   14  C   UNL     1      -9.217   9.310  69.149  1.00  0.00    -0.149 C  
HETATM   15  C   UNL     1      -9.593   8.326  66.964  1.00  0.00    -0.191 C  
HETATM   16  O   UNL     1      -9.169  10.308  69.874  1.00  0.00    -0.150 OA 
HETATM   17  O   UNL     1     -10.148   8.329  65.865  1.00  0.00     0.084 OA 
HETATM   18  N   UNL     1      -9.684   9.374  67.853  1.00  0.00    -0.148 N  
BRANCH  13  19
HETATM   19  C   UNL     1      -8.616   7.922  71.041  1.00  0.00    -0.131 C  
BRANCH  19  20
HETATM   20  C   UNL     1      -9.118   6.640  71.696  1.00  0.00    -0.142 A  
HETATM   21  F   UNL     1     -12.046   6.435  69.766  1.00  0.00    -0.445 F  
HETATM   22  C   UNL     1     -11.601   6.943  70.948  1.00  0.00    -0.337 C  
HETATM   23  C   UNL     1     -10.436   6.152  71.514  1.00  0.00    -0.268 A  
HETATM   24  F   UNL     1      -6.964   6.229  72.629  1.00  0.00    -0.070 F  
HETATM   25  C   UNL     1     -10.736   4.820  71.895  1.00  0.00    -0.079 A  
HETATM   26  C   UNL     1      -8.202   5.799  72.356  1.00  0.00    -0.107 A  
HETATM   27  F   UNL     1     -12.674   6.915  71.790  1.00  0.00    -0.363 F  
HETATM   28  F   UNL     1     -11.368   8.260  70.723  1.00  0.00    -0.258 F  
HETATM   29  C   UNL     1      -8.526   4.503  72.758  1.00  0.00    -0.113 A  
HETATM   30  C   UNL     1      -9.787   3.998  72.497  1.00  0.00    -0.216 A  
ENDBRANCH  19  20
ENDBRANCH  13  19
BRANCH  18  31
HETATM   31  C   UNL     1     -10.333  10.614  67.411  1.00  0.00    -0.219 C  
BRANCH  31  32
HETATM   32  C   UNL     1      -9.360  11.767  67.001  1.00  0.00    -0.184 C  
BRANCH  32  33
HETATM   33  N   UNL     1      -9.978  12.810  66.138  1.00  0.00    -0.263 NA 
HETATM   34  H   UNL     1     -10.897  12.504  65.820  1.00  0.00     0.000 HD 
BRANCH  33  35
HETATM   35  C   UNL     1     -10.070  14.135  66.743  1.00  0.00    -0.262 C  
BRANCH  35  36
HETATM   36  C   UNL     1      -8.741  14.522  67.410  1.00  0.00    -0.210 C  
BRANCH  36  37
HETATM   37  C   UNL     1      -8.614  16.023  67.675  1.00  0.00    -0.175 C  
HETATM   38  O   UNL     1      -6.696  16.973  68.782  1.00  0.00    -0.172 OA 
HETATM   39  C   UNL     1      -7.181  16.475  67.778  1.00  0.00    -0.139 C  
HETATM   40  O   UNL     1      -6.482  16.329  66.631  1.00  0.00    -0.273 OA 
ENDBRANCH  36  37
ENDBRANCH  35  36
ENDBRANCH  33  35
ENDBRANCH  32  33
BRANCH  32  41
HETATM   41  C   UNL     1      -8.116  11.249  66.271  1.00  0.00    -0.108 A  
HETATM   42  C   UNL     1      -7.133   9.991  64.433  1.00  0.00    -0.135 A  
HETATM   43  C   UNL     1      -5.700  10.927  66.127  1.00  0.00    -0.142 A  
HETATM   44  C   UNL     1      -8.253  10.512  65.086  1.00  0.00    -0.134 A  
HETATM   45  C   UNL     1      -6.818  11.459  66.775  1.00  0.00    -0.132 A  
HETATM   46  C   UNL     1      -5.857  10.194  64.954  1.00  0.00    -0.123 A  
ENDBRANCH  32  41
ENDBRANCH  31  32
ENDBRANCH  18  31
ENDBRANCH   6  10
ENDBRANCH   2   3
TORSDOF 11
ENDMDL
MODEL      163
REMARK 921   NORMALIZED FREE ENERGY PREDICTED BY IDOCK:   -3.32 KCAL/MOL
REMARK 922        TOTAL FREE ENERGY PREDICTED BY IDOCK:   -8.52 KCAL/MOL
REMARK 923 INTER-LIGAND FREE ENERGY PREDICTED BY IDOCK:   -8.61 KCAL/MOL
REMARK 924 INTRA-LIGAND FREE ENERGY PREDICTED BY IDOCK:    0.10 KCAL/MOL
REMARK 927      BINDING AFFINITY PREDICTED BY RF-SCORE:    0.00 PKD
ROOT
HETATM    1  C   UNL     1     -11.556  14.900  71.781  1.00  0.00    -0.275 C  
HETATM    2  O   UNL     1     -12.367  14.207  70.826  1.00  0.00    -0.322 OA 
ENDROOT
BRANCH   2   3
HETATM    3  C   UNL     1     -12.618  12.896  71.130  1.00  0.00    -0.281 A  
HETATM    4  C   UNL     1     -11.795  11.933  70.529  1.00  0.00    -0.159 A  
HETATM    5  F   UNL     1     -10.819  12.328  69.692  1.00  0.00    -0.152 F  
HETATM    6  C   UNL     1     -11.965  10.568  70.796  1.00  0.00    -0.472 A  
HETATM    7  C   UNL     1     -12.998  10.167  71.656  1.00  0.00    -0.561 A  
HETATM    8  C   UNL     1     -13.657  12.480  71.971  1.00  0.00    -0.387 A  
HETATM    9  C   UNL     1     -13.839  11.122  72.234  1.00  0.00     0.363 A  
BRANCH   6  10
HETATM   10  C   UNL     1     -11.039   9.563  70.234  1.00  0.00    -0.317 C  
HETATM   11  C   UNL     1     -10.377   8.696  72.497  1.00  0.00    -0.229 C  
HETATM   12  C   UNL     1     -10.305   8.711  70.984  1.00  0.00    -0.217 C  
HETATM   13  N   UNL     1      -9.479   7.768  70.358  1.00  0.00    -0.164 N  
HETATM   14  C   UNL     1      -9.596   7.477  68.996  1.00  0.00    -0.153 C  
HETATM   15  C   UNL     1     -10.854   9.538  68.751  1.00  0.00    -0.142 C  
HETATM   16  O   UNL     1      -9.172   6.424  68.512  1.00  0.00    -0.126 OA 
HETATM   17  O   UNL     1     -11.269  10.467  68.058  1.00  0.00    -0.289 OA 
HETATM   18  N   UNL     1     -10.218   8.435  68.223  1.00  0.00    -0.200 N  
BRANCH  13  19
HETATM   19  C   UNL     1      -8.544   6.918  71.105  1.00  0.00    -0.131 C  
BRANCH  19  20
HETATM   20  C   UNL     1      -8.856   5.427  71.174  1.00  0.00    -0.146 A  
HETATM   21  F   UNL     1      -5.513   4.399  70.854  1.00  0.00    -0.006 F  
HETATM   22  C   UNL     1      -6.608   4.661  70.090  1.00  0.00    -0.036 C  
HETATM   23  C   UNL     1      -7.905   4.430  70.843  1.00  0.00    -0.067 A  
HETATM   24  F   UNL     1     -11.034   5.884  72.028  1.00  0.00    -0.265 F  
HETATM   25  C   UNL     1      -8.158   3.086  71.218  1.00  0.00    -0.067 A  
HETATM   26  C   UNL     1     -10.063   5.002  71.763  1.00  0.00    -0.200 A  
HETATM   27  F   UNL     1      -6.510   3.835  69.009  1.00  0.00    -0.032 F  
HETATM   28  F   UNL     1      -6.427   5.909  69.593  1.00  0.00    -0.034 F  
HETATM   29  C   UNL     1     -10.310   3.669  72.090  1.00  0.00    -0.107 A  
HETATM   30  C   UNL     1      -9.341   2.711  71.848  1.00  0.00    -0.183 A  
ENDBRANCH  19  20
ENDBRANCH  13  19
BRANCH  18  31
HETATM   31  C   UNL     1     -10.178   8.282  66.764  1.00  0.00    -0.304 C  
BRANCH  31  32
HETATM   32  C   UNL     1      -8.995   9.012  66.049  1.00  0.00    -0.185 C  
BRANCH  32  33
HETATM   33  N   UNL     1      -8.145   9.830  66.957  1.00  0.00    -0.113 NA 
HETATM   34  H   UNL     1      -7.196   9.460  66.980  1.00  0.00     0.000 HD 
BRANCH  33  35
HETATM   35  C   UNL     1      -8.122  11.259  66.659  1.00  0.00    -0.160 C  
BRANCH  35  36
HETATM   36  C   UNL     1      -7.530  12.050  67.836  1.00  0.00    -0.114 C  
BRANCH  36  37
HETATM   37  C   UNL     1      -6.794  13.318  67.400  1.00  0.00    -0.098 C  
HETATM   38  O   UNL     1      -7.962  15.299  66.681  1.00  0.00    -0.164 OA 
HETATM   39  C   UNL     1      -7.618  14.564  67.594  1.00  0.00    -0.182 C  
HETATM   40  O   UNL     1      -7.902  14.832  68.886  1.00  0.00    -0.138 OA 
ENDBRANCH  36  37
ENDBRANCH  35  36
ENDBRANCH  33  35
ENDBRANCH  32  33
BRANCH  32  41
HETATM   41  C   UNL     1      -9.472   9.931  64.920  1.00  0.00    -0.355 A  
HETATM   42  C   UNL     1     -11.009  11.637  64.110  1.00  0.00    -0.442 A  
HETATM   43  C   UNL     1      -9.394  10.685  62.599  1.00  0.00    -0.332 A  
HETATM   44  C   UNL     1     -10.528  10.827  65.142  1.00  0.00    -0.299 A  
HETATM   45  C   UNL     1      -8.904   9.882  63.632  1.00  0.00    -0.256 A  
HETATM   46  C   UNL     1     -10.446  11.565  62.838  1.00  0.00    -0.114 A  
ENDBRANCH  32  41
ENDBRANCH  31  32
ENDBRANCH  18  31
ENDBRANCH   6  10
ENDBRANCH   2   3
TORSDOF 11
ENDMDL
MODEL      164
REMARK 921   NORMALIZED FREE ENERGY PREDICTED BY IDOCK:   -3.32 KCAL/MOL
REMARK 922        TOTAL FREE ENERGY PREDICTED BY IDOCK:   -8.51 KCAL/MOL
REMARK 923 INTER-LIGAND FREE ENERGY PREDICTED BY IDOCK:   -9.37 KCAL/MOL
REMARK 924 INTRA-LIGAND FREE ENERGY PREDICTED BY IDOCK:    0.86 KCAL/MOL
REMARK 927      BINDING AFFINITY PREDICTED BY RF-SCORE:    0.00 PKD
ROOT
HETATM    1  C   UNL     1      -6.357  19.994  64.718  1.00  0.00    -0.274 C  
HETATM    2  O   UNL     1      -7.732  19.943  65.112  1.00  0.00    -0.244 OA 
ENDROOT
BRANCH   2   3
HETATM    3  C   UNL     1      -7.953  19.447  66.369  1.00  0.00    -0.307 A  
HETATM    4  C   UNL     1      -8.275  18.086  66.471  1.00  0.00    -0.271 A  
HETATM    5  F   UNL     1      -8.359  17.342  65.353  1.00  0.00     0.137 F  
HETATM    6  C   UNL     1      -8.497  17.487  67.718  1.00  0.00    -0.225 A  
HETATM    7  C   UNL     1      -8.424  18.277  68.874  1.00  0.00    -0.159 A  
HETATM    8  C   UNL     1      -7.902  20.227  67.530  1.00  0.00    -0.340 A  
HETATM    9  C   UNL     1      -8.132  19.640  68.775  1.00  0.00    -0.301 A  
BRANCH   6  10
HETATM   10  C   UNL     1      -8.746  16.034  67.829  1.00  0.00    -0.170 C  
HETATM   11  C   UNL     1      -6.333  15.446  67.449  1.00  0.00    -0.070 C  
HETATM   12  C   UNL     1      -7.784  15.092  67.704  1.00  0.00    -0.167 C  
HETATM   13  N   UNL     1      -8.111  13.740  67.860  1.00  0.00    -0.151 N  
HETATM   14  C   UNL     1      -9.326  13.337  68.420  1.00  0.00    -0.157 C  
HETATM   15  C   UNL     1     -10.157  15.581  68.021  1.00  0.00    -0.223 C  
HETATM   16  O   UNL     1      -9.482  12.214  68.910  1.00  0.00    -0.008 OA 
HETATM   17  O   UNL     1     -11.089  16.368  67.853  1.00  0.00    -0.326 OA 
HETATM   18  N   UNL     1     -10.342  14.269  68.400  1.00  0.00    -0.241 N  
BRANCH  13  19
HETATM   19  C   UNL     1      -7.154  12.660  67.589  1.00  0.00    -0.139 C  
BRANCH  19  20
HETATM   20  C   UNL     1      -6.714  11.802  68.770  1.00  0.00    -0.083 A  
HETATM   21  F   UNL     1      -6.182   8.901  66.863  1.00  0.00    -0.054 F  
HETATM   22  C   UNL     1      -7.155   9.517  67.588  1.00  0.00    -0.081 C  
HETATM   23  C   UNL     1      -6.588  10.393  68.689  1.00  0.00    -0.052 A  
HETATM   24  F   UNL     1      -6.390  13.748  70.108  1.00  0.00    -0.137 F  
HETATM   25  C   UNL     1      -5.892   9.704  69.714  1.00  0.00    -0.036 A  
HETATM   26  C   UNL     1      -6.231  12.430  69.935  1.00  0.00    -0.102 A  
HETATM   27  F   UNL     1      -7.925   8.515  68.101  1.00  0.00    -0.104 F  
HETATM   28  F   UNL     1      -7.953  10.143  66.686  1.00  0.00    -0.110 F  
HETATM   29  C   UNL     1      -5.581  11.730  70.951  1.00  0.00    -0.067 A  
HETATM   30  C   UNL     1      -5.380  10.366  70.826  1.00  0.00    -0.079 A  
ENDBRANCH  19  20
ENDBRANCH  13  19
BRANCH  18  31
HETATM   31  C   UNL     1     -11.692  13.832  68.776  1.00  0.00    -0.356 C  
BRANCH  31  32
HETATM   32  C   UNL     1     -12.256  12.627  67.956  1.00  0.00     0.119 C  
BRANCH  32  33
HETATM   33  N   UNL     1     -11.871  11.292  68.491  1.00  0.00    -0.516 NA 
HETATM   34  H   UNL     1     -10.909  11.312  68.828  1.00  0.00     0.000 HD 
BRANCH  33  35
HETATM   35  C   UNL     1     -12.756  10.763  69.525  1.00  0.00     0.295 C  
BRANCH  35  36
HETATM   36  C   UNL     1     -12.439  11.397  70.888  1.00  0.00    -0.478 C  
BRANCH  36  37
HETATM   37  C   UNL     1     -12.490  12.925  70.870  1.00  0.00    -0.383 C  
HETATM   38  O   UNL     1     -14.384  14.156  71.710  1.00  0.00    -0.447 OA 
HETATM   39  C   UNL     1     -13.387  13.489  71.940  1.00  0.00    -0.443 C  
HETATM   40  O   UNL     1     -12.960  13.236  73.196  1.00  0.00    -0.088 OA 
ENDBRANCH  36  37
ENDBRANCH  35  36
ENDBRANCH  33  35
ENDBRANCH  32  33
BRANCH  32  41
HETATM   41  C   UNL     1     -11.830  12.670  66.486  1.00  0.00    -0.463 A  
HETATM   42  C   UNL     1     -10.511  11.753  64.655  1.00  0.00    -0.347 A  
HETATM   43  C   UNL     1     -11.820  13.742  64.292  1.00  0.00    -0.451 A  
HETATM   44  C   UNL     1     -10.949  11.701  65.981  1.00  0.00    -0.338 A  
HETATM   45  C   UNL     1     -12.268  13.685  65.615  1.00  0.00    -0.490 A  
HETATM   46  C   UNL     1     -10.943  12.774  63.811  1.00  0.00    -0.445 A  
ENDBRANCH  32  41
ENDBRANCH  31  32
ENDBRANCH  18  31
ENDBRANCH   6  10
ENDBRANCH   2   3
TORSDOF 11
ENDMDL
MODEL      165
REMARK 921   NORMALIZED FREE ENERGY PREDICTED BY IDOCK:   -3.29 KCAL/MOL
REMARK 922        TOTAL FREE ENERGY PREDICTED BY IDOCK:   -8.46 KCAL/MOL
REMARK 923 INTER-LIGAND FREE ENERGY PREDICTED BY IDOCK:   -6.69 KCAL/MOL
REMARK 924 INTRA-LIGAND FREE ENERGY PREDICTED BY IDOCK:   -1.77 KCAL/MOL
REMARK 927      BINDING AFFINITY PREDICTED BY RF-SCORE:    0.00 PKD
ROOT
HETATM    1  C   UNL     1     -11.449  12.860  64.032  1.00  0.00    -0.422 C  
HETATM    2  O   UNL     1     -11.388  11.437  63.892  1.00  0.00    -0.370 OA 
ENDROOT
BRANCH   2   3
HETATM    3  C   UNL     1     -10.122  10.915  63.873  1.00  0.00    -0.361 A  
HETATM    4  C   UNL     1      -9.807   9.967  64.857  1.00  0.00    -0.281 A  
HETATM    5  F   UNL     1     -10.739   9.623  65.764  1.00  0.00    -0.162 F  
HETATM    6  C   UNL     1      -8.543   9.365  64.902  1.00  0.00    -0.198 A  
HETATM    7  C   UNL     1      -7.574   9.746  63.963  1.00  0.00    -0.134 A  
HETATM    8  C   UNL     1      -9.140  11.300  62.953  1.00  0.00    -0.299 A  
HETATM    9  C   UNL     1      -7.875  10.711  62.998  1.00  0.00    -0.029 A  
BRANCH   6  10
HETATM   10  C   UNL     1      -8.244   8.300  65.883  1.00  0.00    -0.119 C  
HETATM   11  C   UNL     1      -8.536   6.463  64.194  1.00  0.00     0.204 C  
HETATM   12  C   UNL     1      -8.242   6.981  65.587  1.00  0.00    -0.134 C  
HETATM   13  N   UNL     1      -7.911   6.047  66.577  1.00  0.00    -0.103 N  
HETATM   14  C   UNL     1      -7.307   6.430  67.777  1.00  0.00    -0.088 C  
HETATM   15  C   UNL     1      -7.998   8.707  67.300  1.00  0.00    -0.101 C  
HETATM   16  O   UNL     1      -6.675   5.633  68.477  1.00  0.00    -0.053 OA 
HETATM   17  O   UNL     1      -8.271   9.848  67.674  1.00  0.00    -0.113 OA 
HETATM   18  N   UNL     1      -7.452   7.755  68.133  1.00  0.00    -0.105 N  
BRANCH  13  19
HETATM   19  C   UNL     1      -8.036   4.599  66.369  1.00  0.00    -0.103 C  
BRANCH  19  20
HETATM   20  C   UNL     1      -7.258   3.989  65.209  1.00  0.00    -0.068 A  
HETATM   21  F   UNL     1     -10.067   3.564  63.145  1.00  0.00    -0.124 F  
HETATM   22  C   UNL     1      -9.336   2.891  64.075  1.00  0.00    -0.118 C  
HETATM   23  C   UNL     1      -7.891   3.348  64.115  1.00  0.00    -0.081 A  
HETATM   24  F   UNL     1      -5.201   4.754  66.139  1.00  0.00    -0.007 F  
HETATM   25  C   UNL     1      -7.137   3.082  62.944  1.00  0.00    -0.040 A  
HETATM   26  C   UNL     1      -5.873   4.224  65.110  1.00  0.00    -0.022 A  
HETATM   27  F   UNL     1      -9.429   1.573  63.735  1.00  0.00    -0.095 F  
HETATM   28  F   UNL     1     -10.024   3.000  65.239  1.00  0.00    -0.079 F  
HETATM   29  C   UNL     1      -5.139   3.920  63.962  1.00  0.00    -0.008 A  
HETATM   30  C   UNL     1      -5.780   3.378  62.862  1.00  0.00    -0.013 A  
ENDBRANCH  19  20
ENDBRANCH  13  19
BRANCH  18  31
HETATM   31  C   UNL     1      -7.026   8.162  69.477  1.00  0.00    -0.050 C  
BRANCH  31  32
HETATM   32  C   UNL     1      -8.016   7.797  70.631  1.00  0.00    -0.098 C  
BRANCH  32  33
HETATM   33  N   UNL     1      -8.533   8.972  71.385  1.00  0.00    -0.322 NA 
HETATM   34  H   UNL     1      -8.230   9.838  70.940  1.00  0.00     0.000 HD 
BRANCH  33  35
HETATM   35  C   UNL     1      -9.978   8.988  71.587  1.00  0.00    -0.313 C  
BRANCH  35  36
HETATM   36  C   UNL     1     -10.710   9.235  70.259  1.00  0.00    -0.284 C  
BRANCH  36  37
HETATM   37  C   UNL     1     -11.935  10.139  70.405  1.00  0.00    -0.353 C  
HETATM   38  O   UNL     1     -11.848  12.503  69.944  1.00  0.00    -0.325 OA 
HETATM   39  C   UNL     1     -11.866  11.357  69.521  1.00  0.00    -0.357 C  
HETATM   40  O   UNL     1     -11.880  11.072  68.201  1.00  0.00    -0.573 OA 
ENDBRANCH  36  37
ENDBRANCH  35  36
ENDBRANCH  33  35
ENDBRANCH  32  33
BRANCH  32  41
HETATM   41  C   UNL     1      -7.398   6.835  71.650  1.00  0.00    -0.085 A  
HETATM   42  C   UNL     1      -5.469   5.587  72.455  1.00  0.00    -0.018 A  
HETATM   43  C   UNL     1      -7.597   5.313  73.548  1.00  0.00    -0.096 A  
HETATM   44  C   UNL     1      -6.038   6.500  71.564  1.00  0.00    -0.037 A  
HETATM   45  C   UNL     1      -8.166   6.235  72.666  1.00  0.00    -0.106 A  
HETATM   46  C   UNL     1      -6.247   4.990  73.445  1.00  0.00    -0.046 A  
ENDBRANCH  32  41
ENDBRANCH  31  32
ENDBRANCH  18  31
ENDBRANCH   6  10
ENDBRANCH   2   3
TORSDOF 11
ENDMDL
MODEL      166
REMARK 921   NORMALIZED FREE ENERGY PREDICTED BY IDOCK:   -3.28 KCAL/MOL
REMARK 922        TOTAL FREE ENERGY PREDICTED BY IDOCK:   -8.45 KCAL/MOL
REMARK 923 INTER-LIGAND FREE ENERGY PREDICTED BY IDOCK:   -8.15 KCAL/MOL
REMARK 924 INTRA-LIGAND FREE ENERGY PREDICTED BY IDOCK:   -0.30 KCAL/MOL
REMARK 927      BINDING AFFINITY PREDICTED BY RF-SCORE:    0.00 PKD
ROOT
HETATM    1  C   UNL     1     -13.078   6.174  72.365  1.00  0.00     0.501 C  
HETATM    2  O   UNL     1     -13.572   7.016  71.318  1.00  0.00    -0.319 OA 
ENDROOT
BRANCH   2   3
HETATM    3  C   UNL     1     -13.050   8.282  71.304  1.00  0.00    -0.137 A  
HETATM    4  C   UNL     1     -11.888   8.485  70.546  1.00  0.00    -0.014 A  
HETATM    5  F   UNL     1     -11.342   7.448  69.885  1.00  0.00    -0.263 F  
HETATM    6  C   UNL     1     -11.295   9.751  70.457  1.00  0.00    -0.382 A  
HETATM    7  C   UNL     1     -11.863  10.819  71.166  1.00  0.00    -0.277 A  
HETATM    8  C   UNL     1     -13.595   9.353  72.022  1.00  0.00    -0.505 A  
HETATM    9  C   UNL     1     -13.005  10.615  71.946  1.00  0.00    -0.542 A  
BRANCH   6  10
HETATM   10  C   UNL     1     -10.124   9.982  69.585  1.00  0.00    -0.263 C  
HETATM   11  C   UNL     1     -11.072  12.103  68.630  1.00  0.00    -0.297 C  
HETATM   12  C   UNL     1     -10.005  11.034  68.745  1.00  0.00    -0.207 C  
HETATM   13  N   UNL     1      -8.840  11.187  67.982  1.00  0.00    -0.137 N  
HETATM   14  C   UNL     1      -7.679  10.459  68.259  1.00  0.00    -0.096 C  
HETATM   15  C   UNL     1      -9.042   8.950  69.583  1.00  0.00    -0.151 C  
HETATM   16  O   UNL     1      -6.567  10.830  67.874  1.00  0.00    -0.062 OA 
HETATM   17  O   UNL     1      -9.234   7.850  70.101  1.00  0.00    -0.152 OA 
HETATM   18  N   UNL     1      -7.848   9.304  68.992  1.00  0.00    -0.081 N  
BRANCH  13  19
HETATM   19  C   UNL     1      -8.706  12.215  66.943  1.00  0.00    -0.194 C  
BRANCH  19  20
HETATM   20  C   UNL     1      -9.828  12.323  65.917  1.00  0.00    -0.266 A  
HETATM   21  F   UNL     1      -9.597  15.811  65.575  1.00  0.00    -0.347 F  
HETATM   22  C   UNL     1     -10.260  14.869  66.299  1.00  0.00    -0.294 C  
HETATM   23  C   UNL     1     -10.409  13.561  65.545  1.00  0.00    -0.309 A  
HETATM   24  F   UNL     1      -9.732   9.976  65.510  1.00  0.00    -0.258 F  
HETATM   25  C   UNL     1     -11.219  13.619  64.383  1.00  0.00    -0.382 A  
HETATM   26  C   UNL     1     -10.184  11.187  65.164  1.00  0.00    -0.289 A  
HETATM   27  F   UNL     1     -11.477  15.414  66.588  1.00  0.00    -0.292 F  
HETATM   28  F   UNL     1      -9.619  14.794  67.492  1.00  0.00    -0.201 F  
HETATM   29  C   UNL     1     -11.013  11.258  64.044  1.00  0.00    -0.377 A  
HETATM   30  C   UNL     1     -11.506  12.483  63.631  1.00  0.00    -0.568 A  
ENDBRANCH  19  20
ENDBRANCH  13  19
BRANCH  18  31
HETATM   31  C   UNL     1      -6.704   8.395  69.129  1.00  0.00    -0.047 C  
BRANCH  31  32
HETATM   32  C   UNL     1      -6.666   7.213  68.107  1.00  0.00    -0.061 C  
BRANCH  32  33
HETATM   33  N   UNL     1      -7.895   7.082  67.279  1.00  0.00    -0.109 NA 
HETATM   34  H   UNL     1      -8.611   7.731  67.606  1.00  0.00     0.000 HD 
BRANCH  33  35
HETATM   35  C   UNL     1      -7.691   7.241  65.842  1.00  0.00    -0.097 C  
BRANCH  35  36
HETATM   36  C   UNL     1      -6.246   7.665  65.542  1.00  0.00    -0.038 C  
BRANCH  36  37
HETATM   37  C   UNL     1      -6.076   8.289  64.156  1.00  0.00    -0.066 C  
HETATM   38  O   UNL     1      -7.362  10.197  63.440  1.00  0.00    -0.140 OA 
HETATM   39  C   UNL     1      -6.456   9.746  64.124  1.00  0.00    -0.119 C  
HETATM   40  O   UNL     1      -5.664  10.531  64.886  1.00  0.00    -0.133 OA 
ENDBRANCH  36  37
ENDBRANCH  35  36
ENDBRANCH  33  35
ENDBRANCH  32  33
BRANCH  32  41
HETATM   41  C   UNL     1      -6.427   5.861  68.786  1.00  0.00    -0.049 A  
HETATM   42  C   UNL     1      -5.704   4.589  70.733  1.00  0.00    -0.016 A  
HETATM   43  C   UNL     1      -6.331   3.422  68.722  1.00  0.00    -0.029 A  
HETATM   44  C   UNL     1      -5.974   5.812  70.113  1.00  0.00    -0.025 A  
HETATM   45  C   UNL     1      -6.613   4.643  68.104  1.00  0.00    -0.042 A  
HETATM   46  C   UNL     1      -5.879   3.394  70.038  1.00  0.00    -0.018 A  
ENDBRANCH  32  41
ENDBRANCH  31  32
ENDBRANCH  18  31
ENDBRANCH   6  10
ENDBRANCH   2   3
TORSDOF 11
ENDMDL
MODEL      167
REMARK 921   NORMALIZED FREE ENERGY PREDICTED BY IDOCK:   -3.25 KCAL/MOL
REMARK 922        TOTAL FREE ENERGY PREDICTED BY IDOCK:   -8.40 KCAL/MOL
REMARK 923 INTER-LIGAND FREE ENERGY PREDICTED BY IDOCK:  -10.49 KCAL/MOL
REMARK 924 INTRA-LIGAND FREE ENERGY PREDICTED BY IDOCK:    2.09 KCAL/MOL
REMARK 927      BINDING AFFINITY PREDICTED BY RF-SCORE:    0.00 PKD
ROOT
HETATM    1  C   UNL     1     -11.511  15.457  71.927  1.00  0.00    -0.433 C  
HETATM    2  O   UNL     1     -12.668  14.907  71.288  1.00  0.00    -0.297 OA 
ENDROOT
BRANCH   2   3
HETATM    3  C   UNL     1     -12.765  13.543  71.351  1.00  0.00    -0.336 A  
HETATM    4  C   UNL     1     -11.973  12.805  70.460  1.00  0.00    -0.191 A  
HETATM    5  F   UNL     1     -11.172  13.453  69.596  1.00  0.00    -0.275 F  
HETATM    6  C   UNL     1     -11.992  11.403  70.466  1.00  0.00    -0.451 A  
HETATM    7  C   UNL     1     -12.845  10.739  71.360  1.00  0.00    -0.557 A  
HETATM    8  C   UNL     1     -13.626  12.867  72.224  1.00  0.00    -0.611 A  
HETATM    9  C   UNL     1     -13.658  11.472  72.229  1.00  0.00     0.030 A  
BRANCH   6  10
HETATM   10  C   UNL     1     -11.088  10.628  69.591  1.00  0.00    -0.342 C  
HETATM   11  C   UNL     1     -10.127   9.315  71.505  1.00  0.00    -0.306 C  
HETATM   12  C   UNL     1     -10.231   9.683  70.039  1.00  0.00    -0.255 C  
HETATM   13  N   UNL     1      -9.438   8.975  69.128  1.00  0.00    -0.152 N  
HETATM   14  C   UNL     1      -9.697   8.999  67.754  1.00  0.00    -0.156 C  
HETATM   15  C   UNL     1     -11.075  10.959  68.134  1.00  0.00    -0.280 C  
HETATM   16  O   UNL     1      -9.280   8.120  66.994  1.00  0.00    -0.141 OA 
HETATM   17  O   UNL     1     -11.613  11.990  67.727  1.00  0.00    -0.310 OA 
HETATM   18  N   UNL     1     -10.451  10.059  67.298  1.00  0.00    -0.241 N  
BRANCH  13  19
HETATM   19  C   UNL     1      -8.382   8.049  69.553  1.00  0.00    -0.127 C  
BRANCH  19  20
HETATM   20  C   UNL     1      -8.608   6.564  69.294  1.00  0.00    -0.127 A  
HETATM   21  F   UNL     1      -5.233   5.849  68.636  1.00  0.00    -0.005 F  
HETATM   22  C   UNL     1      -6.376   6.203  67.989  1.00  0.00    -0.036 C  
HETATM   23  C   UNL     1      -7.621   5.728  68.714  1.00  0.00    -0.089 A  
HETATM   24  F   UNL     1     -10.764   6.679  70.304  1.00  0.00    -0.227 F  
HETATM   25  C   UNL     1      -7.782   4.322  68.785  1.00  0.00    -0.066 A  
HETATM   26  C   UNL     1      -9.760   5.942  69.814  1.00  0.00    -0.160 A  
HETATM   27  F   UNL     1      -6.286   5.647  66.746  1.00  0.00    -0.029 F  
HETATM   28  F   UNL     1      -6.287   7.541  67.780  1.00  0.00    -0.044 F  
HETATM   29  C   UNL     1      -9.918   4.556  69.840  1.00  0.00    -0.273 A  
HETATM   30  C   UNL     1      -8.911   3.740  69.355  1.00  0.00    -0.175 A  
ENDBRANCH  19  20
ENDBRANCH  13  19
BRANCH  18  31
HETATM   31  C   UNL     1     -10.572  10.250  65.847  1.00  0.00    -0.013 C  
BRANCH  31  32
HETATM   32  C   UNL     1      -9.713  11.414  65.254  1.00  0.00    -0.241 C  
BRANCH  32  33
HETATM   33  N   UNL     1      -8.621  11.883  66.149  1.00  0.00    -0.390 NA 
HETATM   34  H   UNL     1      -7.745  11.949  65.631  1.00  0.00     0.000 HD 
BRANCH  33  35
HETATM   35  C   UNL     1      -8.890  13.138  66.844  1.00  0.00    -0.179 C  
BRANCH  35  36
HETATM   36  C   UNL     1      -7.625  13.651  67.550  1.00  0.00    -0.180 C  
BRANCH  36  37
HETATM   37  C   UNL     1      -7.371  15.142  67.323  1.00  0.00    -0.216 C  
HETATM   38  O   UNL     1      -8.634  16.847  68.466  1.00  0.00    -0.233 OA 
HETATM   39  C   UNL     1      -7.770  15.985  68.506  1.00  0.00    -0.158 C  
HETATM   40  O   UNL     1      -7.044  15.740  69.618  1.00  0.00    -0.200 OA 
ENDBRANCH  36  37
ENDBRANCH  35  36
ENDBRANCH  33  35
ENDBRANCH  32  33
BRANCH  32  41
HETATM   41  C   UNL     1     -10.560  12.636  64.886  1.00  0.00    -0.332 A  
HETATM   42  C   UNL     1     -10.812  15.055  64.765  1.00  0.00    -0.375 A  
HETATM   43  C   UNL     1     -12.658  13.640  64.144  1.00  0.00    -0.169 A  
HETATM   44  C   UNL     1     -10.037  13.928  65.049  1.00  0.00    -0.319 A  
HETATM   45  C   UNL     1     -11.881  12.511  64.416  1.00  0.00    -0.455 A  
HETATM   46  C   UNL     1     -12.123  14.913  64.316  1.00  0.00    -0.373 A  
ENDBRANCH  32  41
ENDBRANCH  31  32
ENDBRANCH  18  31
ENDBRANCH   6  10
ENDBRANCH   2   3
TORSDOF 11
ENDMDL
MODEL      168
REMARK 921   NORMALIZED FREE ENERGY PREDICTED BY IDOCK:   -3.25 KCAL/MOL
REMARK 922        TOTAL FREE ENERGY PREDICTED BY IDOCK:   -8.40 KCAL/MOL
REMARK 923 INTER-LIGAND FREE ENERGY PREDICTED BY IDOCK:   -7.49 KCAL/MOL
REMARK 924 INTRA-LIGAND FREE ENERGY PREDICTED BY IDOCK:   -0.91 KCAL/MOL
REMARK 927      BINDING AFFINITY PREDICTED BY RF-SCORE:    0.00 PKD
ROOT
HETATM    1  C   UNL     1      -5.878  18.572  69.725  1.00  0.00    -0.254 C  
HETATM    2  O   UNL     1      -5.312  17.592  68.849  1.00  0.00    -0.151 OA 
ENDROOT
BRANCH   2   3
HETATM    3  C   UNL     1      -6.215  16.947  68.047  1.00  0.00    -0.136 A  
HETATM    4  C   UNL     1      -6.419  15.580  68.285  1.00  0.00    -0.118 A  
HETATM    5  F   UNL     1      -5.729  14.971  69.266  1.00  0.00    -0.093 F  
HETATM    6  C   UNL     1      -7.339  14.843  67.527  1.00  0.00    -0.229 A  
HETATM    7  C   UNL     1      -8.039  15.485  66.496  1.00  0.00    -0.099 A  
HETATM    8  C   UNL     1      -6.906  17.570  67.002  1.00  0.00    -0.208 A  
HETATM    9  C   UNL     1      -7.817  16.841  66.236  1.00  0.00    -0.334 A  
BRANCH   6  10
HETATM   10  C   UNL     1      -7.619  13.426  67.841  1.00  0.00    -0.151 C  
HETATM   11  C   UNL     1      -5.445  12.630  66.866  1.00  0.00     0.409 C  
HETATM   12  C   UNL     1      -6.781  12.408  67.545  1.00  0.00    -0.146 C  
HETATM   13  N   UNL     1      -7.118  11.100  67.913  1.00  0.00    -0.079 N  
HETATM   14  C   UNL     1      -8.144  10.834  68.824  1.00  0.00    -0.143 C  
HETATM   15  C   UNL     1      -8.939  13.097  68.459  1.00  0.00    -0.048 C  
HETATM   16  O   UNL     1      -8.212   9.768  69.442  1.00  0.00    -0.110 OA 
HETATM   17  O   UNL     1      -9.840  13.936  68.482  1.00  0.00    -0.226 OA 
HETATM   18  N   UNL     1      -9.076  11.836  68.997  1.00  0.00     0.146 N  
BRANCH  13  19
HETATM   19  C   UNL     1      -6.333   9.933  67.492  1.00  0.00    -0.063 C  
BRANCH  19  20
HETATM   20  C   UNL     1      -7.102   8.676  67.104  1.00  0.00    -0.075 A  
HETATM   21  F   UNL     1      -7.556   9.613  63.750  1.00  0.00    -0.109 F  
HETATM   22  C   UNL     1      -8.177   9.701  64.958  1.00  0.00    -0.136 C  
HETATM   23  C   UNL     1      -7.808   8.555  65.881  1.00  0.00    -0.099 A  
HETATM   24  F   UNL     1      -6.377   7.576  69.091  1.00  0.00    -0.032 F  
HETATM   25  C   UNL     1      -8.235   7.272  65.457  1.00  0.00    -0.139 A  
HETATM   26  C   UNL     1      -6.964   7.514  67.889  1.00  0.00    -0.076 A  
HETATM   27  F   UNL     1      -9.514   9.706  64.687  1.00  0.00    -0.301 F  
HETATM   28  F   UNL     1      -7.911  10.947  65.425  1.00  0.00    -0.142 F  
HETATM   29  C   UNL     1      -7.425   6.266  67.472  1.00  0.00    -0.088 A  
HETATM   30  C   UNL     1      -8.033   6.136  66.236  1.00  0.00    -0.106 A  
ENDBRANCH  19  20
ENDBRANCH  13  19
BRANCH  18  31
HETATM   31  C   UNL     1     -10.284  11.533  69.773  1.00  0.00     0.730 C  
BRANCH  31  32
HETATM   32  C   UNL     1     -11.005  10.199  69.390  1.00  0.00    -0.245 C  
BRANCH  32  33
HETATM   33  N   UNL     1     -11.784  10.269  68.124  1.00  0.00    -0.714 NA 
HETATM   34  H   UNL     1     -12.672   9.779  68.229  1.00  0.00     0.000 HD 
BRANCH  33  35
HETATM   35  C   UNL     1     -12.010  11.617  67.612  1.00  0.00    -0.012 C  
BRANCH  35  36
HETATM   36  C   UNL     1     -11.487  11.747  66.173  1.00  0.00    -0.288 C  
BRANCH  36  37
HETATM   37  C   UNL     1     -12.186  12.848  65.375  1.00  0.00    -0.528 C  
HETATM   38  O   UNL     1     -11.303  15.085  65.227  1.00  0.00    -0.352 OA 
HETATM   39  C   UNL     1     -11.234  13.912  64.895  1.00  0.00    -0.356 C  
HETATM   40  O   UNL     1     -10.316  13.461  64.013  1.00  0.00    -0.336 OA 
ENDBRANCH  36  37
ENDBRANCH  35  36
ENDBRANCH  33  35
ENDBRANCH  32  33
BRANCH  32  41
HETATM   41  C   UNL     1     -11.959   9.714  70.487  1.00  0.00    -0.241 A  
HETATM   42  C   UNL     1     -13.655  10.210  72.162  1.00  0.00    -0.295 A  
HETATM   43  C   UNL     1     -12.817   7.962  71.955  1.00  0.00    -0.331 A  
HETATM   44  C   UNL     1     -12.814  10.625  71.126  1.00  0.00    -0.518 A  
HETATM   45  C   UNL     1     -11.983   8.372  70.910  1.00  0.00    -0.194 A  
HETATM   46  C   UNL     1     -13.655   8.881  72.579  1.00  0.00    -0.467 A  
ENDBRANCH  32  41
ENDBRANCH  31  32
ENDBRANCH  18  31
ENDBRANCH   6  10
ENDBRANCH   2   3
TORSDOF 11
ENDMDL
MODEL      169
REMARK 921   NORMALIZED FREE ENERGY PREDICTED BY IDOCK:   -3.23 KCAL/MOL
REMARK 922        TOTAL FREE ENERGY PREDICTED BY IDOCK:   -8.37 KCAL/MOL
REMARK 923 INTER-LIGAND FREE ENERGY PREDICTED BY IDOCK:   -6.50 KCAL/MOL
REMARK 924 INTRA-LIGAND FREE ENERGY PREDICTED BY IDOCK:   -1.87 KCAL/MOL
REMARK 927      BINDING AFFINITY PREDICTED BY RF-SCORE:    0.00 PKD
ROOT
HETATM    1  C   UNL     1      -5.760  18.321  65.090  1.00  0.00    -0.141 C  
HETATM    2  O   UNL     1      -6.944  18.378  65.892  1.00  0.00    -0.254 OA 
ENDROOT
BRANCH   2   3
HETATM    3  C   UNL     1      -6.846  17.754  67.107  1.00  0.00    -0.171 A  
HETATM    4  C   UNL     1      -7.272  16.419  67.175  1.00  0.00    -0.198 A  
HETATM    5  F   UNL     1      -7.754  15.823  66.070  1.00  0.00    -0.034 F  
HETATM    6  C   UNL     1      -7.190  15.695  68.371  1.00  0.00    -0.115 A  
HETATM    7  C   UNL     1      -6.702  16.333  69.521  1.00  0.00    -0.198 A  
HETATM    8  C   UNL     1      -6.380  18.384  68.266  1.00  0.00    -0.194 A  
HETATM    9  C   UNL     1      -6.304  17.672  69.464  1.00  0.00    -0.223 A  
BRANCH   6  10
HETATM   10  C   UNL     1      -7.552  14.262  68.418  1.00  0.00    -0.124 C  
HETATM   11  C   UNL     1      -5.156  13.510  68.479  1.00  0.00    -0.081 C  
HETATM   12  C   UNL     1      -6.650  13.257  68.460  1.00  0.00    -0.089 C  
HETATM   13  N   UNL     1      -7.090  11.930  68.538  1.00  0.00    -0.083 N  
HETATM   14  C   UNL     1      -8.412  11.612  68.862  1.00  0.00     0.058 C  
HETATM   15  C   UNL     1      -9.002  13.908  68.344  1.00  0.00    -0.178 C  
HETATM   16  O   UNL     1      -8.730  10.503  69.302  1.00  0.00    -0.163 OA 
HETATM   17  O   UNL     1      -9.832  14.756  68.017  1.00  0.00    -0.212 OA 
HETATM   18  N   UNL     1      -9.341  12.611  68.667  1.00  0.00    -0.054 N  
BRANCH  13  19
HETATM   19  C   UNL     1      -6.175  10.786  68.434  1.00  0.00    -0.049 C  
BRANCH  19  20
HETATM   20  C   UNL     1      -6.004   9.912  69.670  1.00  0.00    -0.041 A  
HETATM   21  F   UNL     1      -5.695   6.906  67.882  1.00  0.00    -0.016 F  
HETATM   22  C   UNL     1      -6.643   7.679  68.478  1.00  0.00    -0.053 C  
HETATM   23  C   UNL     1      -6.081   8.498  69.625  1.00  0.00    -0.032 A  
HETATM   24  F   UNL     1      -5.549  11.831  71.009  1.00  0.00    -0.139 F  
HETATM   25  C   UNL     1      -5.615   7.748  70.735  1.00  0.00    -0.030 A  
HETATM   26  C   UNL     1      -5.570  10.499  70.875  1.00  0.00    -0.092 A  
HETATM   27  F   UNL     1      -7.606   6.816  68.912  1.00  0.00    -0.093 F  
HETATM   28  F   UNL     1      -7.230   8.385  67.480  1.00  0.00    -0.080 F  
HETATM   29  C   UNL     1      -5.151   9.745  71.971  1.00  0.00    -0.076 A  
HETATM   30  C   UNL     1      -5.141   8.363  71.890  1.00  0.00    -0.035 A  
ENDBRANCH  19  20
ENDBRANCH  13  19
BRANCH  18  31
HETATM   31  C   UNL     1     -10.763  12.269  68.785  1.00  0.00    -0.214 C  
BRANCH  31  32
HETATM   32  C   UNL     1     -11.349  11.433  67.601  1.00  0.00    -0.290 C  
BRANCH  32  33
HETATM   33  N   UNL     1     -10.483  10.304  67.165  1.00  0.00    -0.241 NA 
HETATM   34  H   UNL     1      -9.608  10.308  67.689  1.00  0.00     0.000 HD 
BRANCH  33  35
HETATM   35  C   UNL     1     -11.105   8.985  67.236  1.00  0.00     0.376 C  
BRANCH  35  36
HETATM   36  C   UNL     1     -10.216   7.927  66.565  1.00  0.00    -0.212 C  
BRANCH  36  37
HETATM   37  C   UNL     1     -10.900   6.567  66.423  1.00  0.00     0.175 C  
HETATM   38  O   UNL     1     -10.049   4.583  67.494  1.00  0.00    -0.134 OA 
HETATM   39  C   UNL     1     -10.627   5.655  67.590  1.00  0.00    -0.204 C  
HETATM   40  O   UNL     1     -11.131   6.104  68.760  1.00  0.00    -0.344 OA 
ENDBRANCH  36  37
ENDBRANCH  35  36
ENDBRANCH  33  35
ENDBRANCH  32  33
BRANCH  32  41
HETATM   41  C   UNL     1     -11.637  12.291  66.366  1.00  0.00    -0.445 A  
HETATM   42  C   UNL     1     -11.146  12.872  64.052  1.00  0.00    -0.455 A  
HETATM   43  C   UNL     1     -12.780  14.151  65.273  1.00  0.00    -0.425 A  
HETATM   44  C   UNL     1     -10.931  12.067  65.174  1.00  0.00    -0.359 A  
HETATM   45  C   UNL     1     -12.576  13.340  66.393  1.00  0.00    -0.066 A  
HETATM   46  C   UNL     1     -12.067  13.916  64.102  1.00  0.00    -0.464 A  
ENDBRANCH  32  41
ENDBRANCH  31  32
ENDBRANCH  18  31
ENDBRANCH   6  10
ENDBRANCH   2   3
TORSDOF 11
ENDMDL
MODEL      170
REMARK 921   NORMALIZED FREE ENERGY PREDICTED BY IDOCK:   -3.22 KCAL/MOL
REMARK 922        TOTAL FREE ENERGY PREDICTED BY IDOCK:   -8.35 KCAL/MOL
REMARK 923 INTER-LIGAND FREE ENERGY PREDICTED BY IDOCK:   -7.77 KCAL/MOL
REMARK 924 INTRA-LIGAND FREE ENERGY PREDICTED BY IDOCK:   -0.58 KCAL/MOL
REMARK 927      BINDING AFFINITY PREDICTED BY RF-SCORE:    0.00 PKD
ROOT
HETATM    1  C   UNL     1     -13.365   6.097  72.225  1.00  0.00     0.602 C  
HETATM    2  O   UNL     1     -12.837   6.726  71.053  1.00  0.00    -0.290 OA 
ENDROOT
BRANCH   2   3
HETATM    3  C   UNL     1     -12.638   8.077  71.166  1.00  0.00    -0.162 A  
HETATM    4  C   UNL     1     -11.538   8.619  70.487  1.00  0.00    -0.139 A  
HETATM    5  F   UNL     1     -10.737   7.808  69.774  1.00  0.00    -0.232 F  
HETATM    6  C   UNL     1     -11.269   9.994  70.529  1.00  0.00    -0.408 A  
HETATM    7  C   UNL     1     -12.101  10.827  71.290  1.00  0.00    -0.365 A  
HETATM    8  C   UNL     1     -13.449   8.917  71.937  1.00  0.00    -0.464 A  
HETATM    9  C   UNL     1     -13.182  10.286  71.992  1.00  0.00    -0.516 A  
BRANCH   6  10
HETATM   10  C   UNL     1     -10.164  10.576  69.738  1.00  0.00    -0.168 C  
HETATM   11  C   UNL     1     -11.697  12.073  68.427  1.00  0.00    -0.390 C  
HETATM   12  C   UNL     1     -10.334  11.511  68.778  1.00  0.00    -0.196 C  
HETATM   13  N   UNL     1      -9.220  12.029  68.105  1.00  0.00    -0.191 N  
HETATM   14  C   UNL     1      -7.920  11.832  68.577  1.00  0.00    -0.145 C  
HETATM   15  C   UNL     1      -8.787  10.044  69.969  1.00  0.00    -0.080 C  
HETATM   16  O   UNL     1      -6.984  12.565  68.244  1.00  0.00    -0.075 OA 
HETATM   17  O   UNL     1      -8.622   9.007  70.612  1.00  0.00    -0.170 OA 
HETATM   18  N   UNL     1      -7.743  10.773  69.442  1.00  0.00    -0.132 N  
BRANCH  13  19
HETATM   19  C   UNL     1      -9.342  12.930  66.953  1.00  0.00    -0.240 C  
BRANCH  19  20
HETATM   20  C   UNL     1      -9.702  14.384  67.236  1.00  0.00    -0.233 A  
HETATM   21  F   UNL     1     -12.531  14.413  65.156  1.00  0.00    -0.402 F  
HETATM   22  C   UNL     1     -11.198  14.681  65.118  1.00  0.00    -0.374 C  
HETATM   23  C   UNL     1     -10.655  15.101  66.471  1.00  0.00    -0.304 A  
HETATM   24  F   UNL     1      -8.263  14.407  69.137  1.00  0.00    -0.144 F  
HETATM   25  C   UNL     1     -11.158  16.328  66.972  1.00  0.00     0.017 A  
HETATM   26  C   UNL     1      -9.221  14.996  68.410  1.00  0.00    -0.193 A  
HETATM   27  F   UNL     1     -11.047  15.674  64.195  1.00  0.00    -0.278 F  
HETATM   28  F   UNL     1     -10.614  13.592  64.558  1.00  0.00    -0.371 F  
HETATM   29  C   UNL     1      -9.701  16.223  68.869  1.00  0.00    -0.248 A  
HETATM   30  C   UNL     1     -10.697  16.877  68.165  1.00  0.00    -0.375 A  
ENDBRANCH  19  20
ENDBRANCH  13  19
BRANCH  18  31
HETATM   31  C   UNL     1      -6.371  10.391  69.799  1.00  0.00    -0.079 C  
BRANCH  31  32
HETATM   32  C   UNL     1      -5.711   9.326  68.863  1.00  0.00    -0.040 C  
BRANCH  32  33
HETATM   33  N   UNL     1      -6.122   9.430  67.436  1.00  0.00    -0.049 NA 
HETATM   34  H   UNL     1      -7.020   9.908  67.362  1.00  0.00     0.000 HD 
BRANCH  33  35
HETATM   35  C   UNL     1      -5.142  10.060  66.556  1.00  0.00    -0.039 C  
BRANCH  35  36
HETATM   36  C   UNL     1      -5.760  10.361  65.182  1.00  0.00    -0.138 C  
BRANCH  36  37
HETATM   37  C   UNL     1      -7.270  10.124  65.135  1.00  0.00    -0.141 C  
HETATM   38  O   UNL     1      -8.309   8.803  63.408  1.00  0.00    -0.185 OA 
HETATM   39  C   UNL     1      -7.636   8.847  64.426  1.00  0.00    -0.114 C  
HETATM   40  O   UNL     1      -7.195   7.733  65.051  1.00  0.00    -0.061 OA 
ENDBRANCH  36  37
ENDBRANCH  35  36
ENDBRANCH  33  35
ENDBRANCH  32  33
BRANCH  32  41
HETATM   41  C   UNL     1      -5.996   7.891  69.318  1.00  0.00    -0.034 A  
HETATM   42  C   UNL     1      -6.981   5.708  68.880  1.00  0.00    -0.067 A  
HETATM   43  C   UNL     1      -5.957   6.138  71.016  1.00  0.00    -0.030 A  
HETATM   44  C   UNL     1      -6.670   7.005  68.464  1.00  0.00    -0.064 A  
HETATM   45  C   UNL     1      -5.634   7.432  70.598  1.00  0.00    -0.027 A  
HETATM   46  C   UNL     1      -6.629   5.275  70.156  1.00  0.00    -0.039 A  
ENDBRANCH  32  41
ENDBRANCH  31  32
ENDBRANCH  18  31
ENDBRANCH   6  10
ENDBRANCH   2   3
TORSDOF 11
ENDMDL
MODEL      171
REMARK 921   NORMALIZED FREE ENERGY PREDICTED BY IDOCK:   -3.22 KCAL/MOL
REMARK 922        TOTAL FREE ENERGY PREDICTED BY IDOCK:   -8.35 KCAL/MOL
REMARK 923 INTER-LIGAND FREE ENERGY PREDICTED BY IDOCK:   -8.02 KCAL/MOL
REMARK 924 INTRA-LIGAND FREE ENERGY PREDICTED BY IDOCK:   -0.33 KCAL/MOL
REMARK 927      BINDING AFFINITY PREDICTED BY RF-SCORE:    0.00 PKD
ROOT
HETATM    1  C   UNL     1      -5.904   9.489  74.565  1.00  0.00     0.050 C  
HETATM    2  O   UNL     1      -6.299   8.139  74.300  1.00  0.00    -0.103 OA 
ENDROOT
BRANCH   2   3
HETATM    3  C   UNL     1      -6.186   7.752  72.991  1.00  0.00    -0.063 A  
HETATM    4  C   UNL     1      -7.164   8.218  72.101  1.00  0.00    -0.096 A  
HETATM    5  F   UNL     1      -8.155   9.003  72.561  1.00  0.00    -0.054 F  
HETATM    6  C   UNL     1      -7.117   7.890  70.740  1.00  0.00    -0.052 A  
HETATM    7  C   UNL     1      -6.089   7.057  70.276  1.00  0.00    -0.024 A  
HETATM    8  C   UNL     1      -5.177   6.906  72.518  1.00  0.00    -0.037 A  
HETATM    9  C   UNL     1      -5.129   6.567  71.166  1.00  0.00    -0.018 A  
BRANCH   6  10
HETATM   10  C   UNL     1      -8.096   8.457  69.788  1.00  0.00    -0.117 C  
HETATM   11  C   UNL     1      -9.013   6.203  69.165  1.00  0.00    -0.126 C  
HETATM   12  C   UNL     1      -8.958   7.713  69.060  1.00  0.00    -0.137 C  
HETATM   13  N   UNL     1      -9.874   8.344  68.208  1.00  0.00    -0.163 N  
HETATM   14  C   UNL     1     -10.130   9.716  68.291  1.00  0.00    -0.177 C  
HETATM   15  C   UNL     1      -8.080   9.935  69.570  1.00  0.00    -0.152 C  
HETATM   16  O   UNL     1     -11.165  10.217  67.843  1.00  0.00    -0.282 OA 
HETATM   17  O   UNL     1      -7.138  10.613  69.982  1.00  0.00    -0.158 OA 
HETATM   18  N   UNL     1      -9.160  10.477  68.908  1.00  0.00    -0.169 N  
BRANCH  13  19
HETATM   19  C   UNL     1     -10.731   7.599  67.279  1.00  0.00    -0.274 C  
BRANCH  19  20
HETATM   20  C   UNL     1     -10.044   6.654  66.299  1.00  0.00     0.055 A  
HETATM   21  F   UNL     1      -7.616   8.978  65.281  1.00  0.00    -0.091 F  
HETATM   22  C   UNL     1      -8.857   8.538  64.937  1.00  0.00     0.016 C  
HETATM   23  C   UNL     1      -9.093   7.097  65.347  1.00  0.00     0.278 A  
HETATM   24  F   UNL     1     -11.144   4.780  67.278  1.00  0.00     0.082 F  
HETATM   25  C   UNL     1      -8.282   6.139  64.688  1.00  0.00    -0.094 A  
HETATM   26  C   UNL     1     -10.208   5.263  66.453  1.00  0.00    -0.249 A  
HETATM   27  F   UNL     1      -8.942   8.688  63.584  1.00  0.00    -0.074 F  
HETATM   28  F   UNL     1      -9.728   9.447  65.444  1.00  0.00    -0.324 F  
HETATM   29  C   UNL     1      -9.425   4.334  65.767  1.00  0.00    -0.176 A  
HETATM   30  C   UNL     1      -8.435   4.773  64.906  1.00  0.00    -0.140 A  
ENDBRANCH  19  20
ENDBRANCH  13  19
BRANCH  18  31
HETATM   31  C   UNL     1      -9.275  11.939  68.834  1.00  0.00     0.149 C  
BRANCH  31  32
HETATM   32  C   UNL     1     -10.569  12.472  68.136  1.00  0.00    -0.226 C  
BRANCH  32  33
HETATM   33  N   UNL     1     -10.340  13.043  66.781  1.00  0.00    -0.252 NA 
HETATM   34  H   UNL     1      -9.415  12.782  66.440  1.00  0.00     0.000 HD 
BRANCH  33  35
HETATM   35  C   UNL     1     -11.356  12.706  65.789  1.00  0.00    -0.333 C  
BRANCH  35  36
HETATM   36  C   UNL     1     -12.155  13.955  65.383  1.00  0.00    -0.423 C  
BRANCH  36  37
HETATM   37  C   UNL     1     -11.497  14.750  64.255  1.00  0.00    -0.159 C  
HETATM   38  O   UNL     1     -11.408  17.158  64.265  1.00  0.00    -1.126 OA 
HETATM   39  C   UNL     1     -10.998  16.097  64.708  1.00  0.00    -0.313 C  
HETATM   40  O   UNL     1     -10.005  16.029  65.622  1.00  0.00    -0.329 OA 
ENDBRANCH  36  37
ENDBRANCH  35  36
ENDBRANCH  33  35
ENDBRANCH  32  33
BRANCH  32  41
HETATM   41  C   UNL     1     -11.284  13.540  68.968  1.00  0.00    -0.314 A  
HETATM   42  C   UNL     1     -12.729  14.124  70.839  1.00  0.00    -0.432 A  
HETATM   43  C   UNL     1     -11.958  15.855  69.353  1.00  0.00    -0.268 A  
HETATM   44  C   UNL     1     -12.030  13.169  70.096  1.00  0.00    -0.381 A  
HETATM   45  C   UNL     1     -11.249  14.903  68.616  1.00  0.00    -0.288 A  
HETATM   46  C   UNL     1     -12.697  15.466  70.467  1.00  0.00    -0.455 A  
ENDBRANCH  32  41
ENDBRANCH  31  32
ENDBRANCH  18  31
ENDBRANCH   6  10
ENDBRANCH   2   3
TORSDOF 11
ENDMDL
MODEL      172
REMARK 921   NORMALIZED FREE ENERGY PREDICTED BY IDOCK:   -3.20 KCAL/MOL
REMARK 922        TOTAL FREE ENERGY PREDICTED BY IDOCK:   -8.32 KCAL/MOL
REMARK 923 INTER-LIGAND FREE ENERGY PREDICTED BY IDOCK:   -8.29 KCAL/MOL
REMARK 924 INTRA-LIGAND FREE ENERGY PREDICTED BY IDOCK:   -0.03 KCAL/MOL
REMARK 927      BINDING AFFINITY PREDICTED BY RF-SCORE:    0.00 PKD
ROOT
HETATM    1  C   UNL     1      -8.658   7.200  74.483  1.00  0.00    -0.196 C  
HETATM    2  O   UNL     1      -8.364   8.444  73.839  1.00  0.00    -0.307 OA 
ENDROOT
BRANCH   2   3
HETATM    3  C   UNL     1      -7.538   8.346  72.750  1.00  0.00    -0.065 A  
HETATM    4  C   UNL     1      -8.094   8.647  71.499  1.00  0.00    -0.142 A  
HETATM    5  F   UNL     1      -9.388   9.005  71.420  1.00  0.00    -0.263 F  
HETATM    6  C   UNL     1      -7.319   8.595  70.332  1.00  0.00    -0.060 A  
HETATM    7  C   UNL     1      -5.976   8.203  70.425  1.00  0.00    -0.028 A  
HETATM    8  C   UNL     1      -6.201   7.938  72.826  1.00  0.00    -0.066 A  
HETATM    9  C   UNL     1      -5.426   7.874  71.667  1.00  0.00    -0.035 A  
BRANCH   6  10
HETATM   10  C   UNL     1      -7.883   9.001  69.027  1.00  0.00    -0.090 C  
HETATM   11  C   UNL     1      -7.732   6.681  68.076  1.00  0.00    -0.108 C  
HETATM   12  C   UNL     1      -8.072   8.155  67.990  1.00  0.00    -0.128 C  
HETATM   13  N   UNL     1      -8.645   8.627  66.803  1.00  0.00    -0.118 N  
HETATM   14  C   UNL     1      -9.292   9.864  66.740  1.00  0.00    -0.151 C  
HETATM   15  C   UNL     1      -8.195  10.448  68.824  1.00  0.00    -0.128 C  
HETATM   16  O   UNL     1     -10.111  10.131  65.856  1.00  0.00    -0.258 OA 
HETATM   17  O   UNL     1      -7.777  11.291  69.619  1.00  0.00     0.082 OA 
HETATM   18  N   UNL     1      -8.968  10.769  67.729  1.00  0.00    -0.136 N  
BRANCH  13  19
HETATM   19  C   UNL     1      -8.739   7.805  65.590  1.00  0.00    -0.104 C  
BRANCH  19  20
HETATM   20  C   UNL     1      -8.154   6.399  65.651  1.00  0.00    -0.131 A  
HETATM   21  F   UNL     1     -11.248   4.764  65.362  1.00  0.00    -0.313 F  
HETATM   22  C   UNL     1     -10.394   5.233  66.311  1.00  0.00    -0.239 C  
HETATM   23  C   UNL     1      -8.953   5.243  65.836  1.00  0.00    -0.148 A  
HETATM   24  F   UNL     1      -5.970   7.249  65.217  1.00  0.00    -0.034 F  
HETATM   25  C   UNL     1      -8.390   3.968  65.580  1.00  0.00    -0.109 A  
HETATM   26  C   UNL     1      -6.797   6.203  65.328  1.00  0.00    -0.048 A  
HETATM   27  F   UNL     1     -10.553   4.412  67.389  1.00  0.00    -0.065 F  
HETATM   28  F   UNL     1     -10.895   6.429  66.707  1.00  0.00    -0.332 F  
HETATM   29  C   UNL     1      -6.250   4.937  65.116  1.00  0.00    -0.034 A  
HETATM   30  C   UNL     1      -7.057   3.816  65.209  1.00  0.00    -0.066 A  
ENDBRANCH  19  20
ENDBRANCH  13  19
BRANCH  18  31
HETATM   31  C   UNL     1      -9.451  12.148  67.592  1.00  0.00    -0.187 C  
BRANCH  31  32
HETATM   32  C   UNL     1     -11.002  12.303  67.469  1.00  0.00    -0.254 C  
BRANCH  32  33
HETATM   33  N   UNL     1     -11.439  13.575  66.832  1.00  0.00    -0.329 NA 
HETATM   34  H   UNL     1     -11.764  14.230  67.543  1.00  0.00     0.000 HD 
BRANCH  33  35
HETATM   35  C   UNL     1     -10.441  14.213  65.978  1.00  0.00    -0.304 C  
BRANCH  35  36
HETATM   36  C   UNL     1     -10.418  15.731  66.210  1.00  0.00    -0.315 C  
BRANCH  36  37
HETATM   37  C   UNL     1      -9.595  16.142  67.432  1.00  0.00    -0.229 C  
HETATM   38  O   UNL     1      -7.232  15.700  67.597  1.00  0.00    -0.140 OA 
HETATM   39  C   UNL     1      -8.140  16.355  67.108  1.00  0.00    -0.181 C  
HETATM   40  O   UNL     1      -7.917  17.381  66.259  1.00  0.00    -0.284 OA 
ENDBRANCH  36  37
ENDBRANCH  35  36
ENDBRANCH  33  35
ENDBRANCH  32  33
BRANCH  32  41
HETATM   41  C   UNL     1     -11.708  12.203  68.824  1.00  0.00    -0.374 A  
HETATM   42  C   UNL     1     -12.756  13.298  70.730  1.00  0.00    -0.284 A  
HETATM   43  C   UNL     1     -12.491  10.904  70.738  1.00  0.00    -0.489 A  
HETATM   44  C   UNL     1     -12.153  13.365  69.471  1.00  0.00    -0.334 A  
HETATM   45  C   UNL     1     -11.899  10.968  69.473  1.00  0.00    -0.404 A  
HETATM   46  C   UNL     1     -12.922  12.069  71.365  1.00  0.00    -0.362 A  
ENDBRANCH  32  41
ENDBRANCH  31  32
ENDBRANCH  18  31
ENDBRANCH   6  10
ENDBRANCH   2   3
TORSDOF 11
ENDMDL
MODEL      173
REMARK 921   NORMALIZED FREE ENERGY PREDICTED BY IDOCK:   -3.20 KCAL/MOL
REMARK 922        TOTAL FREE ENERGY PREDICTED BY IDOCK:   -8.32 KCAL/MOL
REMARK 923 INTER-LIGAND FREE ENERGY PREDICTED BY IDOCK:   -8.13 KCAL/MOL
REMARK 924 INTRA-LIGAND FREE ENERGY PREDICTED BY IDOCK:   -0.19 KCAL/MOL
REMARK 927      BINDING AFFINITY PREDICTED BY RF-SCORE:    0.00 PKD
ROOT
HETATM    1  C   UNL     1     -13.500  14.374  65.040  1.00  0.00     1.038 C  
HETATM    2  O   UNL     1     -13.362  12.958  64.878  1.00  0.00    -0.716 OA 
ENDROOT
BRANCH   2   3
HETATM    3  C   UNL     1     -12.075  12.522  64.709  1.00  0.00    -0.434 A  
HETATM    4  C   UNL     1     -11.128  12.945  65.652  1.00  0.00    -0.279 A  
HETATM    5  F   UNL     1     -11.514  13.751  66.658  1.00  0.00    -0.307 F  
HETATM    6  C   UNL     1      -9.792  12.532  65.571  1.00  0.00    -0.197 A  
HETATM    7  C   UNL     1      -9.399  11.707  64.508  1.00  0.00     0.036 A  
HETATM    8  C   UNL     1     -11.665  11.714  63.642  1.00  0.00    -0.406 A  
HETATM    9  C   UNL     1     -10.334  11.306  63.548  1.00  0.00    -0.463 A  
BRANCH   6  10
HETATM   10  C   UNL     1      -8.817  12.905  66.617  1.00  0.00    -0.098 C  
HETATM   11  C   UNL     1      -8.984  15.358  66.103  1.00  0.00    -0.294 C  
HETATM   12  C   UNL     1      -8.431  14.175  66.871  1.00  0.00    -0.091 C  
HETATM   13  N   UNL     1      -7.526  14.433  67.908  1.00  0.00    -0.135 N  
HETATM   14  C   UNL     1      -7.223  13.471  68.876  1.00  0.00    -0.070 C  
HETATM   15  C   UNL     1      -8.170  11.802  67.391  1.00  0.00    -0.160 C  
HETATM   16  O   UNL     1      -6.751  13.775  69.976  1.00  0.00    -0.016 OA 
HETATM   17  O   UNL     1      -8.267  10.636  67.009  1.00  0.00    -0.120 OA 
HETATM   18  N   UNL     1      -7.488  12.162  68.533  1.00  0.00    -0.113 N  
BRANCH  13  19
HETATM   19  C   UNL     1      -6.948  15.763  68.140  1.00  0.00    -0.118 C  
BRANCH  19  20
HETATM   20  C   UNL     1      -7.918  16.927  68.307  1.00  0.00    -0.211 A  
HETATM   21  F   UNL     1      -6.829  18.648  65.446  1.00  0.00    -0.296 F  
HETATM   22  C   UNL     1      -6.585  18.573  66.782  1.00  0.00    -0.186 C  
HETATM   23  C   UNL     1      -7.804  18.131  67.568  1.00  0.00    -0.223 A  
HETATM   24  F   UNL     1      -9.217  15.670  69.860  1.00  0.00    -0.271 F  
HETATM   25  C   UNL     1      -8.898  19.032  67.549  1.00  0.00    -0.316 A  
HETATM   26  C   UNL     1      -9.083  16.748  69.079  1.00  0.00    -0.191 A  
HETATM   27  F   UNL     1      -6.183  19.823  67.155  1.00  0.00    -0.184 F  
HETATM   28  F   UNL     1      -5.480  17.797  66.917  1.00  0.00    -0.133 F  
HETATM   29  C   UNL     1     -10.134  17.665  69.077  1.00  0.00    -0.300 A  
HETATM   30  C   UNL     1     -10.057  18.796  68.284  1.00  0.00    -0.431 A  
ENDBRANCH  19  20
ENDBRANCH  13  19
BRANCH  18  31
HETATM   31  C   UNL     1      -6.995  11.101  69.419  1.00  0.00    -0.124 C  
BRANCH  31  32
HETATM   32  C   UNL     1      -7.876   9.810  69.467  1.00  0.00    -0.128 C  
BRANCH  32  33
HETATM   33  N   UNL     1      -9.162   9.976  70.196  1.00  0.00    -0.384 NA 
HETATM   34  H   UNL     1      -9.289  10.950  70.470  1.00  0.00     0.000 HD 
BRANCH  33  35
HETATM   35  C   UNL     1     -10.342   9.496  69.483  1.00  0.00    -0.217 C  
BRANCH  35  36
HETATM   36  C   UNL     1     -11.145  10.672  68.907  1.00  0.00    -0.314 C  
BRANCH  36  37
HETATM   37  C   UNL     1     -12.493  10.879  69.599  1.00  0.00    -0.198 C  
HETATM   38  O   UNL     1     -12.678  11.926  71.761  1.00  0.00    -0.285 OA 
HETATM   39  C   UNL     1     -12.479  12.037  70.561  1.00  0.00    -0.207 C  
HETATM   40  O   UNL     1     -12.279  13.234  69.969  1.00  0.00    -0.317 OA 
ENDBRANCH  36  37
ENDBRANCH  35  36
ENDBRANCH  33  35
ENDBRANCH  32  33
BRANCH  32  41
HETATM   41  C   UNL     1      -7.141   8.624  70.100  1.00  0.00    -0.044 A  
HETATM   42  C   UNL     1      -5.407   6.919  69.973  1.00  0.00    -0.019 A  
HETATM   43  C   UNL     1      -6.898   6.952  71.863  1.00  0.00    -0.062 A  
HETATM   44  C   UNL     1      -6.058   8.032  69.433  1.00  0.00    -0.034 A  
HETATM   45  C   UNL     1      -7.543   8.072  71.331  1.00  0.00    -0.081 A  
HETATM   46  C   UNL     1      -5.828   6.377  71.185  1.00  0.00    -0.027 A  
ENDBRANCH  32  41
ENDBRANCH  31  32
ENDBRANCH  18  31
ENDBRANCH   6  10
ENDBRANCH   2   3
TORSDOF 11
ENDMDL
MODEL      174
REMARK 921   NORMALIZED FREE ENERGY PREDICTED BY IDOCK:   -3.20 KCAL/MOL
REMARK 922        TOTAL FREE ENERGY PREDICTED BY IDOCK:   -8.31 KCAL/MOL
REMARK 923 INTER-LIGAND FREE ENERGY PREDICTED BY IDOCK:   -8.17 KCAL/MOL
REMARK 924 INTRA-LIGAND FREE ENERGY PREDICTED BY IDOCK:   -0.14 KCAL/MOL
REMARK 927      BINDING AFFINITY PREDICTED BY RF-SCORE:    0.00 PKD
ROOT
HETATM    1  C   UNL     1      -9.624  16.048  69.628  1.00  0.00    -0.120 C  
HETATM    2  O   UNL     1      -8.386  16.425  69.016  1.00  0.00    -0.236 OA 
ENDROOT
BRANCH   2   3
HETATM    3  C   UNL     1      -7.437  15.437  68.983  1.00  0.00    -0.165 A  
HETATM    4  C   UNL     1      -7.896  14.113  68.948  1.00  0.00    -0.076 A  
HETATM    5  F   UNL     1      -9.219  13.872  68.955  1.00  0.00    -0.114 F  
HETATM    6  C   UNL     1      -6.998  13.038  68.893  1.00  0.00    -0.088 A  
HETATM    7  C   UNL     1      -5.621  13.302  68.904  1.00  0.00    -0.073 A  
HETATM    8  C   UNL     1      -6.060  15.685  69.013  1.00  0.00    -0.107 A  
HETATM    9  C   UNL     1      -5.160  14.620  68.968  1.00  0.00    -0.087 A  
BRANCH   6  10
HETATM   10  C   UNL     1      -7.484  11.648  68.763  1.00  0.00    -0.114 C  
HETATM   11  C   UNL     1      -6.135  10.841  70.723  1.00  0.00    -0.003 C  
HETATM   12  C   UNL     1      -7.102  10.637  69.574  1.00  0.00    -0.127 C  
HETATM   13  N   UNL     1      -7.645   9.358  69.395  1.00  0.00    -0.078 N  
HETATM   14  C   UNL     1      -8.774   9.144  68.600  1.00  0.00    -0.129 C  
HETATM   15  C   UNL     1      -8.398  11.333  67.624  1.00  0.00    -0.123 C  
HETATM   16  O   UNL     1      -9.481   8.140  68.723  1.00  0.00    -0.147 OA 
HETATM   17  O   UNL     1      -8.542  12.138  66.703  1.00  0.00    -0.185 OA 
HETATM   18  N   UNL     1      -9.058  10.124  67.673  1.00  0.00    -0.137 N  
BRANCH  13  19
HETATM   19  C   UNL     1      -7.165   8.186  70.136  1.00  0.00    -0.056 C  
BRANCH  19  20
HETATM   20  C   UNL     1      -8.198   7.382  70.918  1.00  0.00    -0.114 A  
HETATM   21  F   UNL     1      -7.047   4.251  69.820  1.00  0.00    -0.045 F  
HETATM   22  C   UNL     1      -7.950   5.213  69.487  1.00  0.00    -0.079 C  
HETATM   23  C   UNL     1      -8.424   6.001  70.693  1.00  0.00    -0.133 A  
HETATM   24  F   UNL     1      -8.717   9.283  72.258  1.00  0.00     0.000 F  
HETATM   25  C   UNL     1      -9.166   5.261  71.648  1.00  0.00    -0.170 A  
HETATM   26  C   UNL     1      -8.827   7.968  72.034  1.00  0.00    -0.156 A  
HETATM   27  F   UNL     1      -8.985   4.557  68.887  1.00  0.00    -0.107 F  
HETATM   28  F   UNL     1      -7.375   5.938  68.495  1.00  0.00    -0.075 F  
HETATM   29  C   UNL     1      -9.585   7.231  72.943  1.00  0.00    -0.206 A  
HETATM   30  C   UNL     1      -9.728   5.865  72.769  1.00  0.00    -0.167 A  
ENDBRANCH  19  20
ENDBRANCH  13  19
BRANCH  18  31
HETATM   31  C   UNL     1     -10.099   9.853  66.674  1.00  0.00    -0.233 C  
BRANCH  31  32
HETATM   32  C   UNL     1     -11.381  10.741  66.789  1.00  0.00     0.176 C  
BRANCH  32  33
HETATM   33  N   UNL     1     -11.311  12.015  66.023  1.00  0.00    -0.342 NA 
HETATM   34  H   UNL     1     -10.514  12.001  65.387  1.00  0.00     0.000 HD 
BRANCH  33  35
HETATM   35  C   UNL     1     -12.528  12.366  65.298  1.00  0.00    -0.181 C  
BRANCH  35  36
HETATM   36  C   UNL     1     -12.853  13.858  65.471  1.00  0.00    -0.471 C  
BRANCH  36  37
HETATM   37  C   UNL     1     -12.504  14.697  64.241  1.00  0.00    -0.267 C  
HETATM   38  O   UNL     1     -11.459  16.862  64.419  1.00  0.00    -1.052 OA 
HETATM   39  C   UNL     1     -11.362  15.647  64.491  1.00  0.00    -0.320 C  
HETATM   40  O   UNL     1     -10.190  15.029  64.754  1.00  0.00    -0.308 OA 
ENDBRANCH  36  37
ENDBRANCH  35  36
ENDBRANCH  33  35
ENDBRANCH  32  33
BRANCH  32  41
HETATM   41  C   UNL     1     -11.716  11.098  68.241  1.00  0.00    -0.323 A  
HETATM   42  C   UNL     1     -12.018  12.785  69.971  1.00  0.00    -0.371 A  
HETATM   43  C   UNL     1     -12.191  10.453  70.547  1.00  0.00    -0.412 A  
HETATM   44  C   UNL     1     -11.762  12.442  68.640  1.00  0.00    -0.372 A  
HETATM   45  C   UNL     1     -11.947  10.108  69.215  1.00  0.00     0.097 A  
HETATM   46  C   UNL     1     -12.229  11.792  70.925  1.00  0.00    -0.378 A  
ENDBRANCH  32  41
ENDBRANCH  31  32
ENDBRANCH  18  31
ENDBRANCH   6  10
ENDBRANCH   2   3
TORSDOF 11
ENDMDL
MODEL      175
REMARK 921   NORMALIZED FREE ENERGY PREDICTED BY IDOCK:   -3.16 KCAL/MOL
REMARK 922        TOTAL FREE ENERGY PREDICTED BY IDOCK:   -8.26 KCAL/MOL
REMARK 923 INTER-LIGAND FREE ENERGY PREDICTED BY IDOCK:   -8.14 KCAL/MOL
REMARK 924 INTRA-LIGAND FREE ENERGY PREDICTED BY IDOCK:   -0.12 KCAL/MOL
REMARK 927      BINDING AFFINITY PREDICTED BY RF-SCORE:    0.00 PKD
ROOT
HETATM    1  C   UNL     1      -5.125  10.095  62.350  1.00  0.00    -0.093 C  
HETATM    2  O   UNL     1      -6.190  10.439  63.243  1.00  0.00    -0.143 OA 
ENDROOT
BRANCH   2   3
HETATM    3  C   UNL     1      -7.017   9.400  63.577  1.00  0.00    -0.098 A  
HETATM    4  C   UNL     1      -7.443   9.328  64.911  1.00  0.00    -0.107 A  
HETATM    5  F   UNL     1      -7.025  10.257  65.789  1.00  0.00    -0.100 F  
HETATM    6  C   UNL     1      -8.308   8.312  65.340  1.00  0.00    -0.170 A  
HETATM    7  C   UNL     1      -8.723   7.339  64.419  1.00  0.00     0.509 A  
HETATM    8  C   UNL     1      -7.424   8.412  62.674  1.00  0.00    -0.102 A  
HETATM    9  C   UNL     1      -8.277   7.391  63.095  1.00  0.00     0.050 A  
BRANCH   6  10
HETATM   10  C   UNL     1      -8.828   8.290  66.723  1.00  0.00    -0.158 C  
HETATM   11  C   UNL     1      -8.146   5.901  67.097  1.00  0.00    -0.102 C  
HETATM   12  C   UNL     1      -8.772   7.210  67.534  1.00  0.00    -0.121 C  
HETATM   13  N   UNL     1      -9.261   7.297  68.843  1.00  0.00    -0.142 N  
HETATM   14  C   UNL     1      -9.543   8.527  69.443  1.00  0.00    -0.170 C  
HETATM   15  C   UNL     1      -9.518   9.516  67.227  1.00  0.00    -0.136 C  
HETATM   16  O   UNL     1      -9.603   8.661  70.668  1.00  0.00    -0.168 OA 
HETATM   17  O   UNL     1      -9.847  10.409  66.445  1.00  0.00    -0.196 OA 
HETATM   18  N   UNL     1      -9.745   9.587  68.584  1.00  0.00    -0.152 N  
BRANCH  13  19
HETATM   19  C   UNL     1      -9.372   6.127  69.724  1.00  0.00    -0.151 C  
BRANCH  19  20
HETATM   20  C   UNL     1      -8.620   6.176  71.049  1.00  0.00    -0.132 A  
HETATM   21  F   UNL     1     -11.251   4.831  72.947  1.00  0.00    -0.281 F  
HETATM   22  C   UNL     1     -10.754   6.033  72.544  1.00  0.00    -0.227 C  
HETATM   23  C   UNL     1      -9.258   5.986  72.300  1.00  0.00    -0.146 A  
HETATM   24  F   UNL     1      -6.551   6.480  69.905  1.00  0.00    -0.041 F  
HETATM   25  C   UNL     1      -8.463   5.742  73.448  1.00  0.00    -0.115 A  
HETATM   26  C   UNL     1      -7.212   6.225  71.040  1.00  0.00    -0.075 A  
HETATM   27  F   UNL     1     -11.065   6.913  73.539  1.00  0.00    -0.291 F  
HETATM   28  F   UNL     1     -11.515   6.416  71.488  1.00  0.00    -0.298 F  
HETATM   29  C   UNL     1      -6.446   6.020  72.188  1.00  0.00    -0.058 A  
HETATM   30  C   UNL     1      -7.072   5.744  73.391  1.00  0.00    -0.086 A  
ENDBRANCH  19  20
ENDBRANCH  13  19
BRANCH  18  31
HETATM   31  C   UNL     1     -10.252  10.846  69.145  1.00  0.00    -0.195 C  
BRANCH  31  32
HETATM   32  C   UNL     1     -11.762  11.141  68.865  1.00  0.00    -0.337 C  
BRANCH  32  33
HETATM   33  N   UNL     1     -11.999  12.126  67.776  1.00  0.00    -0.524 NA 
HETATM   34  H   UNL     1     -12.681  12.823  68.073  1.00  0.00     0.000 HD 
BRANCH  33  35
HETATM   35  C   UNL     1     -10.799  12.782  67.265  1.00  0.00    -0.251 C  
BRANCH  35  36
HETATM   36  C   UNL     1     -11.030  14.293  67.107  1.00  0.00    -0.305 C  
BRANCH  36  37
HETATM   37  C   UNL     1     -12.343  14.631  66.399  1.00  0.00    -0.069 C  
HETATM   38  O   UNL     1     -12.509  14.763  63.998  1.00  0.00    -0.803 OA 
HETATM   39  C   UNL     1     -12.408  14.073  65.001  1.00  0.00    -0.441 C  
HETATM   40  O   UNL     1     -12.401  12.724  64.953  1.00  0.00    -0.441 OA 
ENDBRANCH  36  37
ENDBRANCH  35  36
ENDBRANCH  33  35
ENDBRANCH  32  33
BRANCH  32  41
HETATM   41  C   UNL     1     -12.498  11.648  70.109  1.00  0.00    -0.209 A  
HETATM   42  C   UNL     1     -13.034  13.470  71.633  1.00  0.00    -0.447 A  
HETATM   43  C   UNL     1     -13.859  11.257  72.097  1.00  0.00     0.284 A  
HETATM   44  C   UNL     1     -12.409  13.000  70.475  1.00  0.00    -0.365 A  
HETATM   45  C   UNL     1     -13.245  10.786  70.934  1.00  0.00    -0.160 A  
HETATM   46  C   UNL     1     -13.756  12.600  72.446  1.00  0.00    -0.377 A  
ENDBRANCH  32  41
ENDBRANCH  31  32
ENDBRANCH  18  31
ENDBRANCH   6  10
ENDBRANCH   2   3
TORSDOF 11
ENDMDL
MODEL      176
REMARK 921   NORMALIZED FREE ENERGY PREDICTED BY IDOCK:   -3.06 KCAL/MOL
REMARK 922        TOTAL FREE ENERGY PREDICTED BY IDOCK:   -8.08 KCAL/MOL
REMARK 923 INTER-LIGAND FREE ENERGY PREDICTED BY IDOCK:   -6.19 KCAL/MOL
REMARK 924 INTRA-LIGAND FREE ENERGY PREDICTED BY IDOCK:   -1.88 KCAL/MOL
REMARK 927      BINDING AFFINITY PREDICTED BY RF-SCORE:    0.00 PKD
ROOT
HETATM    1  C   UNL     1     -11.639  12.605  63.601  1.00  0.00    -0.503 C  
HETATM    2  O   UNL     1     -11.334  11.219  63.416  1.00  0.00    -0.272 OA 
ENDROOT
BRANCH   2   3
HETATM    3  C   UNL     1      -9.999  10.916  63.433  1.00  0.00    -0.361 A  
HETATM    4  C   UNL     1      -9.535  10.130  64.498  1.00  0.00    -0.303 A  
HETATM    5  F   UNL     1     -10.401   9.721  65.442  1.00  0.00    -0.364 F  
HETATM    6  C   UNL     1      -8.188   9.755  64.586  1.00  0.00    -0.150 A  
HETATM    7  C   UNL     1      -7.292  10.202  63.605  1.00  0.00    -0.123 A  
HETATM    8  C   UNL     1      -9.089  11.372  62.472  1.00  0.00    -0.177 A  
HETATM    9  C   UNL     1      -7.744  11.010  62.558  1.00  0.00    -0.025 A  
BRANCH   6  10
HETATM   10  C   UNL     1      -7.721   8.851  65.658  1.00  0.00    -0.087 C  
HETATM   11  C   UNL     1      -7.334   6.938  64.076  1.00  0.00    -0.087 C  
HETATM   12  C   UNL     1      -7.336   7.572  65.452  1.00  0.00    -0.071 C  
HETATM   13  N   UNL     1      -6.874   6.802  66.528  1.00  0.00    -0.059 N  
HETATM   14  C   UNL     1      -6.523   7.383  67.750  1.00  0.00    -0.050 C  
HETATM   15  C   UNL     1      -7.742   9.365  67.061  1.00  0.00    -0.091 C  
HETATM   16  O   UNL     1      -5.779   6.816  68.555  1.00  0.00    -0.016 OA 
HETATM   17  O   UNL     1      -8.347  10.403  67.333  1.00  0.00    -0.120 OA 
HETATM   18  N   UNL     1      -7.053   8.631  68.002  1.00  0.00    -0.081 N  
BRANCH  13  19
HETATM   19  C   UNL     1      -6.587   5.368  66.407  1.00  0.00    -0.056 C  
BRANCH  19  20
HETATM   20  C   UNL     1      -7.664   4.488  65.784  1.00  0.00    -0.094 A  
HETATM   21  F   UNL     1      -5.410   2.358  64.137  1.00  0.00    -0.007 F  
HETATM   22  C   UNL     1      -6.124   3.497  63.925  1.00  0.00    -0.018 C  
HETATM   23  C   UNL     1      -7.389   3.549  64.759  1.00  0.00    -0.071 A  
HETATM   24  F   UNL     1      -9.299   5.370  67.279  1.00  0.00    -0.115 F  
HETATM   25  C   UNL     1      -8.362   2.566  64.448  1.00  0.00    -0.083 A  
HETATM   26  C   UNL     1      -8.949   4.460  66.362  1.00  0.00    -0.117 A  
HETATM   27  F   UNL     1      -6.410   3.511  62.591  1.00  0.00    -0.018 F  
HETATM   28  F   UNL     1      -5.253   4.522  64.106  1.00  0.00    -0.010 F  
HETATM   29  C   UNL     1      -9.907   3.507  66.015  1.00  0.00     0.042 A  
HETATM   30  C   UNL     1      -9.603   2.535  65.079  1.00  0.00     0.023 A  
ENDBRANCH  19  20
ENDBRANCH  13  19
BRANCH  18  31
HETATM   31  C   UNL     1      -6.894   9.192  69.349  1.00  0.00    -0.048 C  
BRANCH  31  32
HETATM   32  C   UNL     1      -8.049   8.862  70.350  1.00  0.00    -0.128 C  
BRANCH  32  33
HETATM   33  N   UNL     1      -9.020   9.972  70.548  1.00  0.00    -0.324 NA 
HETATM   34  H   UNL     1      -8.543  10.872  70.493  1.00  0.00     0.000 HD 
BRANCH  33  35
HETATM   35  C   UNL     1     -10.168   9.956  69.647  1.00  0.00    -0.237 C  
BRANCH  35  36
HETATM   36  C   UNL     1     -10.941   8.635  69.775  1.00  0.00    -0.132 C  
BRANCH  36  37
HETATM   37  C   UNL     1     -11.405   8.344  71.203  1.00  0.00    -0.310 C  
HETATM   38  O   UNL     1     -12.914   6.537  71.720  1.00  0.00    -0.262 OA 
HETATM   39  C   UNL     1     -11.791   6.902  71.405  1.00  0.00    -0.330 C  
HETATM   40  O   UNL     1     -10.763   6.038  71.260  1.00  0.00    -0.242 OA 
ENDBRANCH  36  37
ENDBRANCH  35  36
ENDBRANCH  33  35
ENDBRANCH  32  33
BRANCH  32  41
HETATM   41  C   UNL     1      -7.527   8.459  71.733  1.00  0.00    -0.124 A  
HETATM   42  C   UNL     1      -5.765   7.500  73.113  1.00  0.00    -0.044 A  
HETATM   43  C   UNL     1      -7.847   8.149  74.133  1.00  0.00    -0.285 A  
HETATM   44  C   UNL     1      -6.240   7.918  71.867  1.00  0.00    -0.041 A  
HETATM   45  C   UNL     1      -8.320   8.579  72.890  1.00  0.00    -0.122 A  
HETATM   46  C   UNL     1      -6.569   7.611  74.245  1.00  0.00    -0.100 A  
ENDBRANCH  32  41
ENDBRANCH  31  32
ENDBRANCH  18  31
ENDBRANCH   6  10
ENDBRANCH   2   3
TORSDOF 11
ENDMDL
MODEL      177
REMARK 921   NORMALIZED FREE ENERGY PREDICTED BY IDOCK:   -3.05 KCAL/MOL
REMARK 922        TOTAL FREE ENERGY PREDICTED BY IDOCK:   -8.06 KCAL/MOL
REMARK 923 INTER-LIGAND FREE ENERGY PREDICTED BY IDOCK:   -7.36 KCAL/MOL
REMARK 924 INTRA-LIGAND FREE ENERGY PREDICTED BY IDOCK:   -0.71 KCAL/MOL
REMARK 927      BINDING AFFINITY PREDICTED BY RF-SCORE:    0.00 PKD
ROOT
HETATM    1  C   UNL     1      -5.745  16.614  69.700  1.00  0.00    -0.190 C  
HETATM    2  O   UNL     1      -5.530  16.177  68.354  1.00  0.00    -0.096 OA 
ENDROOT
BRANCH   2   3
HETATM    3  C   UNL     1      -6.531  15.400  67.835  1.00  0.00    -0.151 A  
HETATM    4  C   UNL     1      -6.451  14.019  68.066  1.00  0.00    -0.149 A  
HETATM    5  F   UNL     1      -5.414  13.526  68.766  1.00  0.00    -0.070 F  
HETATM    6  C   UNL     1      -7.441  13.148  67.591  1.00  0.00    -0.164 A  
HETATM    7  C   UNL     1      -8.507  13.672  66.847  1.00  0.00    -0.073 A  
HETATM    8  C   UNL     1      -7.591  15.907  67.074  1.00  0.00    -0.264 A  
HETATM    9  C   UNL     1      -8.575  15.045  66.589  1.00  0.00    -0.246 A  
BRANCH   6  10
HETATM   10  C   UNL     1      -7.403  11.706  67.914  1.00  0.00    -0.096 C  
HETATM   11  C   UNL     1      -5.641  11.219  66.191  1.00  0.00    -0.101 C  
HETATM   12  C   UNL     1      -6.602  10.814  67.290  1.00  0.00    -0.075 C  
HETATM   13  N   UNL     1      -6.611   9.472  67.690  1.00  0.00    -0.062 N  
HETATM   14  C   UNL     1      -7.198   9.067  68.892  1.00  0.00    -0.073 C  
HETATM   15  C   UNL     1      -8.357  11.198  68.945  1.00  0.00    -0.099 C  
HETATM   16  O   UNL     1      -6.899   8.003  69.441  1.00  0.00    -0.045 OA 
HETATM   17  O   UNL     1      -9.291  11.904  69.328  1.00  0.00     0.321 OA 
HETATM   18  N   UNL     1      -8.126   9.930  69.434  1.00  0.00    -0.125 N  
BRANCH  13  19
HETATM   19  C   UNL     1      -5.885   8.425  66.960  1.00  0.00    -0.042 C  
BRANCH  19  20
HETATM   20  C   UNL     1      -6.712   7.308  66.333  1.00  0.00    -0.060 A  
HETATM   21  F   UNL     1      -6.601   8.630  63.082  1.00  0.00    -0.088 F  
HETATM   22  C   UNL     1      -7.373   8.663  64.202  1.00  0.00    -0.102 C  
HETATM   23  C   UNL     1      -7.249   7.394  65.025  1.00  0.00    -0.067 A  
HETATM   24  F   UNL     1      -6.381   5.936  68.254  1.00  0.00    -0.035 F  
HETATM   25  C   UNL     1      -7.736   6.217  64.403  1.00  0.00    -0.107 A  
HETATM   26  C   UNL     1      -6.799   6.064  66.989  1.00  0.00    -0.063 A  
HETATM   27  F   UNL     1      -8.652   8.846  63.765  1.00  0.00    -0.186 F  
HETATM   28  F   UNL     1      -7.054   9.816  64.841  1.00  0.00    -0.101 F  
HETATM   29  C   UNL     1      -7.316   4.925  66.373  1.00  0.00    -0.082 A  
HETATM   30  C   UNL     1      -7.757   4.992  65.063  1.00  0.00    -0.083 A  
ENDBRANCH  19  20
ENDBRANCH  13  19
BRANCH  18  31
HETATM   31  C   UNL     1      -8.925   9.463  70.574  1.00  0.00    -0.253 C  
BRANCH  31  32
HETATM   32  C   UNL     1      -9.863   8.248  70.277  1.00  0.00    -0.184 C  
BRANCH  32  33
HETATM   33  N   UNL     1     -10.038   7.952  68.830  1.00  0.00    -0.189 NA 
HETATM   34  H   UNL     1     -10.346   6.989  68.702  1.00  0.00     0.000 HD 
BRANCH  33  35
HETATM   35  C   UNL     1     -10.928   8.864  68.116  1.00  0.00     0.116 C  
BRANCH  35  36
HETATM   36  C   UNL     1     -10.517   8.981  66.640  1.00  0.00    -0.235 C  
BRANCH  36  37
HETATM   37  C   UNL     1     -10.108  10.398  66.239  1.00  0.00    -0.292 C  
HETATM   38  O   UNL     1     -11.623  11.905  65.124  1.00  0.00    -0.303 OA 
HETATM   39  C   UNL     1     -11.282  11.338  66.151  1.00  0.00    -0.065 C  
HETATM   40  O   UNL     1     -11.901  11.547  67.332  1.00  0.00    -0.607 OA 
ENDBRANCH  36  37
ENDBRANCH  35  36
ENDBRANCH  33  35
ENDBRANCH  32  33
BRANCH  32  41
HETATM   41  C   UNL     1     -11.261   8.429  70.879  1.00  0.00    -0.294 A  
HETATM   42  C   UNL     1     -13.364   7.458  71.629  1.00  0.00    -0.426 A  
HETATM   43  C   UNL     1     -13.088   9.850  71.656  1.00  0.00    -0.538 A  
HETATM   44  C   UNL     1     -12.069   7.309  71.126  1.00  0.00    -0.376 A  
HETATM   45  C   UNL     1     -11.788   9.703  71.164  1.00  0.00    -0.448 A  
HETATM   46  C   UNL     1     -13.876   8.727  71.890  1.00  0.00    -0.491 A  
ENDBRANCH  32  41
ENDBRANCH  31  32
ENDBRANCH  18  31
ENDBRANCH   6  10
ENDBRANCH   2   3
TORSDOF 11
ENDMDL
MODEL      178
REMARK 921   NORMALIZED FREE ENERGY PREDICTED BY IDOCK:   -3.04 KCAL/MOL
REMARK 922        TOTAL FREE ENERGY PREDICTED BY IDOCK:   -8.06 KCAL/MOL
REMARK 923 INTER-LIGAND FREE ENERGY PREDICTED BY IDOCK:   -6.51 KCAL/MOL
REMARK 924 INTRA-LIGAND FREE ENERGY PREDICTED BY IDOCK:   -1.55 KCAL/MOL
REMARK 927      BINDING AFFINITY PREDICTED BY RF-SCORE:    0.00 PKD
ROOT
HETATM    1  C   UNL     1     -11.896  13.075  67.205  1.00  0.00    -0.373 C  
HETATM    2  O   UNL     1     -11.285  13.347  68.470  1.00  0.00    -0.252 OA 
ENDROOT
BRANCH   2   3
HETATM    3  C   UNL     1     -11.622  12.475  69.471  1.00  0.00    -0.281 A  
HETATM    4  C   UNL     1     -10.961  11.239  69.489  1.00  0.00    -0.191 A  
HETATM    5  F   UNL     1     -10.048  10.964  68.540  1.00  0.00    -0.158 F  
HETATM    6  C   UNL     1     -11.226  10.292  70.487  1.00  0.00    -0.408 A  
HETATM    7  C   UNL     1     -12.193  10.582  71.460  1.00  0.00    -0.385 A  
HETATM    8  C   UNL     1     -12.598  12.744  70.437  1.00  0.00    -0.126 A  
HETATM    9  C   UNL     1     -12.875  11.802  71.429  1.00  0.00    -0.440 A  
BRANCH   6  10
HETATM   10  C   UNL     1     -10.462   9.028  70.557  1.00  0.00    -0.271 C  
HETATM   11  C   UNL     1     -12.534   7.607  70.552  1.00  0.00     0.221 C  
HETATM   12  C   UNL     1     -11.032   7.803  70.595  1.00  0.00    -0.249 C  
HETATM   13  N   UNL     1     -10.224   6.660  70.626  1.00  0.00    -0.188 N  
HETATM   14  C   UNL     1      -8.858   6.717  70.332  1.00  0.00    -0.152 C  
HETATM   15  C   UNL     1      -8.975   9.119  70.663  1.00  0.00    -0.244 C  
HETATM   16  O   UNL     1      -8.221   5.720  69.985  1.00  0.00    -0.111 OA 
HETATM   17  O   UNL     1      -8.435  10.195  70.922  1.00  0.00     0.310 OA 
HETATM   18  N   UNL     1      -8.265   7.957  70.448  1.00  0.00    -0.117 N  
BRANCH  13  19
HETATM   19  C   UNL     1     -10.769   5.311  70.821  1.00  0.00    -0.126 C  
BRANCH  19  20
HETATM   20  C   UNL     1     -10.311   4.543  72.055  1.00  0.00    -0.216 A  
HETATM   21  F   UNL     1      -7.479   3.149  70.517  1.00  0.00    -0.039 F  
HETATM   22  C   UNL     1      -8.791   2.871  70.749  1.00  0.00    -0.084 C  
HETATM   23  C   UNL     1      -9.309   3.543  72.007  1.00  0.00    -0.185 A  
HETATM   24  F   UNL     1     -11.753   5.840  73.442  1.00  0.00    -0.137 F  
HETATM   25  C   UNL     1      -8.725   3.095  73.219  1.00  0.00    -0.080 A  
HETATM   26  C   UNL     1     -10.754   4.956  73.327  1.00  0.00    -0.255 A  
HETATM   27  F   UNL     1      -8.870   1.513  70.846  1.00  0.00    -0.070 F  
HETATM   28  F   UNL     1      -9.446   3.178  69.602  1.00  0.00    -0.201 F  
HETATM   29  C   UNL     1     -10.193   4.476  74.511  1.00  0.00    -0.286 A  
HETATM   30  C   UNL     1      -9.151   3.566  74.457  1.00  0.00    -0.100 A  
ENDBRANCH  19  20
ENDBRANCH  13  19
BRANCH  18  31
HETATM   31  C   UNL     1      -6.802   8.036  70.360  1.00  0.00    -0.037 C  
BRANCH  31  32
HETATM   32  C   UNL     1      -6.241   8.503  68.978  1.00  0.00    -0.044 C  
BRANCH  32  33
HETATM   33  N   UNL     1      -6.828   9.777  68.480  1.00  0.00    -0.056 NA 
HETATM   34  H   UNL     1      -7.501  10.141  69.154  1.00  0.00     0.000 HD 
BRANCH  33  35
HETATM   35  C   UNL     1      -5.856  10.809  68.131  1.00  0.00    -0.049 C  
BRANCH  35  36
HETATM   36  C   UNL     1      -6.449  12.210  68.350  1.00  0.00    -0.056 C  
BRANCH  36  37
HETATM   37  C   UNL     1      -5.519  13.144  69.124  1.00  0.00    -0.071 C  
HETATM   38  O   UNL     1      -6.189  14.209  71.179  1.00  0.00    -0.171 OA 
HETATM   39  C   UNL     1      -5.839  13.195  70.595  1.00  0.00    -0.143 C  
HETATM   40  O   UNL     1      -5.654  12.019  71.232  1.00  0.00    -0.371 OA 
ENDBRANCH  36  37
ENDBRANCH  35  36
ENDBRANCH  33  35
ENDBRANCH  32  33
BRANCH  32  41
HETATM   41  C   UNL     1      -6.436   7.451  67.882  1.00  0.00    -0.049 A  
HETATM   42  C   UNL     1      -7.713   6.604  65.989  1.00  0.00    -0.089 A  
HETATM   43  C   UNL     1      -5.836   5.340  66.811  1.00  0.00    -0.018 A  
HETATM   44  C   UNL     1      -7.490   7.579  66.965  1.00  0.00    -0.098 A  
HETATM   45  C   UNL     1      -5.604   6.320  67.781  1.00  0.00    -0.005 A  
HETATM   46  C   UNL     1      -6.889   5.483  65.914  1.00  0.00    -0.058 A  
ENDBRANCH  32  41
ENDBRANCH  31  32
ENDBRANCH  18  31
ENDBRANCH   6  10
ENDBRANCH   2   3
TORSDOF 11
ENDMDL
MODEL      179
REMARK 921   NORMALIZED FREE ENERGY PREDICTED BY IDOCK:   -3.01 KCAL/MOL
REMARK 922        TOTAL FREE ENERGY PREDICTED BY IDOCK:   -8.00 KCAL/MOL
REMARK 923 INTER-LIGAND FREE ENERGY PREDICTED BY IDOCK:   -6.44 KCAL/MOL
REMARK 924 INTRA-LIGAND FREE ENERGY PREDICTED BY IDOCK:   -1.56 KCAL/MOL
REMARK 927      BINDING AFFINITY PREDICTED BY RF-SCORE:    0.00 PKD
ROOT
HETATM    1  C   UNL     1      -7.797   4.432  69.532  1.00  0.00    -0.057 C  
HETATM    2  O   UNL     1      -6.662   5.163  69.056  1.00  0.00    -0.049 OA 
ENDROOT
BRANCH   2   3
HETATM    3  C   UNL     1      -6.602   6.467  69.471  1.00  0.00    -0.048 A  
HETATM    4  C   UNL     1      -7.443   7.382  68.822  1.00  0.00    -0.101 A  
HETATM    5  F   UNL     1      -8.251   6.952  67.836  1.00  0.00    -0.110 F  
HETATM    6  C   UNL     1      -7.465   8.733  69.193  1.00  0.00    -0.076 A  
HETATM    7  C   UNL     1      -6.605   9.172  70.210  1.00  0.00    -0.052 A  
HETATM    8  C   UNL     1      -5.736   6.923  70.471  1.00  0.00    -0.024 A  
HETATM    9  C   UNL     1      -5.744   8.269  70.840  1.00  0.00    -0.032 A  
BRANCH   6  10
HETATM   10  C   UNL     1      -8.418   9.676  68.570  1.00  0.00    -0.118 C  
HETATM   11  C   UNL     1      -6.899  10.153  66.626  1.00  0.00    -0.084 C  
HETATM   12  C   UNL     1      -8.180  10.335  67.415  1.00  0.00    -0.114 C  
HETATM   13  N   UNL     1      -9.160  11.184  66.884  1.00  0.00    -0.156 N  
HETATM   14  C   UNL     1     -10.480  11.161  67.343  1.00  0.00    -0.220 C  
HETATM   15  C   UNL     1      -9.687   9.968  69.302  1.00  0.00    -0.215 C  
HETATM   16  O   UNL     1     -11.416  11.597  66.668  1.00  0.00    -0.423 OA 
HETATM   17  O   UNL     1      -9.819   9.625  70.477  1.00  0.00    -0.256 OA 
HETATM   18  N   UNL     1     -10.676  10.618  68.595  1.00  0.00    -0.192 N  
BRANCH  13  19
HETATM   19  C   UNL     1      -8.913  12.044  65.720  1.00  0.00     0.101 C  
BRANCH  19  20
HETATM   20  C   UNL     1      -9.474  13.461  65.766  1.00  0.00     0.032 A  
HETATM   21  F   UNL     1      -6.510  14.926  66.950  1.00  0.00     0.086 F  
HETATM   22  C   UNL     1      -7.668  14.382  67.411  1.00  0.00    -0.185 C  
HETATM   23  C   UNL     1      -8.808  14.527  66.421  1.00  0.00    -0.068 A  
HETATM   24  F   UNL     1     -11.315  12.817  64.396  1.00  0.00    -0.320 F  
HETATM   25  C   UNL     1      -9.225  15.858  66.166  1.00  0.00    -0.384 A  
HETATM   26  C   UNL     1     -10.596  13.784  64.978  1.00  0.00    -0.389 A  
HETATM   27  F   UNL     1      -7.942  15.030  68.580  1.00  0.00    -0.123 F  
HETATM   28  F   UNL     1      -7.363  13.112  67.780  1.00  0.00    -0.090 F  
HETATM   29  C   UNL     1     -11.014  15.098  64.769  1.00  0.00    -0.394 A  
HETATM   30  C   UNL     1     -10.306  16.143  65.338  1.00  0.00    -0.356 A  
ENDBRANCH  19  20
ENDBRANCH  13  19
BRANCH  18  31
HETATM   31  C   UNL     1     -12.000  10.761  69.213  1.00  0.00    -0.263 C  
BRANCH  31  32
HETATM   32  C   UNL     1     -12.110  11.876  70.303  1.00  0.00    -0.325 C  
BRANCH  32  33
HETATM   33  N   UNL     1     -13.449  11.972  70.945  1.00  0.00     0.613 NA 
HETATM   34  H   UNL     1     -14.052  11.218  70.617  1.00  0.00     0.000 HD 
BRANCH  33  35
HETATM   35  C   UNL     1     -13.432  12.005  72.405  1.00  0.00     0.060 C  
BRANCH  35  36
HETATM   36  C   UNL     1     -12.969  13.378  72.913  1.00  0.00     0.158 C  
BRANCH  36  37
HETATM   37  C   UNL     1     -13.825  14.534  72.392  1.00  0.00    -0.587 C  
HETATM   38  O   UNL     1     -14.154  16.559  73.657  1.00  0.00    -0.153 OA 
HETATM   39  C   UNL     1     -13.419  15.864  72.972  1.00  0.00    -0.568 C  
HETATM   40  O   UNL     1     -12.175  16.253  72.621  1.00  0.00    -0.495 OA 
ENDBRANCH  36  37
ENDBRANCH  35  36
ENDBRANCH  33  35
ENDBRANCH  32  33
BRANCH  32  41
HETATM   41  C   UNL     1     -11.765  13.265  69.755  1.00  0.00    -0.354 A  
HETATM   42  C   UNL     1     -10.549  15.364  69.971  1.00  0.00    -0.319 A  
HETATM   43  C   UNL     1     -12.099  15.075  68.151  1.00  0.00    -0.071 A  
HETATM   44  C   UNL     1     -10.839  14.076  70.429  1.00  0.00     0.635 A  
HETATM   45  C   UNL     1     -12.382  13.782  68.600  1.00  0.00    -0.014 A  
HETATM   46  C   UNL     1     -11.181  15.865  68.835  1.00  0.00    -0.343 A  
ENDBRANCH  32  41
ENDBRANCH  31  32
ENDBRANCH  18  31
ENDBRANCH   6  10
ENDBRANCH   2   3
TORSDOF 11
ENDMDL
MODEL      180
REMARK 921   NORMALIZED FREE ENERGY PREDICTED BY IDOCK:   -3.01 KCAL/MOL
REMARK 922        TOTAL FREE ENERGY PREDICTED BY IDOCK:   -8.00 KCAL/MOL
REMARK 923 INTER-LIGAND FREE ENERGY PREDICTED BY IDOCK:   -9.02 KCAL/MOL
REMARK 924 INTRA-LIGAND FREE ENERGY PREDICTED BY IDOCK:    1.02 KCAL/MOL
REMARK 927      BINDING AFFINITY PREDICTED BY RF-SCORE:    0.00 PKD
ROOT
HETATM    1  C   UNL     1     -11.497  15.428  71.886  1.00  0.00    -0.433 C  
HETATM    2  O   UNL     1     -12.630  14.872  71.212  1.00  0.00    -0.290 OA 
ENDROOT
BRANCH   2   3
HETATM    3  C   UNL     1     -12.789  13.521  71.374  1.00  0.00    -0.355 A  
HETATM    4  C   UNL     1     -12.058  12.685  70.518  1.00  0.00    -0.275 A  
HETATM    5  F   UNL     1     -11.254  13.233  69.590  1.00  0.00    -0.273 F  
HETATM    6  C   UNL     1     -12.142  11.290  70.624  1.00  0.00    -0.480 A  
HETATM    7  C   UNL     1     -12.997  10.732  71.585  1.00  0.00    -0.581 A  
HETATM    8  C   UNL     1     -13.654  12.950  72.315  1.00  0.00    -0.611 A  
HETATM    9  C   UNL     1     -13.750  11.562  72.421  1.00  0.00     0.343 A  
BRANCH   6  10
HETATM   10  C   UNL     1     -11.301  10.413  69.783  1.00  0.00    -0.353 C  
HETATM   11  C   UNL     1     -10.424   9.123  71.753  1.00  0.00    -0.361 C  
HETATM   12  C   UNL     1     -10.511   9.431  70.272  1.00  0.00    -0.251 C  
HETATM   13  N   UNL     1      -9.775   8.627  69.392  1.00  0.00    -0.174 N  
HETATM   14  C   UNL     1     -10.040   8.606  68.019  1.00  0.00    -0.196 C  
HETATM   15  C   UNL     1     -11.273  10.676  68.313  1.00  0.00    -0.301 C  
HETATM   16  O   UNL     1      -9.692   7.667  67.299  1.00  0.00    -0.148 OA 
HETATM   17  O   UNL     1     -11.739  11.722  67.860  1.00  0.00    -0.432 OA 
HETATM   18  N   UNL     1     -10.720   9.696  67.517  1.00  0.00    -0.281 N  
BRANCH  13  19
HETATM   19  C   UNL     1      -8.785   7.648  69.856  1.00  0.00    -0.139 C  
BRANCH  19  20
HETATM   20  C   UNL     1      -7.638   8.167  70.716  1.00  0.00    -0.071 A  
HETATM   21  F   UNL     1      -7.361   5.252  72.654  1.00  0.00    -0.084 F  
HETATM   22  C   UNL     1      -7.995   6.456  72.654  1.00  0.00    -0.104 C  
HETATM   23  C   UNL     1      -7.215   7.518  71.902  1.00  0.00    -0.064 A  
HETATM   24  F   UNL     1      -7.221   9.926  69.161  1.00  0.00    -0.061 F  
HETATM   25  C   UNL     1      -5.968   7.876  72.474  1.00  0.00    -0.043 A  
HETATM   26  C   UNL     1      -6.838   9.221  70.232  1.00  0.00    -0.071 A  
HETATM   27  F   UNL     1      -8.148   6.793  73.967  1.00  0.00    -0.112 F  
HETATM   28  F   UNL     1      -9.252   6.217  72.206  1.00  0.00    -0.144 F  
HETATM   29  C   UNL     1      -5.631   9.583  70.831  1.00  0.00    -0.055 A  
HETATM   30  C   UNL     1      -5.177   8.887  71.937  1.00  0.00    -0.046 A  
ENDBRANCH  19  20
ENDBRANCH  13  19
BRANCH  18  31
HETATM   31  C   UNL     1     -10.836   9.829  66.059  1.00  0.00     0.483 C  
BRANCH  31  32
HETATM   32  C   UNL     1      -9.933  10.931  65.416  1.00  0.00    -0.263 C  
BRANCH  32  33
HETATM   33  N   UNL     1      -8.789  11.356  66.268  1.00  0.00    -0.195 NA 
HETATM   34  H   UNL     1      -7.914  11.268  65.752  1.00  0.00     0.000 HD 
BRANCH  33  35
HETATM   35  C   UNL     1      -8.907  12.696  66.835  1.00  0.00    -0.201 C  
BRANCH  35  36
HETATM   36  C   UNL     1      -7.780  12.960  67.845  1.00  0.00    -0.143 C  
BRANCH  36  37
HETATM   37  C   UNL     1      -7.074  14.298  67.625  1.00  0.00    -0.200 C  
HETATM   38  O   UNL     1      -8.088  16.097  66.383  1.00  0.00    -0.293 OA 
HETATM   39  C   UNL     1      -8.038  15.435  67.408  1.00  0.00    -0.180 C  
HETATM   40  O   UNL     1      -8.816  15.700  68.480  1.00  0.00    -0.174 OA 
ENDBRANCH  36  37
ENDBRANCH  35  36
ENDBRANCH  33  35
ENDBRANCH  32  33
BRANCH  32  41
HETATM   41  C   UNL     1     -10.722  12.191  65.048  1.00  0.00    -0.338 A  
HETATM   42  C   UNL     1     -12.861  13.297  64.685  1.00  0.00    -0.190 A  
HETATM   43  C   UNL     1     -10.819  14.500  64.260  1.00  0.00     0.137 A  
HETATM   44  C   UNL     1     -12.125  12.172  65.065  1.00  0.00    -0.311 A  
HETATM   45  C   UNL     1     -10.080  13.380  64.651  1.00  0.00    -0.256 A  
HETATM   46  C   UNL     1     -12.210  14.460  64.280  1.00  0.00    -0.450 A  
ENDBRANCH  32  41
ENDBRANCH  31  32
ENDBRANCH  18  31
ENDBRANCH   6  10
ENDBRANCH   2   3
TORSDOF 11
ENDMDL
MODEL      181
REMARK 921   NORMALIZED FREE ENERGY PREDICTED BY IDOCK:   -2.98 KCAL/MOL
REMARK 922        TOTAL FREE ENERGY PREDICTED BY IDOCK:   -7.96 KCAL/MOL
REMARK 923 INTER-LIGAND FREE ENERGY PREDICTED BY IDOCK:   -7.91 KCAL/MOL
REMARK 924 INTRA-LIGAND FREE ENERGY PREDICTED BY IDOCK:   -0.05 KCAL/MOL
REMARK 927      BINDING AFFINITY PREDICTED BY RF-SCORE:    0.00 PKD
ROOT
HETATM    1  C   UNL     1     -14.029   9.336  72.639  1.00  0.00    -0.250 C  
HETATM    2  O   UNL     1     -12.607   9.190  72.585  1.00  0.00    -0.296 OA 
ENDROOT
BRANCH   2   3
HETATM    3  C   UNL     1     -12.147   8.417  71.552  1.00  0.00    -0.301 A  
HETATM    4  C   UNL     1     -11.446   9.071  70.528  1.00  0.00    -0.212 A  
HETATM    5  F   UNL     1     -11.265  10.401  70.598  1.00  0.00    -0.342 F  
HETATM    6  C   UNL     1     -10.922   8.358  69.442  1.00  0.00    -0.016 A  
HETATM    7  C   UNL     1     -11.133   6.973  69.372  1.00  0.00    -0.194 A  
HETATM    8  C   UNL     1     -12.366   7.038  71.459  1.00  0.00    -0.420 A  
HETATM    9  C   UNL     1     -11.855   6.322  70.376  1.00  0.00    -0.177 A  
BRANCH   6  10
HETATM   10  C   UNL     1     -10.105   9.035  68.413  1.00  0.00    -0.216 C  
HETATM   11  C   UNL     1      -7.992   7.875  69.119  1.00  0.00    -0.118 C  
HETATM   12  C   UNL     1      -8.778   8.838  68.252  1.00  0.00    -0.135 C  
HETATM   13  N   UNL     1      -8.095   9.500  67.224  1.00  0.00    -0.109 N  
HETATM   14  C   UNL     1      -8.775  10.133  66.180  1.00  0.00    -0.142 C  
HETATM   15  C   UNL     1     -10.779  10.048  67.545  1.00  0.00    -0.281 C  
HETATM   16  O   UNL     1      -8.231  10.380  65.100  1.00  0.00    -0.158 OA 
HETATM   17  O   UNL     1     -11.898  10.470  67.837  1.00  0.00    -0.400 OA 
HETATM   18  N   UNL     1     -10.092  10.460  66.424  1.00  0.00    -0.220 N  
BRANCH  13  19
HETATM   19  C   UNL     1      -6.634   9.452  67.087  1.00  0.00    -0.071 C  
BRANCH  19  20
HETATM   20  C   UNL     1      -6.072   9.094  65.717  1.00  0.00    -0.055 A  
HETATM   21  F   UNL     1      -8.007   6.187  65.339  1.00  0.00    -0.092 F  
HETATM   22  C   UNL     1      -6.793   6.587  65.806  1.00  0.00    -0.053 C  
HETATM   23  C   UNL     1      -6.286   7.833  65.106  1.00  0.00    -0.038 A  
HETATM   24  F   UNL     1      -5.173  11.288  65.472  1.00  0.00    -0.137 F  
HETATM   25  C   UNL     1      -6.000   7.680  63.726  1.00  0.00    -0.049 A  
HETATM   26  C   UNL     1      -5.474  10.100  64.933  1.00  0.00    -0.101 A  
HETATM   27  F   UNL     1      -5.953   5.530  65.605  1.00  0.00    -0.022 F  
HETATM   28  F   UNL     1      -6.923   6.677  67.154  1.00  0.00    -0.061 F  
HETATM   29  C   UNL     1      -5.165   9.919  63.585  1.00  0.00    -0.081 A  
HETATM   30  C   UNL     1      -5.460   8.715  62.969  1.00  0.00    -0.069 A  
ENDBRANCH  19  20
ENDBRANCH  13  19
BRANCH  18  31
HETATM   31  C   UNL     1     -10.786  11.312  65.450  1.00  0.00    -0.188 C  
BRANCH  31  32
HETATM   32  C   UNL     1     -11.173  12.736  65.966  1.00  0.00    -0.299 C  
BRANCH  32  33
HETATM   33  N   UNL     1     -11.400  13.735  64.886  1.00  0.00    -0.334 NA 
HETATM   34  H   UNL     1     -12.037  13.357  64.185  1.00  0.00     0.000 HD 
BRANCH  33  35
HETATM   35  C   UNL     1     -11.870  15.040  65.342  1.00  0.00    -0.105 C  
BRANCH  35  36
HETATM   36  C   UNL     1     -10.949  16.158  64.832  1.00  0.00    -0.364 C  
BRANCH  36  37
HETATM   37  C   UNL     1     -10.901  17.371  65.762  1.00  0.00     0.000 C  
HETATM   38  O   UNL     1      -9.589  17.389  67.783  1.00  0.00    -0.255 OA 
HETATM   39  C   UNL     1      -9.628  17.439  66.563  1.00  0.00    -0.280 C  
HETATM   40  O   UNL     1      -8.521  17.616  65.810  1.00  0.00    -0.525 OA 
ENDBRANCH  36  37
ENDBRANCH  35  36
ENDBRANCH  33  35
ENDBRANCH  32  33
BRANCH  32  41
HETATM   41  C   UNL     1     -10.120  13.320  66.914  1.00  0.00    -0.250 A  
HETATM   42  C   UNL     1      -9.534  14.222  69.099  1.00  0.00     0.101 A  
HETATM   43  C   UNL     1      -7.874  14.170  67.354  1.00  0.00    -0.195 A  
HETATM   44  C   UNL     1     -10.467  13.644  68.234  1.00  0.00    -0.253 A  
HETATM   45  C   UNL     1      -8.803  13.581  66.492  1.00  0.00     0.005 A  
HETATM   46  C   UNL     1      -8.239  14.489  68.659  1.00  0.00    -0.152 A  
ENDBRANCH  32  41
ENDBRANCH  31  32
ENDBRANCH  18  31
ENDBRANCH   6  10
ENDBRANCH   2   3
TORSDOF 11
ENDMDL
MODEL      182
REMARK 921   NORMALIZED FREE ENERGY PREDICTED BY IDOCK:   -2.97 KCAL/MOL
REMARK 922        TOTAL FREE ENERGY PREDICTED BY IDOCK:   -7.94 KCAL/MOL
REMARK 923 INTER-LIGAND FREE ENERGY PREDICTED BY IDOCK:   -5.89 KCAL/MOL
REMARK 924 INTRA-LIGAND FREE ENERGY PREDICTED BY IDOCK:   -2.04 KCAL/MOL
REMARK 927      BINDING AFFINITY PREDICTED BY RF-SCORE:    0.00 PKD
ROOT
HETATM    1  C   UNL     1     -10.969   3.224  62.712  1.00  0.00    -0.090 C  
HETATM    2  O   UNL     1      -9.935   2.747  63.579  1.00  0.00    -0.125 OA 
ENDROOT
BRANCH   2   3
HETATM    3  C   UNL     1      -8.779   3.481  63.554  1.00  0.00    -0.094 A  
HETATM    4  C   UNL     1      -8.690   4.561  64.445  1.00  0.00    -0.149 A  
HETATM    5  F   UNL     1      -9.722   4.828  65.264  1.00  0.00    -0.165 F  
HETATM    6  C   UNL     1      -7.537   5.355  64.504  1.00  0.00    -0.078 A  
HETATM    7  C   UNL     1      -6.474   5.078  63.632  1.00  0.00    -0.026 A  
HETATM    8  C   UNL     1      -7.719   3.228  62.676  1.00  0.00    -0.059 A  
HETATM    9  C   UNL     1      -6.572   4.020  62.722  1.00  0.00    -0.030 A  
BRANCH   6  10
HETATM   10  C   UNL     1      -7.408   6.434  65.506  1.00  0.00    -0.076 C  
HETATM   11  C   UNL     1      -7.896   8.244  63.833  1.00  0.00    -0.147 C  
HETATM   12  C   UNL     1      -7.559   7.747  65.225  1.00  0.00    -0.091 C  
HETATM   13  N   UNL     1      -7.453   8.695  66.250  1.00  0.00    -0.089 N  
HETATM   14  C   UNL     1      -7.481   8.326  67.598  1.00  0.00    -0.094 C  
HETATM   15  C   UNL     1      -7.020   6.050  66.897  1.00  0.00    -0.068 C  
HETATM   16  O   UNL     1      -7.768   9.129  68.491  1.00  0.00    -0.091 OA 
HETATM   17  O   UNL     1      -6.594   4.918  67.132  1.00  0.00    -0.047 OA 
HETATM   18  N   UNL     1      -7.175   7.010  67.873  1.00  0.00    -0.089 N  
BRANCH  13  19
HETATM   19  C   UNL     1      -7.453  10.141  65.993  1.00  0.00    -0.118 C  
BRANCH  19  20
HETATM   20  C   UNL     1      -8.542  10.970  66.664  1.00  0.00    -0.157 A  
HETATM   21  F   UNL     1      -6.497  13.770  67.220  1.00  0.00    -0.178 F  
HETATM   22  C   UNL     1      -6.898  12.625  67.835  1.00  0.00    -0.112 C  
HETATM   23  C   UNL     1      -8.267  12.168  67.369  1.00  0.00    -0.175 A  
HETATM   24  F   UNL     1     -10.224   9.498  65.837  1.00  0.00    -0.358 F  
HETATM   25  C   UNL     1      -9.340  13.034  67.697  1.00  0.00    -0.202 A  
HETATM   26  C   UNL     1      -9.894  10.652  66.427  1.00  0.00    -0.211 A  
HETATM   27  F   UNL     1      -6.898  12.903  69.171  1.00  0.00    -0.097 F  
HETATM   28  F   UNL     1      -5.888  11.736  67.664  1.00  0.00    -0.045 F  
HETATM   29  C   UNL     1     -10.940  11.500  66.792  1.00  0.00    -0.347 A  
HETATM   30  C   UNL     1     -10.661  12.712  67.400  1.00  0.00    -0.251 A  
ENDBRANCH  19  20
ENDBRANCH  13  19
BRANCH  18  31
HETATM   31  C   UNL     1      -6.981   6.622  69.275  1.00  0.00    -0.074 C  
BRANCH  31  32
HETATM   32  C   UNL     1      -8.247   6.044  69.988  1.00  0.00    -0.122 C  
BRANCH  32  33
HETATM   33  N   UNL     1      -9.484   6.084  69.162  1.00  0.00    -0.127 NA 
HETATM   34  H   UNL     1      -9.337   6.662  68.334  1.00  0.00     0.000 HD 
BRANCH  33  35
HETATM   35  C   UNL     1     -10.011   4.778  68.776  1.00  0.00    -0.112 C  
BRANCH  35  36
HETATM   36  C   UNL     1      -9.623   3.709  69.809  1.00  0.00    -0.228 C  
BRANCH  36  37
HETATM   37  C   UNL     1      -8.347   2.952  69.443  1.00  0.00    -0.088 C  
HETATM   38  O   UNL     1      -6.424   2.899  70.894  1.00  0.00    -0.022 OA 
HETATM   39  C   UNL     1      -7.560   2.520  70.653  1.00  0.00    -0.036 C  
HETATM   40  O   UNL     1      -8.206   1.626  71.430  1.00  0.00    -0.043 OA 
ENDBRANCH  36  37
ENDBRANCH  35  36
ENDBRANCH  33  35
ENDBRANCH  32  33
BRANCH  32  41
HETATM   41  C   UNL     1      -8.554   6.762  71.306  1.00  0.00    -0.125 A  
HETATM   42  C   UNL     1     -10.115   8.000  72.707  1.00  0.00    -0.378 A  
HETATM   43  C   UNL     1      -7.859   7.649  73.472  1.00  0.00    -0.169 A  
HETATM   44  C   UNL     1      -9.831   7.299  71.532  1.00  0.00    -0.182 A  
HETATM   45  C   UNL     1      -7.575   6.938  72.302  1.00  0.00    -0.092 A  
HETATM   46  C   UNL     1      -9.129   8.178  73.675  1.00  0.00    -0.235 A  
ENDBRANCH  32  41
ENDBRANCH  31  32
ENDBRANCH  18  31
ENDBRANCH   6  10
ENDBRANCH   2   3
TORSDOF 11
ENDMDL
MODEL      183
REMARK 921   NORMALIZED FREE ENERGY PREDICTED BY IDOCK:   -2.95 KCAL/MOL
REMARK 922        TOTAL FREE ENERGY PREDICTED BY IDOCK:   -7.90 KCAL/MOL
REMARK 923 INTER-LIGAND FREE ENERGY PREDICTED BY IDOCK:   -7.10 KCAL/MOL
REMARK 924 INTRA-LIGAND FREE ENERGY PREDICTED BY IDOCK:   -0.80 KCAL/MOL
REMARK 927      BINDING AFFINITY PREDICTED BY RF-SCORE:    0.00 PKD
ROOT
HETATM    1  C   UNL     1      -6.967   2.761  74.085  1.00  0.00    -0.036 C  
HETATM    2  O   UNL     1      -7.359   4.133  73.968  1.00  0.00    -0.065 OA 
ENDROOT
BRANCH   2   3
HETATM    3  C   UNL     1      -8.499   4.345  73.240  1.00  0.00    -0.098 A  
HETATM    4  C   UNL     1      -8.363   5.036  72.027  1.00  0.00    -0.124 A  
HETATM    5  F   UNL     1      -7.145   5.457  71.641  1.00  0.00    -0.061 F  
HETATM    6  C   UNL     1      -9.471   5.281  71.207  1.00  0.00    -0.197 A  
HETATM    7  C   UNL     1     -10.738   4.853  71.629  1.00  0.00    -0.069 A  
HETATM    8  C   UNL     1      -9.772   3.941  73.658  1.00  0.00    -0.140 A  
HETATM    9  C   UNL     1     -10.883   4.190  72.851  1.00  0.00    -0.207 A  
BRANCH   6  10
HETATM   10  C   UNL     1      -9.311   5.927  69.887  1.00  0.00    -0.173 C  
HETATM   11  C   UNL     1      -8.221   3.906  68.868  1.00  0.00    -0.083 C  
HETATM   12  C   UNL     1      -8.743   5.328  68.817  1.00  0.00    -0.090 C  
HETATM   13  N   UNL     1      -8.667   6.009  67.596  1.00  0.00    -0.106 N  
HETATM   14  C   UNL     1      -9.406   7.170  67.355  1.00  0.00    -0.127 C  
HETATM   15  C   UNL     1      -9.742   7.352  69.752  1.00  0.00    -0.170 C  
HETATM   16  O   UNL     1      -9.654   7.564  66.212  1.00  0.00    -0.157 OA 
HETATM   17  O   UNL     1      -9.992   8.022  70.754  1.00  0.00    -0.186 OA 
HETATM   18  N   UNL     1      -9.849   7.849  68.471  1.00  0.00    -0.172 N  
BRANCH  13  19
HETATM   19  C   UNL     1      -7.931   5.481  66.441  1.00  0.00    -0.105 C  
BRANCH  19  20
HETATM   20  C   UNL     1      -8.747   5.058  65.225  1.00  0.00    -0.149 A  
HETATM   21  F   UNL     1      -6.342   6.067  62.874  1.00  0.00    -0.024 F  
HETATM   22  C   UNL     1      -7.437   6.544  63.526  1.00  0.00    -0.075 C  
HETATM   23  C   UNL     1      -8.408   5.442  63.904  1.00  0.00    -0.109 A  
HETATM   24  F   UNL     1     -10.188   3.750  66.602  1.00  0.00    -0.148 F  
HETATM   25  C   UNL     1      -9.020   4.772  62.815  1.00  0.00    -0.102 A  
HETATM   26  C   UNL     1      -9.767   4.099  65.380  1.00  0.00    -0.201 A  
HETATM   27  F   UNL     1      -8.013   7.441  62.674  1.00  0.00    -0.117 F  
HETATM   28  F   UNL     1      -6.963   7.293  64.553  1.00  0.00    -0.046 F  
HETATM   29  C   UNL     1     -10.385   3.477  64.295  1.00  0.00    -0.191 A  
HETATM   30  C   UNL     1      -9.987   3.790  63.007  1.00  0.00    -0.158 A  
ENDBRANCH  19  20
ENDBRANCH  13  19
BRANCH  18  31
HETATM   31  C   UNL     1     -10.442   9.179  68.283  1.00  0.00    -0.208 C  
BRANCH  31  32
HETATM   32  C   UNL     1      -9.624  10.151  67.371  1.00  0.00    -0.154 C  
BRANCH  32  33
HETATM   33  N   UNL     1      -8.607  10.958  68.099  1.00  0.00    -0.127 NA 
HETATM   34  H   UNL     1      -8.831  10.995  69.093  1.00  0.00     0.000 HD 
BRANCH  33  35
HETATM   35  C   UNL     1      -7.226  10.525  67.910  1.00  0.00    -0.084 C  
BRANCH  35  36
HETATM   36  C   UNL     1      -6.528  11.381  66.842  1.00  0.00    -0.138 C  
BRANCH  36  37
HETATM   37  C   UNL     1      -6.072  12.743  67.365  1.00  0.00    -0.123 C  
HETATM   38  O   UNL     1      -7.187  13.858  69.187  1.00  0.00    -0.104 OA 
HETATM   39  C   UNL     1      -6.444  12.966  68.807  1.00  0.00    -0.085 C  
HETATM   40  O   UNL     1      -5.836  12.116  69.663  1.00  0.00    -0.084 OA 
ENDBRANCH  36  37
ENDBRANCH  35  36
ENDBRANCH  33  35
ENDBRANCH  32  33
BRANCH  32  41
HETATM   41  C   UNL     1     -10.522  11.129  66.606  1.00  0.00    -0.298 A  
HETATM   42  C   UNL     1     -11.294  12.051  64.489  1.00  0.00    -0.393 A  
HETATM   43  C   UNL     1     -12.103  12.988  66.555  1.00  0.00    -0.410 A  
HETATM   44  C   UNL     1     -10.518  11.134  65.203  1.00  0.00    -0.341 A  
HETATM   45  C   UNL     1     -11.338  12.064  67.271  1.00  0.00    -0.394 A  
HETATM   46  C   UNL     1     -12.083  12.980  65.163  1.00  0.00    -0.476 A  
ENDBRANCH  32  41
ENDBRANCH  31  32
ENDBRANCH  18  31
ENDBRANCH   6  10
ENDBRANCH   2   3
TORSDOF 11
ENDMDL
MODEL      184
REMARK 921   NORMALIZED FREE ENERGY PREDICTED BY IDOCK:   -2.84 KCAL/MOL
REMARK 922        TOTAL FREE ENERGY PREDICTED BY IDOCK:   -7.72 KCAL/MOL
REMARK 923 INTER-LIGAND FREE ENERGY PREDICTED BY IDOCK:   -8.48 KCAL/MOL
REMARK 924 INTRA-LIGAND FREE ENERGY PREDICTED BY IDOCK:    0.76 KCAL/MOL
REMARK 927      BINDING AFFINITY PREDICTED BY RF-SCORE:    0.00 PKD
ROOT
HETATM    1  C   UNL     1      -6.372   6.794  68.648  1.00  0.00    -0.031 C  
HETATM    2  O   UNL     1      -7.092   7.907  69.190  1.00  0.00    -0.065 OA 
ENDROOT
BRANCH   2   3
HETATM    3  C   UNL     1      -7.676   8.722  68.258  1.00  0.00    -0.100 A  
HETATM    4  C   UNL     1      -7.656  10.101  68.513  1.00  0.00    -0.088 A  
HETATM    5  F   UNL     1      -7.081  10.555  69.641  1.00  0.00    -0.081 F  
HETATM    6  C   UNL     1      -8.211  11.013  67.605  1.00  0.00    -0.117 A  
HETATM    7  C   UNL     1      -8.823  10.526  66.442  1.00  0.00    -0.165 A  
HETATM    8  C   UNL     1      -8.307   8.249  67.101  1.00  0.00    -0.123 A  
HETATM    9  C   UNL     1      -8.872   9.150  66.197  1.00  0.00    -0.187 A  
BRANCH   6  10
HETATM   10  C   UNL     1      -8.107  12.469  67.832  1.00  0.00    -0.163 C  
HETATM   11  C   UNL     1      -5.842  12.620  66.756  1.00  0.00     0.709 C  
HETATM   12  C   UNL     1      -7.042  13.216  67.463  1.00  0.00    -0.150 C  
HETATM   13  N   UNL     1      -7.049  14.598  67.690  1.00  0.00    -0.172 N  
HETATM   14  C   UNL     1      -8.222  15.283  68.019  1.00  0.00    -0.141 C  
HETATM   15  C   UNL     1      -9.216  13.140  68.576  1.00  0.00    -0.066 C  
HETATM   16  O   UNL     1      -8.339  16.500  67.852  1.00  0.00    -0.169 OA 
HETATM   17  O   UNL     1     -10.055  12.469  69.178  1.00  0.00     0.091 OA 
HETATM   18  N   UNL     1      -9.246  14.517  68.537  1.00  0.00    -0.192 N  
BRANCH  13  19
HETATM   19  C   UNL     1      -5.872  15.443  67.456  1.00  0.00    -0.020 C  
BRANCH  19  20
HETATM   20  C   UNL     1      -5.783  16.750  68.234  1.00  0.00    -0.118 A  
HETATM   21  F   UNL     1      -7.301  18.698  65.737  1.00  0.00    -0.285 F  
HETATM   22  C   UNL     1      -6.069  18.293  66.148  1.00  0.00    -0.200 C  
HETATM   23  C   UNL     1      -6.020  18.014  67.638  1.00  0.00    -0.159 A  
HETATM   24  F   UNL     1      -5.344  15.561  70.253  1.00  0.00    -0.111 F  
HETATM   25  C   UNL     1      -6.220  19.142  68.474  1.00  0.00    -0.258 A  
HETATM   26  C   UNL     1      -5.646  16.710  69.635  1.00  0.00    -0.180 A  
HETATM   27  F   UNL     1      -5.215  19.301  65.806  1.00  0.00    -0.154 F  
HETATM   28  F   UNL     1      -5.728  17.258  65.341  1.00  0.00     0.035 F  
HETATM   29  C   UNL     1      -5.809  17.838  70.439  1.00  0.00    -0.052 A  
HETATM   30  C   UNL     1      -6.130  19.053  69.860  1.00  0.00    -0.255 A  
ENDBRANCH  19  20
ENDBRANCH  13  19
BRANCH  18  31
HETATM   31  C   UNL     1     -10.414  15.209  69.096  1.00  0.00    -0.252 C  
BRANCH  31  32
HETATM   32  C   UNL     1     -11.757  14.975  68.330  1.00  0.00    -0.314 C  
BRANCH  32  33
HETATM   33  N   UNL     1     -12.755  14.168  69.082  1.00  0.00    -0.288 NA 
HETATM   34  H   UNL     1     -13.171  13.464  68.473  1.00  0.00     0.000 HD 
BRANCH  33  35
HETATM   35  C   UNL     1     -12.252  13.545  70.302  1.00  0.00    -0.347 C  
BRANCH  35  36
HETATM   36  C   UNL     1     -12.364  12.015  70.217  1.00  0.00    -0.275 C  
BRANCH  36  37
HETATM   37  C   UNL     1     -12.809  11.369  71.530  1.00  0.00    -0.508 C  
HETATM   38  O   UNL     1     -13.410   9.040  71.676  1.00  0.00    -0.348 OA 
HETATM   39  C   UNL     1     -12.538   9.888  71.570  1.00  0.00    -0.416 C  
HETATM   40  O   UNL     1     -11.224   9.575  71.532  1.00  0.00    -0.372 OA 
ENDBRANCH  36  37
ENDBRANCH  35  36
ENDBRANCH  33  35
ENDBRANCH  32  33
BRANCH  32  41
HETATM   41  C   UNL     1     -11.545  14.293  66.974  1.00  0.00    -0.406 A  
HETATM   42  C   UNL     1     -10.948  14.445  64.619  1.00  0.00    -0.367 A  
HETATM   43  C   UNL     1     -11.680  12.336  65.520  1.00  0.00    -0.433 A  
HETATM   44  C   UNL     1     -11.100  15.040  65.874  1.00  0.00    -0.334 A  
HETATM   45  C   UNL     1     -11.822  12.926  66.780  1.00  0.00    -0.452 A  
HETATM   46  C   UNL     1     -11.241  13.095  64.440  1.00  0.00    -0.403 A  
ENDBRANCH  32  41
ENDBRANCH  31  32
ENDBRANCH  18  31
ENDBRANCH   6  10
ENDBRANCH   2   3
TORSDOF 11
ENDMDL
MODEL      185
REMARK 921   NORMALIZED FREE ENERGY PREDICTED BY IDOCK:   -2.83 KCAL/MOL
REMARK 922        TOTAL FREE ENERGY PREDICTED BY IDOCK:   -7.71 KCAL/MOL
REMARK 923 INTER-LIGAND FREE ENERGY PREDICTED BY IDOCK:   -6.78 KCAL/MOL
REMARK 924 INTRA-LIGAND FREE ENERGY PREDICTED BY IDOCK:   -0.93 KCAL/MOL
REMARK 927      BINDING AFFINITY PREDICTED BY RF-SCORE:    0.00 PKD
ROOT
HETATM    1  C   UNL     1     -11.884  13.113  67.190  1.00  0.00    -0.369 C  
HETATM    2  O   UNL     1     -11.255  13.319  68.459  1.00  0.00    -0.240 OA 
ENDROOT
BRANCH   2   3
HETATM    3  C   UNL     1     -11.553  12.377  69.408  1.00  0.00    -0.307 A  
HETATM    4  C   UNL     1     -10.894  11.143  69.310  1.00  0.00    -0.229 A  
HETATM    5  F   UNL     1     -10.021  10.938  68.308  1.00  0.00    -0.158 F  
HETATM    6  C   UNL     1     -11.121  10.127  70.248  1.00  0.00    -0.384 A  
HETATM    7  C   UNL     1     -12.046  10.346  71.278  1.00  0.00    -0.461 A  
HETATM    8  C   UNL     1     -12.488  12.575  70.429  1.00  0.00    -0.215 A  
HETATM    9  C   UNL     1     -12.727  11.564  71.362  1.00  0.00    -0.469 A  
BRANCH   6  10
HETATM   10  C   UNL     1     -10.357   8.862  70.197  1.00  0.00    -0.228 C  
HETATM   11  C   UNL     1     -12.430   7.446  70.093  1.00  0.00     0.532 C  
HETATM   12  C   UNL     1     -10.928   7.638  70.134  1.00  0.00    -0.246 C  
HETATM   13  N   UNL     1     -10.120   6.497  70.054  1.00  0.00    -0.172 N  
HETATM   14  C   UNL     1      -8.759   6.580  69.748  1.00  0.00    -0.143 C  
HETATM   15  C   UNL     1      -8.868   8.943  70.291  1.00  0.00    -0.175 C  
HETATM   16  O   UNL     1      -8.126   5.617  69.306  1.00  0.00    -0.094 OA 
HETATM   17  O   UNL     1      -8.324   9.992  70.637  1.00  0.00    -0.087 OA 
HETATM   18  N   UNL     1      -8.163   7.805  69.965  1.00  0.00    -0.119 N  
BRANCH  13  19
HETATM   19  C   UNL     1     -10.665   5.136  70.136  1.00  0.00    -0.034 C  
BRANCH  19  20
HETATM   20  C   UNL     1      -9.869   4.112  70.936  1.00  0.00    -0.247 A  
HETATM   21  F   UNL     1     -11.400   4.863  74.006  1.00  0.00    -0.324 F  
HETATM   22  C   UNL     1     -10.320   5.216  73.258  1.00  0.00    -0.204 C  
HETATM   23  C   UNL     1      -9.853   4.092  72.353  1.00  0.00    -0.220 A  
HETATM   24  F   UNL     1      -9.187   3.020  68.930  1.00  0.00    -0.159 F  
HETATM   25  C   UNL     1      -9.350   2.945  73.019  1.00  0.00    -0.122 A  
HETATM   26  C   UNL     1      -9.274   3.025  70.265  1.00  0.00    -0.143 A  
HETATM   27  F   UNL     1      -9.350   5.567  74.151  1.00  0.00    -0.129 F  
HETATM   28  F   UNL     1     -10.658   6.374  72.637  1.00  0.00    -0.206 F  
HETATM   29  C   UNL     1      -8.750   1.922  70.940  1.00  0.00    -0.103 A  
HETATM   30  C   UNL     1      -8.818   1.865  72.321  1.00  0.00    -0.094 A  
ENDBRANCH  19  20
ENDBRANCH  13  19
BRANCH  18  31
HETATM   31  C   UNL     1      -6.701   7.891  69.866  1.00  0.00    -0.037 C  
BRANCH  31  32
HETATM   32  C   UNL     1      -6.156   8.463  68.516  1.00  0.00    -0.045 C  
BRANCH  32  33
HETATM   33  N   UNL     1      -6.760   9.763  68.117  1.00  0.00    -0.061 NA 
HETATM   34  H   UNL     1      -7.425  10.075  68.824  1.00  0.00     0.000 HD 
BRANCH  33  35
HETATM   35  C   UNL     1      -5.800  10.824  67.825  1.00  0.00    -0.043 C  
BRANCH  35  36
HETATM   36  C   UNL     1      -6.390  12.200  68.173  1.00  0.00    -0.055 C  
BRANCH  36  37
HETATM   37  C   UNL     1      -5.440  13.074  68.992  1.00  0.00    -0.069 C  
HETATM   38  O   UNL     1      -6.047  13.955  71.151  1.00  0.00    -0.181 OA 
HETATM   39  C   UNL     1      -5.712  12.997  70.472  1.00  0.00    -0.173 C  
HETATM   40  O   UNL     1      -5.498  11.773  71.001  1.00  0.00    -0.247 OA 
ENDBRANCH  36  37
ENDBRANCH  35  36
ENDBRANCH  33  35
ENDBRANCH  32  33
BRANCH  32  41
HETATM   41  C   UNL     1      -6.351   7.490  67.349  1.00  0.00    -0.053 A  
HETATM   42  C   UNL     1      -7.643   6.764  65.416  1.00  0.00    -0.090 A  
HETATM   43  C   UNL     1      -5.735   5.473  66.119  1.00  0.00    -0.017 A  
HETATM   44  C   UNL     1      -7.421   7.669  66.458  1.00  0.00    -0.092 A  
HETATM   45  C   UNL     1      -5.504   6.383  67.155  1.00  0.00    -0.012 A  
HETATM   46  C   UNL     1      -6.804   5.665  65.248  1.00  0.00    -0.052 A  
ENDBRANCH  32  41
ENDBRANCH  31  32
ENDBRANCH  18  31
ENDBRANCH   6  10
ENDBRANCH   2   3
TORSDOF 11
ENDMDL
MODEL      186
REMARK 921   NORMALIZED FREE ENERGY PREDICTED BY IDOCK:   -2.80 KCAL/MOL
REMARK 922        TOTAL FREE ENERGY PREDICTED BY IDOCK:   -7.65 KCAL/MOL
REMARK 923 INTER-LIGAND FREE ENERGY PREDICTED BY IDOCK:   -6.14 KCAL/MOL
REMARK 924 INTRA-LIGAND FREE ENERGY PREDICTED BY IDOCK:   -1.52 KCAL/MOL
REMARK 927      BINDING AFFINITY PREDICTED BY RF-SCORE:    0.00 PKD
ROOT
HETATM    1  C   UNL     1     -10.766  16.358  70.198  1.00  0.00    -0.207 C  
HETATM    2  O   UNL     1      -9.821  15.528  69.514  1.00  0.00    -0.255 OA 
ENDROOT
BRANCH   2   3
HETATM    3  C   UNL     1     -10.326  14.846  68.440  1.00  0.00    -0.233 A  
HETATM    4  C   UNL     1     -10.058  13.471  68.373  1.00  0.00    -0.240 A  
HETATM    5  F   UNL     1      -9.326  12.894  69.343  1.00  0.00     0.423 F  
HETATM    6  C   UNL     1     -10.551  12.688  67.321  1.00  0.00    -0.244 A  
HETATM    7  C   UNL     1     -11.297  13.305  66.307  1.00  0.00    -0.336 A  
HETATM    8  C   UNL     1     -11.056  15.451  67.411  1.00  0.00    -0.311 A  
HETATM    9  C   UNL     1     -11.543  14.680  66.354  1.00  0.00    -0.343 A  
BRANCH   6  10
HETATM   10  C   UNL     1     -10.345  11.225  67.302  1.00  0.00    -0.236 C  
HETATM   11  C   UNL     1     -12.026  10.818  69.124  1.00  0.00    -0.302 C  
HETATM   12  C   UNL     1     -10.995  10.360  68.113  1.00  0.00    -0.281 C  
HETATM   13  N   UNL     1     -10.758   8.985  67.997  1.00  0.00    -0.175 N  
HETATM   14  C   UNL     1     -10.095   8.444  66.892  1.00  0.00    -0.294 C  
HETATM   15  C   UNL     1      -9.304  10.680  66.379  1.00  0.00    -0.169 C  
HETATM   16  O   UNL     1     -10.205   7.255  66.580  1.00  0.00    -0.183 OA 
HETATM   17  O   UNL     1      -8.495  11.436  65.840  1.00  0.00    -0.120 OA 
HETATM   18  N   UNL     1      -9.315   9.318  66.165  1.00  0.00    -0.193 N  
BRANCH  13  19
HETATM   19  C   UNL     1     -11.310   8.006  68.941  1.00  0.00     0.659 C  
BRANCH  19  20
HETATM   20  C   UNL     1     -10.904   8.139  70.404  1.00  0.00    -0.237 A  
HETATM   21  F   UNL     1     -13.994   7.062  71.680  1.00  0.00    -0.433 F  
HETATM   22  C   UNL     1     -13.345   8.205  71.328  1.00  0.00    -0.121 C  
HETATM   23  C   UNL     1     -11.840   8.080  71.467  1.00  0.00    -0.328 A  
HETATM   24  F   UNL     1      -8.604   8.265  69.793  1.00  0.00    -0.121 F  
HETATM   25  C   UNL     1     -11.366   7.906  72.792  1.00  0.00    -0.453 A  
HETATM   26  C   UNL     1      -9.537   8.133  70.743  1.00  0.00    -0.166 A  
HETATM   27  F   UNL     1     -13.839   9.178  72.146  1.00  0.00    -0.386 F  
HETATM   28  F   UNL     1     -13.800   8.525  70.090  1.00  0.00     1.021 F  
HETATM   29  C   UNL     1      -9.089   7.998  72.057  1.00  0.00    -0.217 A  
HETATM   30  C   UNL     1     -10.006   7.850  73.084  1.00  0.00    -0.358 A  
ENDBRANCH  19  20
ENDBRANCH  13  19
BRANCH  18  31
HETATM   31  C   UNL     1      -8.433   8.764  65.130  1.00  0.00    -0.174 C  
BRANCH  31  32
HETATM   32  C   UNL     1      -7.034   8.281  65.634  1.00  0.00    -0.067 C  
BRANCH  32  33
HETATM   33  N   UNL     1      -7.069   7.005  66.398  1.00  0.00    -0.072 NA 
HETATM   34  H   UNL     1      -7.676   7.098  67.212  1.00  0.00     0.000 HD 
BRANCH  33  35
HETATM   35  C   UNL     1      -7.449   5.829  65.619  1.00  0.00    -0.077 C  
BRANCH  35  36
HETATM   36  C   UNL     1      -7.257   4.546  66.443  1.00  0.00    -0.076 C  
BRANCH  36  37
HETATM   37  C   UNL     1      -8.465   4.205  67.316  1.00  0.00    -0.100 C  
HETATM   38  O   UNL     1      -9.353   1.969  67.462  1.00  0.00    -0.148 OA 
HETATM   39  C   UNL     1      -8.474   2.764  67.757  1.00  0.00    -0.086 C  
HETATM   40  O   UNL     1      -7.440   2.436  68.561  1.00  0.00    -0.047 OA 
ENDBRANCH  36  37
ENDBRANCH  35  36
ENDBRANCH  33  35
ENDBRANCH  32  33
BRANCH  32  41
HETATM   41  C   UNL     1      -6.339   9.323  66.516  1.00  0.00    -0.066 A  
HETATM   42  C   UNL     1      -5.474   9.989  68.693  1.00  0.00    -0.039 A  
HETATM   43  C   UNL     1      -5.413  11.555  66.865  1.00  0.00    -0.126 A  
HETATM   44  C   UNL     1      -6.063   9.033  67.861  1.00  0.00    -0.051 A  
HETATM   45  C   UNL     1      -5.992  10.597  66.028  1.00  0.00    -0.128 A  
HETATM   46  C   UNL     1      -5.152  11.250  68.197  1.00  0.00    -0.039 A  
ENDBRANCH  32  41
ENDBRANCH  31  32
ENDBRANCH  18  31
ENDBRANCH   6  10
ENDBRANCH   2   3
TORSDOF 11
ENDMDL
MODEL      187
REMARK 921   NORMALIZED FREE ENERGY PREDICTED BY IDOCK:   -2.77 KCAL/MOL
REMARK 922        TOTAL FREE ENERGY PREDICTED BY IDOCK:   -7.61 KCAL/MOL
REMARK 923 INTER-LIGAND FREE ENERGY PREDICTED BY IDOCK:   -7.48 KCAL/MOL
REMARK 924 INTRA-LIGAND FREE ENERGY PREDICTED BY IDOCK:   -0.12 KCAL/MOL
REMARK 927      BINDING AFFINITY PREDICTED BY RF-SCORE:    0.00 PKD
ROOT
HETATM    1  C   UNL     1      -5.773  18.302  65.087  1.00  0.00    -0.141 C  
HETATM    2  O   UNL     1      -6.995  18.321  65.834  1.00  0.00    -0.262 OA 
ENDROOT
BRANCH   2   3
HETATM    3  C   UNL     1      -6.947  17.660  67.032  1.00  0.00    -0.178 A  
HETATM    4  C   UNL     1      -7.344  16.315  67.035  1.00  0.00    -0.229 A  
HETATM    5  F   UNL     1      -7.752  15.745  65.888  1.00  0.00     0.155 F  
HETATM    6  C   UNL     1      -7.308  15.554  68.211  1.00  0.00    -0.117 A  
HETATM    7  C   UNL     1      -6.898  16.165  69.405  1.00  0.00    -0.214 A  
HETATM    8  C   UNL     1      -6.558  18.263  68.234  1.00  0.00    -0.210 A  
HETATM    9  C   UNL     1      -6.530  17.514  69.411  1.00  0.00    -0.230 A  
BRANCH   6  10
HETATM   10  C   UNL     1      -7.639  14.114  68.194  1.00  0.00    -0.136 C  
HETATM   11  C   UNL     1      -5.233  13.412  68.380  1.00  0.00    -0.093 C  
HETATM   12  C   UNL     1      -6.717  13.127  68.262  1.00  0.00    -0.101 C  
HETATM   13  N   UNL     1      -7.129  11.789  68.273  1.00  0.00    -0.074 N  
HETATM   14  C   UNL     1      -8.460  11.432  68.505  1.00  0.00    -0.152 C  
HETATM   15  C   UNL     1      -9.072  13.730  68.020  1.00  0.00    -0.191 C  
HETATM   16  O   UNL     1      -8.778  10.304  68.892  1.00  0.00    -0.133 OA 
HETATM   17  O   UNL     1      -9.901  14.569  67.668  1.00  0.00    -0.220 OA 
HETATM   18  N   UNL     1      -9.400  12.417  68.283  1.00  0.00    -0.211 N  
BRANCH  13  19
HETATM   19  C   UNL     1      -6.183  10.670  68.192  1.00  0.00    -0.057 C  
BRANCH  19  20
HETATM   20  C   UNL     1      -6.080   9.751  69.404  1.00  0.00    -0.040 A  
HETATM   21  F   UNL     1      -5.644   6.815  67.528  1.00  0.00    -0.013 F  
HETATM   22  C   UNL     1      -6.630   7.561  68.094  1.00  0.00    -0.050 C  
HETATM   23  C   UNL     1      -6.144   8.339  69.302  1.00  0.00    -0.038 A  
HETATM   24  F   UNL     1      -5.720  11.621  70.837  1.00  0.00    -0.140 F  
HETATM   25  C   UNL     1      -5.740   7.551  70.409  1.00  0.00    -0.023 A  
HETATM   26  C   UNL     1      -5.723  10.296  70.653  1.00  0.00    -0.090 A  
HETATM   27  F   UNL     1      -7.612   6.678  68.437  1.00  0.00    -0.093 F  
HETATM   28  F   UNL     1      -7.162   8.301  67.089  1.00  0.00    -0.077 F  
HETATM   29  C   UNL     1      -5.365   9.503  71.743  1.00  0.00    -0.076 A  
HETATM   30  C   UNL     1      -5.341   8.125  71.613  1.00  0.00    -0.034 A  
ENDBRANCH  19  20
ENDBRANCH  13  19
BRANCH  18  31
HETATM   31  C   UNL     1     -10.818  12.040  68.304  1.00  0.00    -0.229 C  
BRANCH  31  32
HETATM   32  C   UNL     1     -11.316  11.247  67.051  1.00  0.00    -0.187 C  
BRANCH  32  33
HETATM   33  N   UNL     1     -10.339  10.250  66.533  1.00  0.00    -0.228 NA 
HETATM   34  H   UNL     1     -10.823   9.399  66.248  1.00  0.00     0.000 HD 
BRANCH  33  35
HETATM   35  C   UNL     1      -9.484  10.730  65.451  1.00  0.00    -0.214 C  
BRANCH  35  36
HETATM   36  C   UNL     1      -8.946   9.554  64.621  1.00  0.00    -0.266 C  
BRANCH  36  37
HETATM   37  C   UNL     1      -8.127   9.996  63.409  1.00  0.00    -0.158 C  
HETATM   38  O   UNL     1      -5.782  10.526  63.568  1.00  0.00    -0.149 OA 
HETATM   39  C   UNL     1      -6.661   9.679  63.551  1.00  0.00    -0.110 C  
HETATM   40  O   UNL     1      -6.395   8.356  63.605  1.00  0.00    -0.072 OA 
ENDBRANCH  36  37
ENDBRANCH  35  36
ENDBRANCH  33  35
ENDBRANCH  32  33
BRANCH  32  41
HETATM   41  C   UNL     1     -11.689  12.169  65.886  1.00  0.00    -0.393 A  
HETATM   42  C   UNL     1     -12.507  14.321  65.092  1.00  0.00    -0.423 A  
HETATM   43  C   UNL     1     -12.055  12.567  63.505  1.00  0.00    -0.653 A  
HETATM   44  C   UNL     1     -12.117  13.481  66.139  1.00  0.00    -0.482 A  
HETATM   45  C   UNL     1     -11.652  11.730  64.549  1.00  0.00    -0.299 A  
HETATM   46  C   UNL     1     -12.480  13.864  63.776  1.00  0.00    -0.150 A  
ENDBRANCH  32  41
ENDBRANCH  31  32
ENDBRANCH  18  31
ENDBRANCH   6  10
ENDBRANCH   2   3
TORSDOF 11
ENDMDL
MODEL      188
REMARK 921   NORMALIZED FREE ENERGY PREDICTED BY IDOCK:   -2.74 KCAL/MOL
REMARK 922        TOTAL FREE ENERGY PREDICTED BY IDOCK:   -7.56 KCAL/MOL
REMARK 923 INTER-LIGAND FREE ENERGY PREDICTED BY IDOCK:   -8.13 KCAL/MOL
REMARK 924 INTRA-LIGAND FREE ENERGY PREDICTED BY IDOCK:    0.57 KCAL/MOL
REMARK 927      BINDING AFFINITY PREDICTED BY RF-SCORE:    0.00 PKD
ROOT
HETATM    1  C   UNL     1      -9.445  15.734  69.573  1.00  0.00    -0.248 C  
HETATM    2  O   UNL     1      -8.400  15.805  68.597  1.00  0.00    -0.162 OA 
ENDROOT
BRANCH   2   3
HETATM    3  C   UNL     1      -7.406  14.876  68.751  1.00  0.00    -0.127 A  
HETATM    4  C   UNL     1      -7.766  13.527  68.622  1.00  0.00    -0.093 A  
HETATM    5  F   UNL     1      -9.047  13.208  68.364  1.00  0.00    -0.188 F  
HETATM    6  C   UNL     1      -6.812  12.509  68.744  1.00  0.00    -0.096 A  
HETATM    7  C   UNL     1      -5.483  12.853  69.031  1.00  0.00    -0.069 A  
HETATM    8  C   UNL     1      -6.080  15.204  69.057  1.00  0.00    -0.098 A  
HETATM    9  C   UNL     1      -5.125  14.195  69.190  1.00  0.00    -0.078 A  
BRANCH   6  10
HETATM   10  C   UNL     1      -7.176  11.094  68.516  1.00  0.00    -0.088 C  
HETATM   11  C   UNL     1      -6.265  10.351  70.737  1.00  0.00    -0.033 C  
HETATM   12  C   UNL     1      -6.933  10.101  69.399  1.00  0.00    -0.076 C  
HETATM   13  N   UNL     1      -7.347   8.795  69.109  1.00  0.00    -0.071 N  
HETATM   14  C   UNL     1      -8.253   8.523  68.080  1.00  0.00    -0.120 C  
HETATM   15  C   UNL     1      -7.787  10.736  67.201  1.00  0.00    -0.124 C  
HETATM   16  O   UNL     1      -8.911   7.479  68.045  1.00  0.00    -0.130 OA 
HETATM   17  O   UNL     1      -7.763  11.537  66.266  1.00  0.00    -0.069 OA 
HETATM   18  N   UNL     1      -8.372   9.491  67.106  1.00  0.00    -0.130 N  
BRANCH  13  19
HETATM   19  C   UNL     1      -6.984   7.646  69.948  1.00  0.00    -0.054 C  
BRANCH  19  20
HETATM   20  C   UNL     1      -8.112   6.729  70.405  1.00  0.00    -0.116 A  
HETATM   21  F   UNL     1      -9.942   9.265  72.002  1.00  0.00    -0.381 F  
HETATM   22  C   UNL     1      -8.987   8.334  72.269  1.00  0.00    -0.213 C  
HETATM   23  C   UNL     1      -9.086   7.128  71.354  1.00  0.00    -0.143 A  
HETATM   24  F   UNL     1      -7.401   5.035  68.887  1.00  0.00    -0.055 F  
HETATM   25  C   UNL     1     -10.263   6.350  71.500  1.00  0.00    -0.221 A  
HETATM   26  C   UNL     1      -8.321   5.507  69.736  1.00  0.00    -0.105 A  
HETATM   27  F   UNL     1      -9.170   7.981  73.574  1.00  0.00    -0.284 F  
HETATM   28  F   UNL     1      -7.804   8.996  72.249  1.00  0.00    -0.076 F  
HETATM   29  C   UNL     1      -9.468   4.736  69.921  1.00  0.00    -0.231 A  
HETATM   30  C   UNL     1     -10.460   5.174  70.781  1.00  0.00    -0.263 A  
ENDBRANCH  19  20
ENDBRANCH  13  19
BRANCH  18  31
HETATM   31  C   UNL     1      -9.141   9.169  65.898  1.00  0.00    -0.205 C  
BRANCH  31  32
HETATM   32  C   UNL     1     -10.406  10.057  65.656  1.00  0.00    -0.101 C  
BRANCH  32  33
HETATM   33  N   UNL     1     -10.191  11.174  64.697  1.00  0.00    -0.293 NA 
HETATM   34  H   UNL     1      -9.201  11.258  64.469  1.00  0.00     0.000 HD 
BRANCH  33  35
HETATM   35  C   UNL     1     -10.985  11.099  63.474  1.00  0.00    -0.115 C  
BRANCH  35  36
HETATM   36  C   UNL     1     -12.281  11.911  63.616  1.00  0.00    -0.586 C  
BRANCH  36  37
HETATM   37  C   UNL     1     -12.197  13.297  62.975  1.00  0.00     0.037 C  
HETATM   38  O   UNL     1     -12.667  15.313  64.210  1.00  0.00    -0.551 OA 
HETATM   39  C   UNL     1     -11.909  14.384  63.978  1.00  0.00    -0.194 C  
HETATM   40  O   UNL     1     -10.700  14.271  64.568  1.00  0.00    -0.388 OA 
ENDBRANCH  36  37
ENDBRANCH  35  36
ENDBRANCH  33  35
ENDBRANCH  32  33
BRANCH  32  41
HETATM   41  C   UNL     1     -10.950  10.664  66.952  1.00  0.00    -0.228 A  
HETATM   42  C   UNL     1     -11.744  10.372  69.236  1.00  0.00    -0.212 A  
HETATM   43  C   UNL     1     -11.800  12.561  68.234  1.00  0.00    -0.361 A  
HETATM   44  C   UNL     1     -11.202   9.843  68.062  1.00  0.00    -0.129 A  
HETATM   45  C   UNL     1     -11.247  12.036  67.063  1.00  0.00    -0.377 A  
HETATM   46  C   UNL     1     -12.046  11.729  69.322  1.00  0.00    -0.292 A  
ENDBRANCH  32  41
ENDBRANCH  31  32
ENDBRANCH  18  31
ENDBRANCH   6  10
ENDBRANCH   2   3
TORSDOF 11
ENDMDL
MODEL      189
REMARK 921   NORMALIZED FREE ENERGY PREDICTED BY IDOCK:   -2.71 KCAL/MOL
REMARK 922        TOTAL FREE ENERGY PREDICTED BY IDOCK:   -7.51 KCAL/MOL
REMARK 923 INTER-LIGAND FREE ENERGY PREDICTED BY IDOCK:   -7.23 KCAL/MOL
REMARK 924 INTRA-LIGAND FREE ENERGY PREDICTED BY IDOCK:   -0.28 KCAL/MOL
REMARK 927      BINDING AFFINITY PREDICTED BY RF-SCORE:    0.00 PKD
ROOT
HETATM    1  C   UNL     1     -12.521  12.676  63.681  1.00  0.00    -0.427 C  
HETATM    2  O   UNL     1     -12.114  11.376  63.242  1.00  0.00    -0.194 OA 
ENDROOT
BRANCH   2   3
HETATM    3  C   UNL     1     -10.783  11.102  63.413  1.00  0.00    -0.209 A  
HETATM    4  C   UNL     1     -10.288  11.134  64.724  1.00  0.00    -0.325 A  
HETATM    5  F   UNL     1     -11.122  11.432  65.737  1.00  0.00    -0.339 F  
HETATM    6  C   UNL     1      -8.944  10.847  64.997  1.00  0.00    -0.184 A  
HETATM    7  C   UNL     1      -8.081  10.555  63.931  1.00  0.00    -0.029 A  
HETATM    8  C   UNL     1      -9.906  10.829  62.356  1.00  0.00     0.020 A  
HETATM    9  C   UNL     1      -8.564  10.551  62.619  1.00  0.00    -0.234 A  
BRANCH   6  10
HETATM   10  C   UNL     1      -8.447  10.790  66.388  1.00  0.00    -0.158 C  
HETATM   11  C   UNL     1      -8.773  13.254  66.758  1.00  0.00    -0.093 C  
HETATM   12  C   UNL     1      -8.353  11.867  67.200  1.00  0.00    -0.174 C  
HETATM   13  N   UNL     1      -7.902  11.708  68.516  1.00  0.00    -0.136 N  
HETATM   14  C   UNL     1      -7.814  10.449  69.117  1.00  0.00    -0.134 C  
HETATM   15  C   UNL     1      -7.953   9.475  66.898  1.00  0.00    -0.109 C  
HETATM   16  O   UNL     1      -7.793  10.308  70.342  1.00  0.00    -0.153 OA 
HETATM   17  O   UNL     1      -7.748   8.544  66.119  1.00  0.00    -0.090 OA 
HETATM   18  N   UNL     1      -7.759   9.371  68.259  1.00  0.00    -0.083 N  
BRANCH  13  19
HETATM   19  C   UNL     1      -7.632  12.848  69.401  1.00  0.00     0.539 C  
BRANCH  19  20
HETATM   20  C   UNL     1      -7.227  14.162  68.745  1.00  0.00    -0.120 A  
HETATM   21  F   UNL     1      -9.718  16.073  70.320  1.00  0.00    -0.078 F  
HETATM   22  C   UNL     1      -9.505  15.361  69.180  1.00  0.00    -0.242 C  
HETATM   23  C   UNL     1      -8.040  15.323  68.789  1.00  0.00    -0.165 A  
HETATM   24  F   UNL     1      -5.132  13.233  68.091  1.00  0.00    -0.072 F  
HETATM   25  C   UNL     1      -7.474  16.572  68.431  1.00  0.00    -0.186 A  
HETATM   26  C   UNL     1      -5.922  14.304  68.233  1.00  0.00    -0.120 A  
HETATM   27  F   UNL     1     -10.257  15.970  68.219  1.00  0.00    -0.222 F  
HETATM   28  F   UNL     1     -10.097  14.156  69.376  1.00  0.00    -0.141 F  
HETATM   29  C   UNL     1      -5.396  15.537  67.849  1.00  0.00    -0.139 A  
HETATM   30  C   UNL     1      -6.162  16.682  67.980  1.00  0.00    -0.139 A  
ENDBRANCH  19  20
ENDBRANCH  13  19
BRANCH  18  31
HETATM   31  C   UNL     1      -7.453   8.051  68.823  1.00  0.00    -0.091 C  
BRANCH  31  32
HETATM   32  C   UNL     1      -8.684   7.258  69.372  1.00  0.00    -0.137 C  
BRANCH  32  33
HETATM   33  N   UNL     1      -8.426   6.541  70.650  1.00  0.00    -0.133 NA 
HETATM   34  H   UNL     1      -7.480   6.162  70.657  1.00  0.00     0.000 HD 
BRANCH  33  35
HETATM   35  C   UNL     1      -8.664   7.327  71.857  1.00  0.00    -0.115 C  
BRANCH  35  36
HETATM   36  C   UNL     1      -9.899   6.809  72.610  1.00  0.00    -0.183 C  
BRANCH  36  37
HETATM   37  C   UNL     1     -11.113   7.730  72.482  1.00  0.00    -0.403 C  
HETATM   38  O   UNL     1     -11.453   9.147  70.563  1.00  0.00    -0.262 OA 
HETATM   39  C   UNL     1     -11.468   8.027  71.049  1.00  0.00    -0.279 C  
HETATM   40  O   UNL     1     -11.863   6.940  70.350  1.00  0.00    -0.342 OA 
ENDBRANCH  36  37
ENDBRANCH  35  36
ENDBRANCH  33  35
ENDBRANCH  32  33
BRANCH  32  41
HETATM   41  C   UNL     1      -9.211   6.228  68.368  1.00  0.00    -0.112 A  
HETATM   42  C   UNL     1      -8.969   4.085  67.237  1.00  0.00    -0.148 A  
HETATM   43  C   UNL     1     -10.783   5.547  66.628  1.00  0.00    -0.332 A  
HETATM   44  C   UNL     1      -8.530   5.016  68.183  1.00  0.00    -0.099 A  
HETATM   45  C   UNL     1     -10.353   6.474  67.582  1.00  0.00    -0.239 A  
HETATM   46  C   UNL     1     -10.092   4.351  66.457  1.00  0.00    -0.217 A  
ENDBRANCH  32  41
ENDBRANCH  31  32
ENDBRANCH  18  31
ENDBRANCH   6  10
ENDBRANCH   2   3
TORSDOF 11
ENDMDL
MODEL      190
REMARK 921   NORMALIZED FREE ENERGY PREDICTED BY IDOCK:   -2.71 KCAL/MOL
REMARK 922        TOTAL FREE ENERGY PREDICTED BY IDOCK:   -7.51 KCAL/MOL
REMARK 923 INTER-LIGAND FREE ENERGY PREDICTED BY IDOCK:   -7.94 KCAL/MOL
REMARK 924 INTRA-LIGAND FREE ENERGY PREDICTED BY IDOCK:    0.43 KCAL/MOL
REMARK 927      BINDING AFFINITY PREDICTED BY RF-SCORE:    0.00 PKD
ROOT
HETATM    1  C   UNL     1      -9.731   4.079  65.181  1.00  0.00    -0.196 C  
HETATM    2  O   UNL     1      -8.583   4.578  64.487  1.00  0.00    -0.127 OA 
ENDROOT
BRANCH   2   3
HETATM    3  C   UNL     1      -8.177   5.829  64.871  1.00  0.00    -0.137 A  
HETATM    4  C   UNL     1      -8.817   6.394  65.983  1.00  0.00    -0.150 A  
HETATM    5  F   UNL     1      -9.786   5.702  66.609  1.00  0.00    -0.141 F  
HETATM    6  C   UNL     1      -8.454   7.660  66.461  1.00  0.00    -0.133 A  
HETATM    7  C   UNL     1      -7.454   8.378  65.789  1.00  0.00    -0.077 A  
HETATM    8  C   UNL     1      -7.195   6.565  64.199  1.00  0.00    -0.070 A  
HETATM    9  C   UNL     1      -6.834   7.831  64.662  1.00  0.00    -0.054 A  
BRANCH   6  10
HETATM   10  C   UNL     1      -9.065   8.213  67.687  1.00  0.00    -0.142 C  
HETATM   11  C   UNL     1      -7.531   6.929  69.206  1.00  0.00    -0.094 C  
HETATM   12  C   UNL     1      -8.669   7.892  68.939  1.00  0.00    -0.135 C  
HETATM   13  N   UNL     1      -9.287   8.496  70.041  1.00  0.00    -0.161 N  
HETATM   14  C   UNL     1     -10.098   9.626  69.901  1.00  0.00    -0.246 C  
HETATM   15  C   UNL     1     -10.236   9.129  67.530  1.00  0.00    -0.245 C  
HETATM   16  O   UNL     1     -10.335  10.383  70.846  1.00  0.00     0.312 OA 
HETATM   17  O   UNL     1     -10.809   9.222  66.444  1.00  0.00     0.040 OA 
HETATM   18  N   UNL     1     -10.614   9.849  68.642  1.00  0.00    -0.209 N  
BRANCH  13  19
HETATM   19  C   UNL     1      -9.015   8.084  71.423  1.00  0.00    -0.141 C  
BRANCH  19  20
HETATM   20  C   UNL     1      -9.710   6.824  71.928  1.00  0.00    -0.160 A  
HETATM   21  F   UNL     1      -7.202   5.994  74.241  1.00  0.00    -0.085 F  
HETATM   22  C   UNL     1      -7.560   5.755  72.950  1.00  0.00    -0.096 C  
HETATM   23  C   UNL     1      -9.058   5.862  72.738  1.00  0.00    -0.129 A  
HETATM   24  F   UNL     1     -11.763   7.516  70.934  1.00  0.00    -0.289 F  
HETATM   25  C   UNL     1      -9.838   4.889  73.413  1.00  0.00    -0.166 A  
HETATM   26  C   UNL     1     -11.101   6.687  71.749  1.00  0.00    -0.249 A  
HETATM   27  F   UNL     1      -7.109   4.498  72.668  1.00  0.00    -0.060 F  
HETATM   28  F   UNL     1      -6.794   6.579  72.192  1.00  0.00    -0.063 F  
HETATM   29  C   UNL     1     -11.846   5.699  72.393  1.00  0.00    -0.181 A  
HETATM   30  C   UNL     1     -11.219   4.817  73.255  1.00  0.00    -0.421 A  
ENDBRANCH  19  20
ENDBRANCH  13  19
BRANCH  18  31
HETATM   31  C   UNL     1     -11.637  10.891  68.487  1.00  0.00    -0.290 C  
BRANCH  31  32
HETATM   32  C   UNL     1     -11.086  12.344  68.309  1.00  0.00    -0.243 C  
BRANCH  32  33
HETATM   33  N   UNL     1      -9.619  12.471  68.524  1.00  0.00    -0.367 NA 
HETATM   34  H   UNL     1      -9.114  11.882  67.863  1.00  0.00     0.000 HD 
BRANCH  33  35
HETATM   35  C   UNL     1      -9.105  13.837  68.477  1.00  0.00    -0.133 C  
BRANCH  35  36
HETATM   36  C   UNL     1      -7.569  13.838  68.450  1.00  0.00    -0.135 C  
BRANCH  36  37
HETATM   37  C   UNL     1      -6.957  15.118  69.021  1.00  0.00    -0.131 C  
HETATM   38  O   UNL     1      -7.640  17.308  68.281  1.00  0.00    -0.209 OA 
HETATM   39  C   UNL     1      -7.887  16.299  68.924  1.00  0.00    -0.224 C  
HETATM   40  O   UNL     1      -9.010  16.169  69.663  1.00  0.00    -0.105 OA 
ENDBRANCH  36  37
ENDBRANCH  35  36
ENDBRANCH  33  35
ENDBRANCH  32  33
BRANCH  32  41
HETATM   41  C   UNL     1     -11.773  13.347  69.241  1.00  0.00    -0.383 A  
HETATM   42  C   UNL     1     -12.947  13.814  71.323  1.00  0.00    -0.409 A  
HETATM   43  C   UNL     1     -12.639  15.580  69.716  1.00  0.00    -0.097 A  
HETATM   44  C   UNL     1     -12.275  12.924  70.481  1.00  0.00    -0.395 A  
HETATM   45  C   UNL     1     -11.956  14.695  68.877  1.00  0.00    -0.309 A  
HETATM   46  C   UNL     1     -13.133  15.140  70.940  1.00  0.00    -0.498 A  
ENDBRANCH  32  41
ENDBRANCH  31  32
ENDBRANCH  18  31
ENDBRANCH   6  10
ENDBRANCH   2   3
TORSDOF 11
ENDMDL
MODEL      191
REMARK 921   NORMALIZED FREE ENERGY PREDICTED BY IDOCK:   -2.69 KCAL/MOL
REMARK 922        TOTAL FREE ENERGY PREDICTED BY IDOCK:   -7.48 KCAL/MOL
REMARK 923 INTER-LIGAND FREE ENERGY PREDICTED BY IDOCK:   -9.00 KCAL/MOL
REMARK 924 INTRA-LIGAND FREE ENERGY PREDICTED BY IDOCK:    1.53 KCAL/MOL
REMARK 927      BINDING AFFINITY PREDICTED BY RF-SCORE:    0.00 PKD
ROOT
HETATM    1  C   UNL     1     -12.725  11.916  64.164  1.00  0.00    -0.170 C  
HETATM    2  O   UNL     1     -11.924  11.564  63.031  1.00  0.00    -0.117 OA 
ENDROOT
BRANCH   2   3
HETATM    3  C   UNL     1     -10.671  11.103  63.334  1.00  0.00    -0.209 A  
HETATM    4  C   UNL     1     -10.265  11.192  64.673  1.00  0.00    -0.317 A  
HETATM    5  F   UNL     1     -11.102  11.722  65.583  1.00  0.00    -0.329 F  
HETATM    6  C   UNL     1      -9.007  10.727  65.079  1.00  0.00    -0.211 A  
HETATM    7  C   UNL     1      -8.136  10.193  64.118  1.00  0.00    -0.158 A  
HETATM    8  C   UNL     1      -9.784  10.586  62.382  1.00  0.00    -0.085 A  
HETATM    9  C   UNL     1      -8.526  10.129  62.777  1.00  0.00    -0.183 A  
BRANCH   6  10
HETATM   10  C   UNL     1      -8.618  10.737  66.505  1.00  0.00    -0.150 C  
HETATM   11  C   UNL     1      -8.435   8.234  66.623  1.00  0.00    -0.124 C  
HETATM   12  C   UNL     1      -8.361   9.623  67.226  1.00  0.00    -0.114 C  
HETATM   13  N   UNL     1      -7.964   9.736  68.564  1.00  0.00    -0.088 N  
HETATM   14  C   UNL     1      -7.546  10.954  69.107  1.00  0.00    -0.133 C  
HETATM   15  C   UNL     1      -8.574  12.057  67.206  1.00  0.00    -0.177 C  
HETATM   16  O   UNL     1      -6.851  11.013  70.125  1.00  0.00    -0.172 OA 
HETATM   17  O   UNL     1      -9.072  13.054  66.682  1.00  0.00    -0.230 OA 
HETATM   18  N   UNL     1      -7.949  12.088  68.434  1.00  0.00    -0.150 N  
BRANCH  13  19
HETATM   19  C   UNL     1      -7.818   8.571  69.445  1.00  0.00    -0.098 C  
BRANCH  19  20
HETATM   20  C   UNL     1      -9.010   7.628  69.562  1.00  0.00    -0.139 A  
HETATM   21  F   UNL     1     -11.374  10.179  70.045  1.00  0.00    -0.249 F  
HETATM   22  C   UNL     1     -10.564   9.350  70.758  1.00  0.00    -0.303 C  
HETATM   23  C   UNL     1     -10.280   8.052  70.027  1.00  0.00    -0.205 A  
HETATM   24  F   UNL     1      -7.734   5.841  68.634  1.00  0.00    -0.084 F  
HETATM   25  C   UNL     1     -11.403   7.212  69.822  1.00  0.00    -0.158 A  
HETATM   26  C   UNL     1      -8.919   6.331  69.019  1.00  0.00    -0.123 A  
HETATM   27  F   UNL     1     -11.213   9.122  71.936  1.00  0.00    -0.389 F  
HETATM   28  F   UNL     1      -9.478  10.090  71.096  1.00  0.00     0.028 F  
HETATM   29  C   UNL     1     -10.030   5.504  68.859  1.00  0.00    -0.236 A  
HETATM   30  C   UNL     1     -11.283   5.957  69.231  1.00  0.00    -0.255 A  
ENDBRANCH  19  20
ENDBRANCH  13  19
BRANCH  18  31
HETATM   31  C   UNL     1      -7.722  13.390  69.071  1.00  0.00     0.146 C  
BRANCH  31  32
HETATM   32  C   UNL     1      -8.603  14.561  68.527  1.00  0.00    -0.175 C  
BRANCH  32  33
HETATM   33  N   UNL     1      -7.959  15.900  68.613  1.00  0.00    -0.146 NA 
HETATM   34  H   UNL     1      -7.403  15.970  69.466  1.00  0.00     0.000 HD 
BRANCH  33  35
HETATM   35  C   UNL     1      -7.152  16.272  67.455  1.00  0.00    -0.168 C  
BRANCH  35  36
HETATM   36  C   UNL     1      -7.092  17.799  67.301  1.00  0.00    -0.201 C  
BRANCH  36  37
HETATM   37  C   UNL     1      -8.038  18.538  68.249  1.00  0.00    -0.324 C  
HETATM   38  O   UNL     1      -9.556  20.243  67.476  1.00  0.00    -0.387 OA 
HETATM   39  C   UNL     1      -9.268  19.058  67.552  1.00  0.00    -0.287 C  
HETATM   40  O   UNL     1     -10.065  18.087  67.058  1.00  0.00    -0.315 OA 
ENDBRANCH  36  37
ENDBRANCH  35  36
ENDBRANCH  33  35
ENDBRANCH  32  33
BRANCH  32  41
HETATM   41  C   UNL     1      -9.954  14.658  69.243  1.00  0.00    -0.100 A  
HETATM   42  C   UNL     1     -12.147  13.714  69.723  1.00  0.00    -0.396 A  
HETATM   43  C   UNL     1     -11.572  15.880  70.603  1.00  0.00    -0.426 A  
HETATM   44  C   UNL     1     -10.891  13.621  69.117  1.00  0.00    -0.189 A  
HETATM   45  C   UNL     1     -10.311  15.785  70.008  1.00  0.00    -0.286 A  
HETATM   46  C   UNL     1     -12.489  14.843  70.463  1.00  0.00    -0.419 A  
ENDBRANCH  32  41
ENDBRANCH  31  32
ENDBRANCH  18  31
ENDBRANCH   6  10
ENDBRANCH   2   3
TORSDOF 11
ENDMDL
MODEL      192
REMARK 921   NORMALIZED FREE ENERGY PREDICTED BY IDOCK:   -2.69 KCAL/MOL
REMARK 922        TOTAL FREE ENERGY PREDICTED BY IDOCK:   -7.48 KCAL/MOL
REMARK 923 INTER-LIGAND FREE ENERGY PREDICTED BY IDOCK:   -7.93 KCAL/MOL
REMARK 924 INTRA-LIGAND FREE ENERGY PREDICTED BY IDOCK:    0.46 KCAL/MOL
REMARK 927      BINDING AFFINITY PREDICTED BY RF-SCORE:    0.00 PKD
ROOT
HETATM    1  C   UNL     1     -14.062   7.393  72.092  1.00  0.00    -0.085 C  
HETATM    2  O   UNL     1     -13.249   8.084  73.045  1.00  0.00     0.359 OA 
ENDROOT
BRANCH   2   3
HETATM    3  C   UNL     1     -11.955   8.299  72.650  1.00  0.00    -0.295 A  
HETATM    4  C   UNL     1     -11.761   9.042  71.477  1.00  0.00    -0.345 A  
HETATM    5  F   UNL     1     -12.830   9.497  70.800  1.00  0.00    -0.307 F  
HETATM    6  C   UNL     1     -10.472   9.328  71.007  1.00  0.00    -0.384 A  
HETATM    7  C   UNL     1      -9.366   8.832  71.712  1.00  0.00    -0.350 A  
HETATM    8  C   UNL     1     -10.843   7.794  73.333  1.00  0.00    -0.167 A  
HETATM    9  C   UNL     1      -9.556   8.066  72.866  1.00  0.00    -0.348 A  
BRANCH   6  10
HETATM   10  C   UNL     1     -10.269  10.188  69.823  1.00  0.00    -0.286 C  
HETATM   11  C   UNL     1     -12.040  11.825  70.528  1.00  0.00    -0.439 C  
HETATM   12  C   UNL     1     -10.971  11.318  69.581  1.00  0.00    -0.151 C  
HETATM   13  N   UNL     1     -10.683  12.088  68.447  1.00  0.00    -0.220 N  
HETATM   14  C   UNL     1      -9.513  11.895  67.706  1.00  0.00    -0.184 C  
HETATM   15  C   UNL     1      -9.277   9.741  68.799  1.00  0.00    -0.143 C  
HETATM   16  O   UNL     1      -9.056  12.769  66.965  1.00  0.00    -0.207 OA 
HETATM   17  O   UNL     1      -8.830   8.594  68.826  1.00  0.00    -0.137 OA 
HETATM   18  N   UNL     1      -8.896  10.671  67.856  1.00  0.00    -0.130 N  
BRANCH  13  19
HETATM   19  C   UNL     1     -11.501  13.237  68.044  1.00  0.00    -0.309 C  
BRANCH  19  20
HETATM   20  C   UNL     1     -10.844  14.612  68.081  1.00  0.00    -0.256 A  
HETATM   21  F   UNL     1     -12.015  15.600  64.921  1.00  0.00    -0.182 F  
HETATM   22  C   UNL     1     -10.942  14.997  65.501  1.00  0.00    -0.358 C  
HETATM   23  C   UNL     1     -10.737  15.441  66.937  1.00  0.00    -0.314 A  
HETATM   24  F   UNL     1     -10.495  14.422  70.431  1.00  0.00     0.094 F  
HETATM   25  C   UNL     1     -10.397  16.807  67.107  1.00  0.00    -0.297 A  
HETATM   26  C   UNL     1     -10.491  15.173  69.324  1.00  0.00    -0.260 A  
HETATM   27  F   UNL     1      -9.870  15.324  64.724  1.00  0.00    -0.263 F  
HETATM   28  F   UNL     1     -11.115  13.665  65.313  1.00  0.00    -0.289 F  
HETATM   29  C   UNL     1     -10.123  16.511  69.467  1.00  0.00    -0.165 A  
HETATM   30  C   UNL     1     -10.108  17.341  68.359  1.00  0.00    -0.333 A  
ENDBRANCH  19  20
ENDBRANCH  13  19
BRANCH  18  31
HETATM   31  C   UNL     1      -7.792  10.336  66.947  1.00  0.00    -0.112 C  
BRANCH  31  32
HETATM   32  C   UNL     1      -8.185   9.451  65.720  1.00  0.00    -0.116 C  
BRANCH  32  33
HETATM   33  N   UNL     1      -8.172   7.988  65.993  1.00  0.00    -0.113 NA 
HETATM   34  H   UNL     1      -7.865   7.811  66.949  1.00  0.00     0.000 HD 
BRANCH  33  35
HETATM   35  C   UNL     1      -9.433   7.300  65.734  1.00  0.00     0.314 C  
BRANCH  35  36
HETATM   36  C   UNL     1      -9.573   6.063  66.634  1.00  0.00    -0.179 C  
BRANCH  36  37
HETATM   37  C   UNL     1      -8.515   4.994  66.357  1.00  0.00    -0.111 C  
HETATM   38  O   UNL     1      -9.058   2.648  66.258  1.00  0.00    -0.147 OA 
HETATM   39  C   UNL     1      -9.096   3.751  65.735  1.00  0.00    -0.149 C  
HETATM   40  O   UNL     1      -9.622   3.952  64.508  1.00  0.00    -0.152 OA 
ENDBRANCH  36  37
ENDBRANCH  35  36
ENDBRANCH  33  35
ENDBRANCH  32  33
BRANCH  32  41
HETATM   41  C   UNL     1      -7.281   9.698  64.508  1.00  0.00    -0.121 A  
HETATM   42  C   UNL     1      -5.170   9.322  63.353  1.00  0.00    -0.066 A  
HETATM   43  C   UNL     1      -6.786  10.834  62.404  1.00  0.00    -0.094 A  
HETATM   44  C   UNL     1      -6.029   9.071  64.427  1.00  0.00    -0.070 A  
HETATM   45  C   UNL     1      -7.651  10.575  63.471  1.00  0.00     0.035 A  
HETATM   46  C   UNL     1      -5.546  10.205  62.344  1.00  0.00    -0.104 A  
ENDBRANCH  32  41
ENDBRANCH  31  32
ENDBRANCH  18  31
ENDBRANCH   6  10
ENDBRANCH   2   3
TORSDOF 11
ENDMDL
MODEL      193
REMARK 921   NORMALIZED FREE ENERGY PREDICTED BY IDOCK:   -2.66 KCAL/MOL
REMARK 922        TOTAL FREE ENERGY PREDICTED BY IDOCK:   -7.44 KCAL/MOL
REMARK 923 INTER-LIGAND FREE ENERGY PREDICTED BY IDOCK:   -7.83 KCAL/MOL
REMARK 924 INTRA-LIGAND FREE ENERGY PREDICTED BY IDOCK:    0.39 KCAL/MOL
REMARK 927      BINDING AFFINITY PREDICTED BY RF-SCORE:    0.00 PKD
ROOT
HETATM    1  C   UNL     1      -9.624   4.711  68.909  1.00  0.00    -0.164 C  
HETATM    2  O   UNL     1      -8.789   5.736  69.459  1.00  0.00    -0.116 OA 
ENDROOT
BRANCH   2   3
HETATM    3  C   UNL     1      -8.126   6.495  68.532  1.00  0.00    -0.114 A  
HETATM    4  C   UNL     1      -8.494   7.844  68.430  1.00  0.00    -0.128 A  
HETATM    5  F   UNL     1      -9.468   8.324  69.225  1.00  0.00    -0.153 F  
HETATM    6  C   UNL     1      -7.856   8.702  67.525  1.00  0.00    -0.102 A  
HETATM    7  C   UNL     1      -6.855   8.186  66.689  1.00  0.00    -0.068 A  
HETATM    8  C   UNL     1      -7.139   5.989  67.679  1.00  0.00    -0.074 A  
HETATM    9  C   UNL     1      -6.505   6.835  66.767  1.00  0.00    -0.043 A  
BRANCH   6  10
HETATM   10  C   UNL     1      -8.183  10.143  67.484  1.00  0.00    -0.114 C  
HETATM   11  C   UNL     1      -6.522  10.718  69.280  1.00  0.00    -0.067 C  
HETATM   12  C   UNL     1      -7.598  11.072  68.273  1.00  0.00    -0.106 C  
HETATM   13  N   UNL     1      -7.949  12.421  68.137  1.00  0.00    -0.144 N  
HETATM   14  C   UNL     1      -8.665  12.886  67.031  1.00  0.00    -0.195 C  
HETATM   15  C   UNL     1      -9.274  10.584  66.564  1.00  0.00    -0.161 C  
HETATM   16  O   UNL     1      -8.657  14.075  66.699  1.00  0.00    -0.119 OA 
HETATM   17  O   UNL     1     -10.024   9.755  66.047  1.00  0.00    -0.256 OA 
HETATM   18  N   UNL     1      -9.378  11.938  66.328  1.00  0.00    -0.225 N  
BRANCH  13  19
HETATM   19  C   UNL     1      -7.469  13.458  69.059  1.00  0.00     0.064 C  
BRANCH  19  20
HETATM   20  C   UNL     1      -7.180  14.835  68.472  1.00  0.00    -0.115 A  
HETATM   21  F   UNL     1      -9.459  16.533  70.535  1.00  0.00     0.905 F  
HETATM   22  C   UNL     1      -9.394  15.928  69.318  1.00  0.00    -0.259 C  
HETATM   23  C   UNL     1      -7.997  15.964  68.730  1.00  0.00    -0.188 A  
HETATM   24  F   UNL     1      -5.180  14.024  67.460  1.00  0.00    -0.066 F  
HETATM   25  C   UNL     1      -7.506  17.255  68.409  1.00  0.00    -0.234 A  
HETATM   26  C   UNL     1      -5.961  15.056  67.802  1.00  0.00    -0.119 A  
HETATM   27  F   UNL     1     -10.282  16.595  68.526  1.00  0.00    -0.232 F  
HETATM   28  F   UNL     1      -9.934  14.695  69.485  1.00  0.00    -0.183 F  
HETATM   29  C   UNL     1      -5.512  16.332  67.461  1.00  0.00    -0.168 A  
HETATM   30  C   UNL     1      -6.271  17.440  67.795  1.00  0.00    -0.159 A  
ENDBRANCH  19  20
ENDBRANCH  13  19
BRANCH  18  31
HETATM   31  C   UNL     1     -10.313  12.400  65.295  1.00  0.00    -0.282 C  
BRANCH  31  32
HETATM   32  C   UNL     1     -11.722  12.834  65.815  1.00  0.00    -0.402 C  
BRANCH  32  33
HETATM   33  N   UNL     1     -12.072  14.249  65.519  1.00  0.00    -0.390 NA 
HETATM   34  H   UNL     1     -12.234  14.761  66.386  1.00  0.00     0.000 HD 
BRANCH  33  35
HETATM   35  C   UNL     1     -11.107  14.962  64.687  1.00  0.00    -0.323 C  
BRANCH  35  36
HETATM   36  C   UNL     1     -10.411  16.071  65.490  1.00  0.00    -0.415 C  
BRANCH  36  37
HETATM   37  C   UNL     1     -11.107  17.428  65.374  1.00  0.00     0.312 C  
HETATM   38  O   UNL     1     -10.954  19.101  67.102  1.00  0.00    -0.453 OA 
HETATM   39  C   UNL     1     -10.424  18.502  66.179  1.00  0.00    -0.413 C  
HETATM   40  O   UNL     1      -9.175  18.788  65.752  1.00  0.00    -0.394 OA 
ENDBRANCH  36  37
ENDBRANCH  35  36
ENDBRANCH  33  35
ENDBRANCH  32  33
BRANCH  32  41
HETATM   41  C   UNL     1     -11.874  12.632  67.326  1.00  0.00    -0.395 A  
HETATM   42  C   UNL     1     -12.092  11.131  69.232  1.00  0.00    -0.377 A  
HETATM   43  C   UNL     1     -12.223  13.511  69.577  1.00  0.00    -0.289 A  
HETATM   44  C   UNL     1     -11.905  11.336  67.862  1.00  0.00    -0.209 A  
HETATM   45  C   UNL     1     -12.024  13.718  68.209  1.00  0.00    -0.392 A  
HETATM   46  C   UNL     1     -12.255  12.217  70.089  1.00  0.00    -0.302 A  
ENDBRANCH  32  41
ENDBRANCH  31  32
ENDBRANCH  18  31
ENDBRANCH   6  10
ENDBRANCH   2   3
TORSDOF 11
ENDMDL
MODEL      194
REMARK 921   NORMALIZED FREE ENERGY PREDICTED BY IDOCK:   -2.65 KCAL/MOL
REMARK 922        TOTAL FREE ENERGY PREDICTED BY IDOCK:   -7.41 KCAL/MOL
REMARK 923 INTER-LIGAND FREE ENERGY PREDICTED BY IDOCK:   -7.06 KCAL/MOL
REMARK 924 INTRA-LIGAND FREE ENERGY PREDICTED BY IDOCK:   -0.35 KCAL/MOL
REMARK 927      BINDING AFFINITY PREDICTED BY RF-SCORE:    0.00 PKD
ROOT
HETATM    1  C   UNL     1     -11.907  13.023  67.101  1.00  0.00    -0.373 C  
HETATM    2  O   UNL     1     -11.120  13.195  68.285  1.00  0.00    -0.242 OA 
ENDROOT
BRANCH   2   3
HETATM    3  C   UNL     1     -11.409  12.321  69.299  1.00  0.00    -0.256 A  
HETATM    4  C   UNL     1     -10.779  11.068  69.260  1.00  0.00    -0.222 A  
HETATM    5  F   UNL     1      -9.942  10.781  68.248  1.00  0.00    -0.153 F  
HETATM    6  C   UNL     1     -10.999  10.118  70.266  1.00  0.00    -0.380 A  
HETATM    7  C   UNL     1     -11.888  10.422  71.307  1.00  0.00    -0.381 A  
HETATM    8  C   UNL     1     -12.309  12.604  70.333  1.00  0.00    -0.315 A  
HETATM    9  C   UNL     1     -12.540  11.659  71.333  1.00  0.00    -0.391 A  
BRANCH   6  10
HETATM   10  C   UNL     1     -10.264   8.835  70.273  1.00  0.00    -0.220 C  
HETATM   11  C   UNL     1     -12.368   7.464  70.330  1.00  0.00     0.141 C  
HETATM   12  C   UNL     1     -10.862   7.624  70.309  1.00  0.00    -0.246 C  
HETATM   13  N   UNL     1     -10.081   6.461  70.277  1.00  0.00    -0.178 N  
HETATM   14  C   UNL     1      -8.729   6.494  69.922  1.00  0.00    -0.140 C  
HETATM   15  C   UNL     1      -8.771   8.888  70.313  1.00  0.00    -0.169 C  
HETATM   16  O   UNL     1      -8.133   5.490  69.523  1.00  0.00    -0.098 OA 
HETATM   17  O   UNL     1      -8.194   9.945  70.571  1.00  0.00    -0.206 OA 
HETATM   18  N   UNL     1      -8.101   7.715  70.038  1.00  0.00    -0.118 N  
BRANCH  13  19
HETATM   19  C   UNL     1     -10.650   5.122  70.465  1.00  0.00    -0.151 C  
BRANCH  19  20
HETATM   20  C   UNL     1      -9.831   4.120  71.270  1.00  0.00    -0.249 A  
HETATM   21  F   UNL     1     -10.809   5.369  74.403  1.00  0.00    -0.283 F  
HETATM   22  C   UNL     1      -9.829   5.523  73.472  1.00  0.00    -0.165 C  
HETATM   23  C   UNL     1      -9.600   4.261  72.662  1.00  0.00    -0.175 A  
HETATM   24  F   UNL     1      -9.555   2.743  69.345  1.00  0.00    -0.220 F  
HETATM   25  C   UNL     1      -9.099   3.154  73.391  1.00  0.00    -0.094 A  
HETATM   26  C   UNL     1      -9.437   2.909  70.668  1.00  0.00    -0.147 A  
HETATM   27  F   UNL     1      -8.709   5.874  74.167  1.00  0.00    -0.121 F  
HETATM   28  F   UNL     1     -10.160   6.630  72.761  1.00  0.00    -0.168 F  
HETATM   29  C   UNL     1      -8.911   1.843  71.397  1.00  0.00    -0.114 A  
HETATM   30  C   UNL     1      -8.772   1.952  72.770  1.00  0.00    -0.064 A  
ENDBRANCH  19  20
ENDBRANCH  13  19
BRANCH  18  31
HETATM   31  C   UNL     1      -6.642   7.762  69.886  1.00  0.00    -0.037 C  
BRANCH  31  32
HETATM   32  C   UNL     1      -6.132   8.139  68.457  1.00  0.00    -0.041 C  
BRANCH  32  33
HETATM   33  N   UNL     1      -6.875   9.260  67.820  1.00  0.00    -0.078 NA 
HETATM   34  H   UNL     1      -7.293   9.856  68.534  1.00  0.00     0.000 HD 
BRANCH  33  35
HETATM   35  C   UNL     1      -6.095  10.066  66.886  1.00  0.00    -0.056 C  
BRANCH  35  36
HETATM   36  C   UNL     1      -6.960  11.178  66.273  1.00  0.00    -0.052 C  
BRANCH  36  37
HETATM   37  C   UNL     1      -8.437  10.800  66.161  1.00  0.00    -0.167 C  
HETATM   38  O   UNL     1      -9.918  11.865  64.586  1.00  0.00    -0.254 OA 
HETATM   39  C   UNL     1      -9.006  11.081  64.794  1.00  0.00    -0.087 C  
HETATM   40  O   UNL     1      -8.449  10.340  63.812  1.00  0.00    -0.166 OA 
ENDBRANCH  36  37
ENDBRANCH  35  36
ENDBRANCH  33  35
ENDBRANCH  32  33
BRANCH  32  41
HETATM   41  C   UNL     1      -6.177   6.952  67.488  1.00  0.00    -0.037 A  
HETATM   42  C   UNL     1      -5.213   4.869  66.675  1.00  0.00    -0.008 A  
HETATM   43  C   UNL     1      -7.130   5.803  65.557  1.00  0.00    -0.069 A  
HETATM   44  C   UNL     1      -5.216   5.934  67.580  1.00  0.00    -0.004 A  
HETATM   45  C   UNL     1      -7.143   6.863  66.468  1.00  0.00    -0.067 A  
HETATM   46  C   UNL     1      -6.166   4.805  65.661  1.00  0.00    -0.034 A  
ENDBRANCH  32  41
ENDBRANCH  31  32
ENDBRANCH  18  31
ENDBRANCH   6  10
ENDBRANCH   2   3
TORSDOF 11
ENDMDL
MODEL      195
REMARK 921   NORMALIZED FREE ENERGY PREDICTED BY IDOCK:   -2.61 KCAL/MOL
REMARK 922        TOTAL FREE ENERGY PREDICTED BY IDOCK:   -7.34 KCAL/MOL
REMARK 923 INTER-LIGAND FREE ENERGY PREDICTED BY IDOCK:   -7.54 KCAL/MOL
REMARK 924 INTRA-LIGAND FREE ENERGY PREDICTED BY IDOCK:    0.20 KCAL/MOL
REMARK 927      BINDING AFFINITY PREDICTED BY RF-SCORE:    0.00 PKD
ROOT
HETATM    1  C   UNL     1     -13.628  13.948  65.108  1.00  0.00     1.157 C  
HETATM    2  O   UNL     1     -13.284  12.596  64.788  1.00  0.00    -0.846 OA 
ENDROOT
BRANCH   2   3
HETATM    3  C   UNL     1     -11.945  12.370  64.612  1.00  0.00    -0.394 A  
HETATM    4  C   UNL     1     -11.080  12.845  65.608  1.00  0.00    -0.279 A  
HETATM    5  F   UNL     1     -11.591  13.494  66.670  1.00  0.00    -0.318 F  
HETATM    6  C   UNL     1      -9.697  12.642  65.522  1.00  0.00    -0.110 A  
HETATM    7  C   UNL     1      -9.176  11.979  64.402  1.00  0.00     0.397 A  
HETATM    8  C   UNL     1     -11.409  11.727  63.490  1.00  0.00    -0.496 A  
HETATM    9  C   UNL     1     -10.031  11.529  63.392  1.00  0.00    -0.445 A  
BRANCH   6  10
HETATM   10  C   UNL     1      -8.798  13.062  66.617  1.00  0.00    -0.083 C  
HETATM   11  C   UNL     1      -9.713  15.401  66.666  1.00  0.00    -0.269 C  
HETATM   12  C   UNL     1      -8.782  14.306  67.145  1.00  0.00    -0.227 C  
HETATM   13  N   UNL     1      -7.917  14.601  68.207  1.00  0.00    -0.126 N  
HETATM   14  C   UNL     1      -7.275  13.594  68.932  1.00  0.00    -0.083 C  
HETATM   15  C   UNL     1      -7.800  12.069  67.119  1.00  0.00    -0.168 C  
HETATM   16  O   UNL     1      -6.831  13.786  70.068  1.00  0.00     0.050 OA 
HETATM   17  O   UNL     1      -7.580  11.036  66.486  1.00  0.00    -0.139 OA 
HETATM   18  N   UNL     1      -7.170  12.369  68.308  1.00  0.00    -0.094 N  
BRANCH  13  19
HETATM   19  C   UNL     1      -7.739  15.962  68.726  1.00  0.00    -0.181 C  
BRANCH  19  20
HETATM   20  C   UNL     1      -7.549  17.080  67.706  1.00  0.00    -0.180 A  
HETATM   21  F   UNL     1      -9.576  19.392  69.402  1.00  0.00    -0.396 F  
HETATM   22  C   UNL     1      -9.656  18.435  68.438  1.00  0.00    -0.345 C  
HETATM   23  C   UNL     1      -8.345  18.252  67.697  1.00  0.00    -0.252 A  
HETATM   24  F   UNL     1      -5.680  15.945  66.757  1.00  0.00     0.025 F  
HETATM   25  C   UNL     1      -7.920  19.366  66.930  1.00  0.00    -0.287 A  
HETATM   26  C   UNL     1      -6.428  17.051  66.854  1.00  0.00    -0.213 A  
HETATM   27  F   UNL     1     -10.648  18.843  67.594  1.00  0.00    -0.402 F  
HETATM   28  F   UNL     1     -10.150  17.329  69.048  1.00  0.00    -0.277 F  
HETATM   29  C   UNL     1      -6.046  18.145  66.077  1.00  0.00    -0.256 A  
HETATM   30  C   UNL     1      -6.775  19.320  66.140  1.00  0.00    -0.237 A  
ENDBRANCH  19  20
ENDBRANCH  13  19
BRANCH  18  31
HETATM   31  C   UNL     1      -6.323  11.344  68.929  1.00  0.00    -0.057 C  
BRANCH  31  32
HETATM   32  C   UNL     1      -7.043  10.424  69.969  1.00  0.00    -0.150 C  
BRANCH  32  33
HETATM   33  N   UNL     1      -6.167   9.383  70.572  1.00  0.00    -0.056 NA 
HETATM   34  H   UNL     1      -5.198   9.701  70.583  1.00  0.00     0.000 HD 
BRANCH  33  35
HETATM   35  C   UNL     1      -6.566   8.938  71.904  1.00  0.00    -0.028 C  
BRANCH  35  36
HETATM   36  C   UNL     1      -6.611   7.404  71.973  1.00  0.00    -0.050 C  
BRANCH  36  37
HETATM   37  C   UNL     1      -8.000   6.828  71.691  1.00  0.00    -0.102 C  
HETATM   38  O   UNL     1      -9.318   5.758  73.401  1.00  0.00    -0.135 OA 
HETATM   39  C   UNL     1      -8.872   6.787  72.918  1.00  0.00    -0.124 C  
HETATM   40  O   UNL     1      -9.168   8.008  73.415  1.00  0.00    -0.266 OA 
ENDBRANCH  36  37
ENDBRANCH  35  36
ENDBRANCH  33  35
ENDBRANCH  32  33
BRANCH  32  41
HETATM   41  C   UNL     1      -8.259   9.709  69.372  1.00  0.00    -0.132 A  
HETATM   42  C   UNL     1      -9.176   7.906  68.015  1.00  0.00    -0.134 A  
HETATM   43  C   UNL     1     -10.656   9.571  68.930  1.00  0.00    -0.239 A  
HETATM   44  C   UNL     1      -8.084   8.545  68.608  1.00  0.00    -0.121 A  
HETATM   45  C   UNL     1      -9.567  10.205  69.534  1.00  0.00    -0.243 A  
HETATM   46  C   UNL     1     -10.461   8.420  68.172  1.00  0.00    -0.228 A  
ENDBRANCH  32  41
ENDBRANCH  31  32
ENDBRANCH  18  31
ENDBRANCH   6  10
ENDBRANCH   2   3
TORSDOF 11
ENDMDL
MODEL      196
REMARK 921   NORMALIZED FREE ENERGY PREDICTED BY IDOCK:   -2.56 KCAL/MOL
REMARK 922        TOTAL FREE ENERGY PREDICTED BY IDOCK:   -7.26 KCAL/MOL
REMARK 923 INTER-LIGAND FREE ENERGY PREDICTED BY IDOCK:   -5.74 KCAL/MOL
REMARK 924 INTRA-LIGAND FREE ENERGY PREDICTED BY IDOCK:   -1.52 KCAL/MOL
REMARK 927      BINDING AFFINITY PREDICTED BY RF-SCORE:    0.00 PKD
ROOT
HETATM    1  C   UNL     1     -11.897  13.074  67.205  1.00  0.00    -0.363 C  
HETATM    2  O   UNL     1     -11.279  13.349  68.467  1.00  0.00    -0.252 OA 
ENDROOT
BRANCH   2   3
HETATM    3  C   UNL     1     -11.616  12.484  69.473  1.00  0.00    -0.281 A  
HETATM    4  C   UNL     1     -10.963  11.243  69.494  1.00  0.00    -0.191 A  
HETATM    5  F   UNL     1     -10.057  10.958  68.541  1.00  0.00    -0.158 F  
HETATM    6  C   UNL     1     -11.229  10.303  70.498  1.00  0.00    -0.408 A  
HETATM    7  C   UNL     1     -12.189  10.605  71.475  1.00  0.00    -0.345 A  
HETATM    8  C   UNL     1     -12.585  12.764  70.443  1.00  0.00    -0.126 A  
HETATM    9  C   UNL     1     -12.863  11.829  71.441  1.00  0.00    -0.440 A  
BRANCH   6  10
HETATM   10  C   UNL     1     -10.474   9.035  70.571  1.00  0.00    -0.271 C  
HETATM   11  C   UNL     1     -12.555   7.627  70.584  1.00  0.00     0.145 C  
HETATM   12  C   UNL     1     -11.052   7.814  70.618  1.00  0.00    -0.256 C  
HETATM   13  N   UNL     1     -10.250   6.665  70.650  1.00  0.00    -0.188 N  
HETATM   14  C   UNL     1      -8.887   6.712  70.349  1.00  0.00    -0.152 C  
HETATM   15  C   UNL     1      -8.985   9.115  70.668  1.00  0.00    -0.244 C  
HETATM   16  O   UNL     1      -8.257   5.708  70.003  1.00  0.00    -0.106 OA 
HETATM   17  O   UNL     1      -8.437  10.189  70.919  1.00  0.00     0.310 OA 
HETATM   18  N   UNL     1      -8.284   7.948  70.455  1.00  0.00    -0.117 N  
BRANCH  13  19
HETATM   19  C   UNL     1     -10.804   5.321  70.855  1.00  0.00    -0.049 C  
BRANCH  19  20
HETATM   20  C   UNL     1     -10.349   4.558  72.093  1.00  0.00    -0.233 A  
HETATM   21  F   UNL     1      -7.540   3.119  70.552  1.00  0.00    -0.040 F  
HETATM   22  C   UNL     1      -8.854   2.858  70.793  1.00  0.00    -0.084 C  
HETATM   23  C   UNL     1      -9.358   3.546  72.048  1.00  0.00    -0.185 A  
HETATM   24  F   UNL     1     -11.768   5.882  73.476  1.00  0.00     0.019 F  
HETATM   25  C   UNL     1      -8.773   3.101  73.260  1.00  0.00    -0.080 A  
HETATM   26  C   UNL     1     -10.780   4.987  73.364  1.00  0.00    -0.273 A  
HETATM   27  F   UNL     1      -8.948   1.502  70.901  1.00  0.00    -0.082 F  
HETATM   28  F   UNL     1      -9.511   3.163  69.646  1.00  0.00    -0.201 F  
HETATM   29  C   UNL     1     -10.219   4.509  74.548  1.00  0.00    -0.286 A  
HETATM   30  C   UNL     1      -9.188   3.588  74.497  1.00  0.00    -0.107 A  
ENDBRANCH  19  20
ENDBRANCH  13  19
BRANCH  18  31
HETATM   31  C   UNL     1      -6.821   8.017  70.359  1.00  0.00    -0.037 C  
BRANCH  31  32
HETATM   32  C   UNL     1      -6.259   8.301  68.929  1.00  0.00    -0.044 C  
BRANCH  32  33
HETATM   33  N   UNL     1      -6.850   9.496  68.267  1.00  0.00    -0.062 NA 
HETATM   34  H   UNL     1      -7.528   9.941  68.885  1.00  0.00     0.000 HD 
BRANCH  33  35
HETATM   35  C   UNL     1      -5.882  10.479  67.791  1.00  0.00    -0.044 C  
BRANCH  35  36
HETATM   36  C   UNL     1      -5.337  10.082  66.410  1.00  0.00    -0.044 C  
BRANCH  36  37
HETATM   37  C   UNL     1      -5.805  11.009  65.288  1.00  0.00     0.143 C  
HETATM   38  O   UNL     1      -6.844  10.173  63.281  1.00  0.00    -0.130 OA 
HETATM   39  C   UNL     1      -6.926  10.417  64.475  1.00  0.00    -0.003 C  
HETATM   40  O   UNL     1      -8.064  10.226  65.176  1.00  0.00    -0.145 OA 
ENDBRANCH  36  37
ENDBRANCH  35  36
ENDBRANCH  33  35
ENDBRANCH  32  33
BRANCH  32  41
HETATM   41  C   UNL     1      -6.448   7.113  67.980  1.00  0.00    -0.048 A  
HETATM   42  C   UNL     1      -7.632   6.081  66.119  1.00  0.00    -0.087 A  
HETATM   43  C   UNL     1      -5.931   4.832  67.278  1.00  0.00    -0.023 A  
HETATM   44  C   UNL     1      -7.412   7.173  66.963  1.00  0.00    -0.097 A  
HETATM   45  C   UNL     1      -5.701   5.927  68.116  1.00  0.00    -0.012 A  
HETATM   46  C   UNL     1      -6.895   4.910  66.278  1.00  0.00    -0.065 A  
ENDBRANCH  32  41
ENDBRANCH  31  32
ENDBRANCH  18  31
ENDBRANCH   6  10
ENDBRANCH   2   3
TORSDOF 11
ENDMDL
MODEL      197
REMARK 921   NORMALIZED FREE ENERGY PREDICTED BY IDOCK:   -2.55 KCAL/MOL
REMARK 922        TOTAL FREE ENERGY PREDICTED BY IDOCK:   -7.25 KCAL/MOL
REMARK 923 INTER-LIGAND FREE ENERGY PREDICTED BY IDOCK:   -7.72 KCAL/MOL
REMARK 924 INTRA-LIGAND FREE ENERGY PREDICTED BY IDOCK:    0.47 KCAL/MOL
REMARK 927      BINDING AFFINITY PREDICTED BY RF-SCORE:    0.00 PKD
ROOT
HETATM    1  C   UNL     1     -10.861  13.886  69.001  1.00  0.00    -0.225 C  
HETATM    2  O   UNL     1     -10.508  14.286  67.673  1.00  0.00    -0.246 OA 
ENDROOT
BRANCH   2   3
HETATM    3  C   UNL     1     -10.552  13.284  66.740  1.00  0.00    -0.276 A  
HETATM    4  C   UNL     1      -9.957  12.062  67.087  1.00  0.00    -0.195 A  
HETATM    5  F   UNL     1      -9.374  11.931  68.292  1.00  0.00    -0.171 F  
HETATM    6  C   UNL     1      -9.972  10.975  66.204  1.00  0.00    -0.277 A  
HETATM    7  C   UNL     1     -10.567  11.130  64.944  1.00  0.00    -0.356 A  
HETATM    8  C   UNL     1     -11.126  13.431  65.472  1.00  0.00    -0.296 A  
HETATM    9  C   UNL     1     -11.136  12.355  64.583  1.00  0.00    -0.348 A  
BRANCH   6  10
HETATM   10  C   UNL     1      -9.426   9.662  66.607  1.00  0.00    -0.221 C  
HETATM   11  C   UNL     1      -7.583   9.743  64.901  1.00  0.00    -0.128 C  
HETATM   12  C   UNL     1      -8.351   9.081  66.028  1.00  0.00    -0.123 C  
HETATM   13  N   UNL     1      -7.886   7.849  66.502  1.00  0.00    -0.096 N  
HETATM   14  C   UNL     1      -8.305   7.328  67.729  1.00  0.00    -0.118 C  
HETATM   15  C   UNL     1     -10.150   8.903  67.671  1.00  0.00    -0.218 C  
HETATM   16  O   UNL     1      -7.653   6.472  68.335  1.00  0.00    -0.099 OA 
HETATM   17  O   UNL     1     -11.279   9.248  68.020  1.00  0.00     0.009 OA 
HETATM   18  N   UNL     1      -9.488   7.830  68.229  1.00  0.00    -0.146 N  
BRANCH  13  19
HETATM   19  C   UNL     1      -6.824   7.092  65.827  1.00  0.00    -0.056 C  
BRANCH  19  20
HETATM   20  C   UNL     1      -7.236   5.839  65.063  1.00  0.00    -0.066 A  
HETATM   21  F   UNL     1      -6.664   3.643  67.743  1.00  0.00    -0.039 F  
HETATM   22  C   UNL     1      -6.024   4.171  66.664  1.00  0.00    -0.024 C  
HETATM   23  C   UNL     1      -6.983   4.531  65.545  1.00  0.00    -0.062 A  
HETATM   24  F   UNL     1      -8.278   7.164  63.378  1.00  0.00    -0.120 F  
HETATM   25  C   UNL     1      -7.654   3.435  64.945  1.00  0.00    -0.077 A  
HETATM   26  C   UNL     1      -8.063   5.964  63.930  1.00  0.00    -0.098 A  
HETATM   27  F   UNL     1      -5.130   3.222  66.264  1.00  0.00    -0.006 F  
HETATM   28  F   UNL     1      -5.264   5.188  67.142  1.00  0.00    -0.006 F  
HETATM   29  C   UNL     1      -8.684   4.869  63.329  1.00  0.00    -0.114 A  
HETATM   30  C   UNL     1      -8.507   3.603  63.858  1.00  0.00    -0.091 A  
ENDBRANCH  19  20
ENDBRANCH  13  19
BRANCH  18  31
HETATM   31  C   UNL     1     -10.082   7.171  69.398  1.00  0.00    -0.176 C  
BRANCH  31  32
HETATM   32  C   UNL     1      -9.545   7.659  70.783  1.00  0.00    -0.166 C  
BRANCH  32  33
HETATM   33  N   UNL     1     -10.485   8.541  71.526  1.00  0.00    -0.227 NA 
HETATM   34  H   UNL     1     -10.106   8.764  72.446  1.00  0.00     0.000 HD 
BRANCH  33  35
HETATM   35  C   UNL     1     -10.865   9.765  70.828  1.00  0.00    -0.333 C  
BRANCH  35  36
HETATM   36  C   UNL     1     -12.168  10.339  71.405  1.00  0.00    -0.481 C  
BRANCH  36  37
HETATM   37  C   UNL     1     -13.423   9.682  70.831  1.00  0.00    -0.133 C  
HETATM   38  O   UNL     1     -13.994   7.386  71.289  1.00  0.00    -0.376 OA 
HETATM   39  C   UNL     1     -13.921   8.541  71.679  1.00  0.00    -0.404 C  
HETATM   40  O   UNL     1     -14.336   8.918  72.907  1.00  0.00    -0.548 OA 
ENDBRANCH  36  37
ENDBRANCH  35  36
ENDBRANCH  33  35
ENDBRANCH  32  33
BRANCH  32  41
HETATM   41  C   UNL     1      -8.214   8.408  70.662  1.00  0.00    -0.117 A  
HETATM   42  C   UNL     1      -6.988  10.424  70.060  1.00  0.00    -0.159 A  
HETATM   43  C   UNL     1      -5.776   8.470  70.772  1.00  0.00    -0.032 A  
HETATM   44  C   UNL     1      -8.196   9.741  70.222  1.00  0.00    -0.178 A  
HETATM   45  C   UNL     1      -6.983   7.787  70.947  1.00  0.00    -0.049 A  
HETATM   46  C   UNL     1      -5.778   9.789  70.330  1.00  0.00    -0.055 A  
ENDBRANCH  32  41
ENDBRANCH  31  32
ENDBRANCH  18  31
ENDBRANCH   6  10
ENDBRANCH   2   3
TORSDOF 11
ENDMDL
MODEL      198
REMARK 921   NORMALIZED FREE ENERGY PREDICTED BY IDOCK:   -2.51 KCAL/MOL
REMARK 922        TOTAL FREE ENERGY PREDICTED BY IDOCK:   -7.18 KCAL/MOL
REMARK 923 INTER-LIGAND FREE ENERGY PREDICTED BY IDOCK:   -8.08 KCAL/MOL
REMARK 924 INTRA-LIGAND FREE ENERGY PREDICTED BY IDOCK:    0.90 KCAL/MOL
REMARK 927      BINDING AFFINITY PREDICTED BY RF-SCORE:    0.00 PKD
ROOT
HETATM    1  C   UNL     1      -5.400  15.184  71.307  1.00  0.00    -0.063 C  
HETATM    2  O   UNL     1      -5.127  15.954  70.132  1.00  0.00    -0.118 OA 
ENDROOT
BRANCH   2   3
HETATM    3  C   UNL     1      -5.935  15.676  69.061  1.00  0.00    -0.106 A  
HETATM    4  C   UNL     1      -6.489  14.390  68.997  1.00  0.00    -0.098 A  
HETATM    5  F   UNL     1      -6.205  13.500  69.964  1.00  0.00    -0.126 F  
HETATM    6  C   UNL     1      -7.344  14.023  67.949  1.00  0.00    -0.162 A  
HETATM    7  C   UNL     1      -7.618  14.954  66.937  1.00  0.00     0.141 A  
HETATM    8  C   UNL     1      -6.202  16.589  68.035  1.00  0.00    -0.138 A  
HETATM    9  C   UNL     1      -7.044  16.228  66.983  1.00  0.00    -0.259 A  
BRANCH   6  10
HETATM   10  C   UNL     1      -7.999  12.698  67.933  1.00  0.00    -0.156 C  
HETATM   11  C   UNL     1      -6.294  11.713  66.373  1.00  0.00     0.095 C  
HETATM   12  C   UNL     1      -7.547  11.641  67.221  1.00  0.00    -0.147 C  
HETATM   13  N   UNL     1      -8.217  10.414  67.296  1.00  0.00    -0.121 N  
HETATM   14  C   UNL     1      -9.163  10.152  68.291  1.00  0.00    -0.130 C  
HETATM   15  C   UNL     1      -9.276  12.543  68.693  1.00  0.00     0.030 C  
HETATM   16  O   UNL     1      -9.476   9.002  68.612  1.00  0.00    -0.145 OA 
HETATM   17  O   UNL     1      -9.874  13.535  69.111  1.00  0.00     0.103 OA 
HETATM   18  N   UNL     1      -9.723  11.256  68.900  1.00  0.00    -0.170 N  
BRANCH  13  19
HETATM   19  C   UNL     1      -7.874   9.273  66.439  1.00  0.00    -0.103 C  
BRANCH  19  20
HETATM   20  C   UNL     1      -7.246   8.057  67.111  1.00  0.00    -0.087 A  
HETATM   21  F   UNL     1      -9.317   5.716  65.509  1.00  0.00    -0.164 F  
HETATM   22  C   UNL     1      -9.257   6.459  66.647  1.00  0.00    -0.151 C  
HETATM   23  C   UNL     1      -7.831   6.767  67.061  1.00  0.00    -0.104 A  
HETATM   24  F   UNL     1      -5.368   9.357  67.791  1.00  0.00    -0.036 F  
HETATM   25  C   UNL     1      -7.052   5.644  67.437  1.00  0.00    -0.074 A  
HETATM   26  C   UNL     1      -5.946   8.159  67.644  1.00  0.00    -0.047 A  
HETATM   27  F   UNL     1      -9.902   5.727  67.601  1.00  0.00    -0.111 F  
HETATM   28  F   UNL     1     -10.057   7.534  66.434  1.00  0.00    -0.284 F  
HETATM   29  C   UNL     1      -5.209   7.045  68.045  1.00  0.00    -0.015 A  
HETATM   30  C   UNL     1      -5.750   5.779  67.910  1.00  0.00    -0.012 A  
ENDBRANCH  19  20
ENDBRANCH  13  19
BRANCH  18  31
HETATM   31  C   UNL     1     -10.868  11.047  69.794  1.00  0.00    -0.144 C  
BRANCH  31  32
HETATM   32  C   UNL     1     -12.193  11.754  69.357  1.00  0.00    -0.157 C  
BRANCH  32  33
HETATM   33  N   UNL     1     -12.116  12.428  68.032  1.00  0.00    -0.377 NA 
HETATM   34  H   UNL     1     -11.364  13.116  68.030  1.00  0.00     0.000 HD 
BRANCH  33  35
HETATM   35  C   UNL     1     -11.979  11.529  66.890  1.00  0.00     0.456 C  
BRANCH  35  36
HETATM   36  C   UNL     1     -11.856  12.326  65.583  1.00  0.00    -0.423 C  
BRANCH  36  37
HETATM   37  C   UNL     1     -12.512  13.705  65.654  1.00  0.00    -0.540 C  
HETATM   38  O   UNL     1     -11.586  15.625  64.530  1.00  0.00    -0.392 OA 
HETATM   39  C   UNL     1     -12.187  14.564  64.460  1.00  0.00    -0.465 C  
HETATM   40  O   UNL     1     -12.671  14.081  63.295  1.00  0.00    -0.750 OA 
ENDBRANCH  36  37
ENDBRANCH  35  36
ENDBRANCH  33  35
ENDBRANCH  32  33
BRANCH  32  41
HETATM   41  C   UNL     1     -12.660  12.800  70.375  1.00  0.00    -0.126 A  
HETATM   42  C   UNL     1     -12.882  15.133  71.036  1.00  0.00    -0.477 A  
HETATM   43  C   UNL     1     -13.581  13.401  72.555  1.00  0.00    -0.659 A  
HETATM   44  C   UNL     1     -12.506  14.167  70.099  1.00  0.00    -0.391 A  
HETATM   45  C   UNL     1     -13.216  12.433  71.615  1.00  0.00    -0.367 A  
HETATM   46  C   UNL     1     -13.415  14.752  72.264  1.00  0.00    -0.510 A  
ENDBRANCH  32  41
ENDBRANCH  31  32
ENDBRANCH  18  31
ENDBRANCH   6  10
ENDBRANCH   2   3
TORSDOF 11
ENDMDL
MODEL      199
REMARK 921   NORMALIZED FREE ENERGY PREDICTED BY IDOCK:   -2.48 KCAL/MOL
REMARK 922        TOTAL FREE ENERGY PREDICTED BY IDOCK:   -7.14 KCAL/MOL
REMARK 923 INTER-LIGAND FREE ENERGY PREDICTED BY IDOCK:   -7.86 KCAL/MOL
REMARK 924 INTRA-LIGAND FREE ENERGY PREDICTED BY IDOCK:    0.73 KCAL/MOL
REMARK 927      BINDING AFFINITY PREDICTED BY RF-SCORE:    0.00 PKD
ROOT
HETATM    1  C   UNL     1     -10.451   3.118  72.212  1.00  0.00     0.043 C  
HETATM    2  O   UNL     1      -9.715   3.362  73.414  1.00  0.00    -0.106 OA 
ENDROOT
BRANCH   2   3
HETATM    3  C   UNL     1      -8.788   4.367  73.328  1.00  0.00    -0.106 A  
HETATM    4  C   UNL     1      -8.599   4.954  72.068  1.00  0.00    -0.124 A  
HETATM    5  F   UNL     1      -9.315   4.510  71.020  1.00  0.00    -0.159 F  
HETATM    6  C   UNL     1      -7.687   6.002  71.889  1.00  0.00    -0.098 A  
HETATM    7  C   UNL     1      -6.934   6.444  72.987  1.00  0.00    -0.074 A  
HETATM    8  C   UNL     1      -8.016   4.804  74.410  1.00  0.00    -0.096 A  
HETATM    9  C   UNL     1      -7.099   5.842  74.238  1.00  0.00    -0.085 A  
BRANCH   6  10
HETATM   10  C   UNL     1      -7.557   6.680  70.582  1.00  0.00    -0.095 C  
HETATM   11  C   UNL     1      -6.076   4.885  69.636  1.00  0.00    -0.022 C  
HETATM   12  C   UNL     1      -6.828   6.198  69.551  1.00  0.00    -0.065 C  
HETATM   13  N   UNL     1      -6.792   6.895  68.337  1.00  0.00    -0.071 N  
HETATM   14  C   UNL     1      -7.702   7.916  68.049  1.00  0.00    -0.125 C  
HETATM   15  C   UNL     1      -8.214   8.012  70.419  1.00  0.00    -0.118 C  
HETATM   16  O   UNL     1      -7.941   8.274  66.893  1.00  0.00    -0.098 OA 
HETATM   17  O   UNL     1      -8.638   8.619  71.403  1.00  0.00    -0.161 OA 
HETATM   18  N   UNL     1      -8.324   8.498  69.134  1.00  0.00    -0.119 N  
BRANCH  13  19
HETATM   19  C   UNL     1      -5.905   6.512  67.232  1.00  0.00    -0.017 C  
BRANCH  19  20
HETATM   20  C   UNL     1      -6.525   6.400  65.844  1.00  0.00    -0.043 A  
HETATM   21  F   UNL     1      -9.127   4.262  66.842  1.00  0.00    -0.114 F  
HETATM   22  C   UNL     1      -7.858   4.214  66.352  1.00  0.00    -0.094 C  
HETATM   23  C   UNL     1      -7.513   5.436  65.523  1.00  0.00    -0.077 A  
HETATM   24  F   UNL     1      -5.282   8.291  65.096  1.00  0.00    -0.033 F  
HETATM   25  C   UNL     1      -8.255   5.585  64.323  1.00  0.00    -0.124 A  
HETATM   26  C   UNL     1      -6.257   7.398  64.887  1.00  0.00    -0.038 A  
HETATM   27  F   UNL     1      -7.794   3.075  65.603  1.00  0.00    -0.080 F  
HETATM   28  F   UNL     1      -7.055   3.976  67.418  1.00  0.00    -0.060 F  
HETATM   29  C   UNL     1      -6.972   7.507  63.695  1.00  0.00    -0.060 A  
HETATM   30  C   UNL     1      -7.998   6.617  63.425  1.00  0.00    -0.072 A  
ENDBRANCH  19  20
ENDBRANCH  13  19
BRANCH  18  31
HETATM   31  C   UNL     1      -9.122   9.709  68.909  1.00  0.00    -0.144 C  
BRANCH  31  32
HETATM   32  C   UNL     1     -10.643   9.466  68.643  1.00  0.00    -0.200 C  
BRANCH  32  33
HETATM   33  N   UNL     1     -11.176  10.179  67.451  1.00  0.00    -0.395 NA 
HETATM   34  H   UNL     1     -11.763  10.961  67.741  1.00  0.00     0.000 HD 
BRANCH  33  35
HETATM   35  C   UNL     1     -10.164  10.635  66.502  1.00  0.00    -0.233 C  
BRANCH  35  36
HETATM   36  C   UNL     1     -10.797  11.520  65.416  1.00  0.00    -0.318 C  
BRANCH  36  37
HETATM   37  C   UNL     1     -11.996  12.325  65.918  1.00  0.00    -0.358 C  
HETATM   38  O   UNL     1     -12.116  14.722  65.697  1.00  0.00    -0.249 OA 
HETATM   39  C   UNL     1     -12.178  13.621  65.172  1.00  0.00    -0.433 C  
HETATM   40  O   UNL     1     -12.474  13.458  63.864  1.00  0.00    -0.658 OA 
ENDBRANCH  36  37
ENDBRANCH  35  36
ENDBRANCH  33  35
ENDBRANCH  32  33
BRANCH  32  41
HETATM   41  C   UNL     1     -11.516   9.859  69.839  1.00  0.00    -0.234 A  
HETATM   42  C   UNL     1     -12.718  11.571  71.087  1.00  0.00    -0.458 A  
HETATM   43  C   UNL     1     -12.608   9.328  71.957  1.00  0.00    -0.465 A  
HETATM   44  C   UNL     1     -11.962  11.182  69.977  1.00  0.00    -0.447 A  
HETATM   45  C   UNL     1     -11.862   8.935  70.842  1.00  0.00    -0.283 A  
HETATM   46  C   UNL     1     -13.038  10.646  72.078  1.00  0.00    -0.501 A  
ENDBRANCH  32  41
ENDBRANCH  31  32
ENDBRANCH  18  31
ENDBRANCH   6  10
ENDBRANCH   2   3
TORSDOF 11
ENDMDL
MODEL      200
REMARK 921   NORMALIZED FREE ENERGY PREDICTED BY IDOCK:   -2.47 KCAL/MOL
REMARK 922        TOTAL FREE ENERGY PREDICTED BY IDOCK:   -7.12 KCAL/MOL
REMARK 923 INTER-LIGAND FREE ENERGY PREDICTED BY IDOCK:   -7.67 KCAL/MOL
REMARK 924 INTRA-LIGAND FREE ENERGY PREDICTED BY IDOCK:    0.55 KCAL/MOL
REMARK 927      BINDING AFFINITY PREDICTED BY RF-SCORE:    0.00 PKD
ROOT
HETATM    1  C   UNL     1     -11.988  12.232  66.706  1.00  0.00    -0.157 C  
HETATM    2  O   UNL     1     -11.236  13.434  66.904  1.00  0.00    -0.293 OA 
ENDROOT
BRANCH   2   3
HETATM    3  C   UNL     1      -9.985  13.249  67.430  1.00  0.00    -0.233 A  
HETATM    4  C   UNL     1      -9.554  11.926  67.600  1.00  0.00    -0.185 A  
HETATM    5  F   UNL     1     -10.371  10.915  67.255  1.00  0.00    -0.211 F  
HETATM    6  C   UNL     1      -8.281  11.640  68.112  1.00  0.00    -0.151 A  
HETATM    7  C   UNL     1      -7.445  12.702  68.486  1.00  0.00    -0.121 A  
HETATM    8  C   UNL     1      -9.147  14.298  67.824  1.00  0.00    -0.195 A  
HETATM    9  C   UNL     1      -7.882  14.023  68.344  1.00  0.00    -0.144 A  
BRANCH   6  10
HETATM   10  C   UNL     1      -7.794  10.248  68.205  1.00  0.00    -0.101 C  
HETATM   11  C   UNL     1      -8.956   9.834  70.394  1.00  0.00    -0.143 C  
HETATM   12  C   UNL     1      -8.080   9.415  69.231  1.00  0.00    -0.105 C  
HETATM   13  N   UNL     1      -7.601   8.099  69.213  1.00  0.00    -0.093 N  
HETATM   14  C   UNL     1      -7.081   7.522  68.052  1.00  0.00    -0.084 C  
HETATM   15  C   UNL     1      -6.874   9.759  67.134  1.00  0.00    -0.083 C  
HETATM   16  O   UNL     1      -7.011   6.299  67.903  1.00  0.00    -0.067 OA 
HETATM   17  O   UNL     1      -6.358  10.554  66.348  1.00  0.00    -0.082 OA 
HETATM   18  N   UNL     1      -6.654   8.399  67.077  1.00  0.00    -0.057 N  
BRANCH  13  19
HETATM   19  C   UNL     1      -7.744   7.192  70.358  1.00  0.00    -0.095 C  
BRANCH  19  20
HETATM   20  C   UNL     1      -9.069   7.219  71.111  1.00  0.00    -0.152 A  
HETATM   21  F   UNL     1     -10.516   4.591  69.287  1.00  0.00    -0.202 F  
HETATM   22  C   UNL     1     -10.419   5.948  69.274  1.00  0.00    -0.274 C  
HETATM   23  C   UNL     1     -10.220   6.525  70.663  1.00  0.00    -0.220 A  
HETATM   24  F   UNL     1      -8.095   8.530  72.848  1.00  0.00    -0.212 F  
HETATM   25  C   UNL     1     -11.306   6.346  71.556  1.00  0.00    -0.346 A  
HETATM   26  C   UNL     1      -9.119   7.795  72.396  1.00  0.00    -0.155 A  
HETATM   27  F   UNL     1     -11.579   6.397  68.714  1.00  0.00    -0.379 F  
HETATM   28  F   UNL     1      -9.455   6.245  68.367  1.00  0.00    -0.121 F  
HETATM   29  C   UNL     1     -10.213   7.640  73.247  1.00  0.00    -0.398 A  
HETATM   30  C   UNL     1     -11.298   6.885  72.839  1.00  0.00    -0.199 A  
ENDBRANCH  19  20
ENDBRANCH  13  19
BRANCH  18  31
HETATM   31  C   UNL     1      -5.908   7.858  65.935  1.00  0.00    -0.037 C  
BRANCH  31  32
HETATM   32  C   UNL     1      -6.774   7.483  64.689  1.00  0.00    -0.050 C  
BRANCH  32  33
HETATM   33  N   UNL     1      -7.914   8.408  64.439  1.00  0.00    -0.142 NA 
HETATM   34  H   UNL     1      -7.867   9.204  65.073  1.00  0.00     0.000 HD 
BRANCH  33  35
HETATM   35  C   UNL     1      -8.042   8.870  63.060  1.00  0.00    -0.172 C  
BRANCH  35  36
HETATM   36  C   UNL     1      -9.299   9.737  62.891  1.00  0.00    -0.142 C  
BRANCH  36  37
HETATM   37  C   UNL     1      -9.503  10.730  64.036  1.00  0.00    -0.312 C  
HETATM   38  O   UNL     1     -10.087  13.036  63.646  1.00  0.00    -0.264 OA 
HETATM   39  C   UNL     1     -10.425  11.862  63.665  1.00  0.00    -0.447 C  
HETATM   40  O   UNL     1     -11.690  11.469  63.402  1.00  0.00    -0.355 OA 
ENDBRANCH  36  37
ENDBRANCH  35  36
ENDBRANCH  33  35
ENDBRANCH  32  33
BRANCH  32  41
HETATM   41  C   UNL     1      -7.348   6.066  64.780  1.00  0.00    -0.074 A  
HETATM   42  C   UNL     1      -7.047   3.661  64.542  1.00  0.00    -0.058 A  
HETATM   43  C   UNL     1      -9.218   4.532  65.113  1.00  0.00    -0.157 A  
HETATM   44  C   UNL     1      -6.529   4.959  64.511  1.00  0.00    -0.038 A  
HETATM   45  C   UNL     1      -8.700   5.830  65.094  1.00  0.00    -0.070 A  
HETATM   46  C   UNL     1      -8.391   3.447  64.839  1.00  0.00    -0.094 A  
ENDBRANCH  32  41
ENDBRANCH  31  32
ENDBRANCH  18  31
ENDBRANCH   6  10
ENDBRANCH   2   3
TORSDOF 11
ENDMDL
MODEL      201
REMARK 921   NORMALIZED FREE ENERGY PREDICTED BY IDOCK:   -2.45 KCAL/MOL
REMARK 922        TOTAL FREE ENERGY PREDICTED BY IDOCK:   -7.09 KCAL/MOL
REMARK 923 INTER-LIGAND FREE ENERGY PREDICTED BY IDOCK:   -6.38 KCAL/MOL
REMARK 924 INTRA-LIGAND FREE ENERGY PREDICTED BY IDOCK:   -0.71 KCAL/MOL
REMARK 927      BINDING AFFINITY PREDICTED BY RF-SCORE:    0.00 PKD
ROOT
HETATM    1  C   UNL     1      -7.377  13.896  67.202  1.00  0.00     0.180 C  
HETATM    2  O   UNL     1      -8.037  13.258  68.301  1.00  0.00    -0.145 OA 
ENDROOT
BRANCH   2   3
HETATM    3  C   UNL     1      -9.144  12.527  67.961  1.00  0.00    -0.200 A  
HETATM    4  C   UNL     1      -8.958  11.156  67.735  1.00  0.00    -0.139 A  
HETATM    5  F   UNL     1      -7.726  10.629  67.852  1.00  0.00    -0.095 F  
HETATM    6  C   UNL     1     -10.037  10.325  67.402  1.00  0.00    -0.246 A  
HETATM    7  C   UNL     1     -11.313  10.890  67.266  1.00  0.00    -0.230 A  
HETATM    8  C   UNL     1     -10.419  13.081  67.803  1.00  0.00    -0.232 A  
HETATM    9  C   UNL     1     -11.497  12.262  67.462  1.00  0.00    -0.414 A  
BRANCH   6  10
HETATM   10  C   UNL     1      -9.854   8.866  67.255  1.00  0.00    -0.256 C  
HETATM   11  C   UNL     1      -8.863   9.077  64.956  1.00  0.00    -0.213 C  
HETATM   12  C   UNL     1      -9.333   8.278  66.155  1.00  0.00    -0.188 C  
HETATM   13  N   UNL     1      -9.167   6.888  66.122  1.00  0.00    -0.124 N  
HETATM   14  C   UNL     1      -9.250   6.110  67.280  1.00  0.00    -0.117 C  
HETATM   15  C   UNL     1     -10.342   7.988  68.361  1.00  0.00    -0.199 C  
HETATM   16  O   UNL     1      -8.748   4.985  67.350  1.00  0.00    -0.105 OA 
HETATM   17  O   UNL     1     -11.075   8.444  69.239  1.00  0.00    -0.031 OA 
HETATM   18  N   UNL     1      -9.921   6.675  68.343  1.00  0.00    -0.141 N  
BRANCH  13  19
HETATM   19  C   UNL     1      -8.751   6.171  64.910  1.00  0.00     0.115 C  
BRANCH  19  20
HETATM   20  C   UNL     1      -7.575   5.209  65.035  1.00  0.00    -0.082 A  
HETATM   21  F   UNL     1      -8.997   2.719  63.008  1.00  0.00    -0.087 F  
HETATM   22  C   UNL     1      -8.918   3.090  64.315  1.00  0.00    -0.110 C  
HETATM   23  C   UNL     1      -7.645   3.856  64.621  1.00  0.00    -0.077 A  
HETATM   24  F   UNL     1      -6.187   6.957  65.873  1.00  0.00    -0.034 F  
HETATM   25  C   UNL     1      -6.443   3.116  64.484  1.00  0.00    -0.031 A  
HETATM   26  C   UNL     1      -6.310   5.712  65.399  1.00  0.00    -0.038 A  
HETATM   27  F   UNL     1      -8.983   1.932  65.032  1.00  0.00    -0.104 F  
HETATM   28  F   UNL     1     -10.078   3.737  64.589  1.00  0.00    -0.168 F  
HETATM   29  C   UNL     1      -5.143   4.955  65.292  1.00  0.00    -0.008 A  
HETATM   30  C   UNL     1      -5.204   3.663  64.801  1.00  0.00    -0.009 A  
ENDBRANCH  19  20
ENDBRANCH  13  19
BRANCH  18  31
HETATM   31  C   UNL     1     -10.223   5.827  69.502  1.00  0.00    -0.239 C  
BRANCH  31  32
HETATM   32  C   UNL     1      -9.826   6.428  70.890  1.00  0.00    -0.184 C  
BRANCH  32  33
HETATM   33  N   UNL     1      -8.406   6.865  70.982  1.00  0.00    -0.125 NA 
HETATM   34  H   UNL     1      -8.298   7.558  71.721  1.00  0.00     0.000 HD 
BRANCH  33  35
HETATM   35  C   UNL     1      -7.439   5.785  71.158  1.00  0.00    -0.091 C  
BRANCH  35  36
HETATM   36  C   UNL     1      -6.104   6.332  71.686  1.00  0.00    -0.040 C  
BRANCH  36  37
HETATM   37  C   UNL     1      -6.136   7.835  71.964  1.00  0.00    -0.039 C  
HETATM   38  O   UNL     1      -8.028   8.909  73.001  1.00  0.00    -0.381 OA 
HETATM   39  C   UNL     1      -7.044   8.194  73.111  1.00  0.00    -0.118 C  
HETATM   40  O   UNL     1      -6.641   7.695  74.300  1.00  0.00    -0.087 OA 
ENDBRANCH  36  37
ENDBRANCH  35  36
ENDBRANCH  33  35
ENDBRANCH  32  33
BRANCH  32  41
HETATM   41  C   UNL     1     -10.080   5.453  72.044  1.00  0.00    -0.240 A  
HETATM   42  C   UNL     1     -10.522   5.067  74.407  1.00  0.00    -0.313 A  
HETATM   43  C   UNL     1     -10.202   3.185  72.940  1.00  0.00    -0.237 A  
HETATM   44  C   UNL     1     -10.337   5.942  73.333  1.00  0.00    -0.246 A  
HETATM   45  C   UNL     1     -10.028   4.058  71.862  1.00  0.00    -0.246 A  
HETATM   46  C   UNL     1     -10.452   3.690  74.212  1.00  0.00    -0.266 A  
ENDBRANCH  32  41
ENDBRANCH  31  32
ENDBRANCH  18  31
ENDBRANCH   6  10
ENDBRANCH   2   3
TORSDOF 11
ENDMDL
MODEL      202
REMARK 921   NORMALIZED FREE ENERGY PREDICTED BY IDOCK:   -2.45 KCAL/MOL
REMARK 922        TOTAL FREE ENERGY PREDICTED BY IDOCK:   -7.08 KCAL/MOL
REMARK 923 INTER-LIGAND FREE ENERGY PREDICTED BY IDOCK:   -6.54 KCAL/MOL
REMARK 924 INTRA-LIGAND FREE ENERGY PREDICTED BY IDOCK:   -0.54 KCAL/MOL
REMARK 927      BINDING AFFINITY PREDICTED BY RF-SCORE:    0.00 PKD
ROOT
HETATM    1  C   UNL     1     -11.513  16.835  68.597  1.00  0.00     0.069 C  
HETATM    2  O   UNL     1     -10.360  17.680  68.517  1.00  0.00    -0.351 OA 
ENDROOT
BRANCH   2   3
HETATM    3  C   UNL     1      -9.219  17.057  68.085  1.00  0.00    -0.244 A  
HETATM    4  C   UNL     1      -9.123  15.676  68.308  1.00  0.00    -0.187 A  
HETATM    5  F   UNL     1     -10.129  15.036  68.930  1.00  0.00    -0.204 F  
HETATM    6  C   UNL     1      -8.002  14.951  67.882  1.00  0.00    -0.145 A  
HETATM    7  C   UNL     1      -6.951  15.633  67.252  1.00  0.00    -0.224 A  
HETATM    8  C   UNL     1      -8.155  17.728  67.471  1.00  0.00    -0.228 A  
HETATM    9  C   UNL     1      -7.031  17.015  67.053  1.00  0.00    -0.228 A  
BRANCH   6  10
HETATM   10  C   UNL     1      -7.943  13.483  68.036  1.00  0.00    -0.151 C  
HETATM   11  C   UNL     1      -6.374  13.605  69.995  1.00  0.00    -0.065 C  
HETATM   12  C   UNL     1      -7.209  12.851  68.979  1.00  0.00     0.017 C  
HETATM   13  N   UNL     1      -7.244  11.454  69.069  1.00  0.00    -0.117 N  
HETATM   14  C   UNL     1      -8.222  10.700  68.415  1.00  0.00    -0.125 C  
HETATM   15  C   UNL     1      -8.686  12.648  67.044  1.00  0.00    -0.198 C  
HETATM   16  O   UNL     1      -8.509   9.552  68.767  1.00  0.00    -0.118 OA 
HETATM   17  O   UNL     1      -9.125  13.155  66.011  1.00  0.00     0.006 OA 
HETATM   18  N   UNL     1      -8.855  11.316  67.355  1.00  0.00    -0.143 N  
BRANCH  13  19
HETATM   19  C   UNL     1      -6.360  10.698  69.964  1.00  0.00    -0.126 C  
BRANCH  19  20
HETATM   20  C   UNL     1      -5.828   9.362  69.457  1.00  0.00    -0.033 A  
HETATM   21  F   UNL     1      -7.331   7.450  71.990  1.00  0.00    -0.068 F  
HETATM   22  C   UNL     1      -6.165   8.095  71.714  1.00  0.00    -0.045 C  
HETATM   23  C   UNL     1      -5.888   8.172  70.224  1.00  0.00    -0.028 A  
HETATM   24  F   UNL     1      -5.278  10.339  67.353  1.00  0.00    -0.040 F  
HETATM   25  C   UNL     1      -5.660   6.928  69.584  1.00  0.00    -0.015 A  
HETATM   26  C   UNL     1      -5.431   9.246  68.110  1.00  0.00    -0.038 A  
HETATM   27  F   UNL     1      -5.191   7.393  72.362  1.00  0.00    -0.035 F  
HETATM   28  F   UNL     1      -6.231   9.283  72.366  1.00  0.00    -0.063 F  
HETATM   29  C   UNL     1      -5.174   8.015  67.507  1.00  0.00    -0.032 A  
HETATM   30  C   UNL     1      -5.322   6.848  68.236  1.00  0.00    -0.016 A  
ENDBRANCH  19  20
ENDBRANCH  13  19
BRANCH  18  31
HETATM   31  C   UNL     1      -9.731  10.503  66.504  1.00  0.00    -0.192 C  
BRANCH  31  32
HETATM   32  C   UNL     1      -8.996   9.513  65.543  1.00  0.00    -0.194 C  
BRANCH  32  33
HETATM   33  N   UNL     1      -9.316   9.711  64.103  1.00  0.00    -0.417 NA 
HETATM   34  H   UNL     1      -9.314   8.815  63.615  1.00  0.00     0.000 HD 
BRANCH  33  35
HETATM   35  C   UNL     1     -10.563  10.423  63.840  1.00  0.00     0.612 C  
BRANCH  35  36
HETATM   36  C   UNL     1     -10.280  11.862  63.381  1.00  0.00    -0.478 C  
BRANCH  36  37
HETATM   37  C   UNL     1     -11.550  12.680  63.145  1.00  0.00    -0.232 C  
HETATM   38  O   UNL     1     -13.635  12.157  64.234  1.00  0.00    -0.515 OA 
HETATM   39  C   UNL     1     -12.506  12.616  64.308  1.00  0.00    -0.411 C  
HETATM   40  O   UNL     1     -12.021  13.167  65.441  1.00  0.00    -0.358 OA 
ENDBRANCH  36  37
ENDBRANCH  35  36
ENDBRANCH  33  35
ENDBRANCH  32  33
BRANCH  32  41
HETATM   41  C   UNL     1      -9.288   8.047  65.879  1.00  0.00    -0.093 A  
HETATM   42  C   UNL     1     -10.652   6.389  67.026  1.00  0.00    -0.396 A  
HETATM   43  C   UNL     1      -8.696   5.679  65.815  1.00  0.00    -0.150 A  
HETATM   44  C   UNL     1     -10.399   7.716  66.669  1.00  0.00    -0.258 A  
HETATM   45  C   UNL     1      -8.447   7.004  65.446  1.00  0.00    -0.093 A  
HETATM   46  C   UNL     1      -9.801   5.371  66.603  1.00  0.00    -0.193 A  
ENDBRANCH  32  41
ENDBRANCH  31  32
ENDBRANCH  18  31
ENDBRANCH   6  10
ENDBRANCH   2   3
TORSDOF 11
ENDMDL
MODEL      203
REMARK 921   NORMALIZED FREE ENERGY PREDICTED BY IDOCK:   -2.44 KCAL/MOL
REMARK 922        TOTAL FREE ENERGY PREDICTED BY IDOCK:   -7.07 KCAL/MOL
REMARK 923 INTER-LIGAND FREE ENERGY PREDICTED BY IDOCK:   -7.96 KCAL/MOL
REMARK 924 INTRA-LIGAND FREE ENERGY PREDICTED BY IDOCK:    0.89 KCAL/MOL
REMARK 927      BINDING AFFINITY PREDICTED BY RF-SCORE:    0.00 PKD
ROOT
HETATM    1  C   UNL     1     -12.015  14.016  72.161  1.00  0.00     0.495 C  
HETATM    2  O   UNL     1     -12.476  13.319  70.999  1.00  0.00    -0.366 OA 
ENDROOT
BRANCH   2   3
HETATM    3  C   UNL     1     -12.526  11.956  71.129  1.00  0.00    -0.261 A  
HETATM    4  C   UNL     1     -11.558  11.213  70.439  1.00  0.00    -0.259 A  
HETATM    5  F   UNL     1     -10.644  11.855  69.689  1.00  0.00    -0.088 F  
HETATM    6  C   UNL     1     -11.519   9.816  70.529  1.00  0.00    -0.370 A  
HETATM    7  C   UNL     1     -12.488   9.157  71.299  1.00  0.00    -0.366 A  
HETATM    8  C   UNL     1     -13.499  11.285  71.878  1.00  0.00    -0.278 A  
HETATM    9  C   UNL     1     -13.473   9.892  71.965  1.00  0.00    -0.478 A  
BRANCH   6  10
HETATM   10  C   UNL     1     -10.442   9.042  69.875  1.00  0.00    -0.226 C  
HETATM   11  C   UNL     1      -9.449   8.303  72.061  1.00  0.00    -0.304 C  
HETATM   12  C   UNL     1      -9.491   8.357  70.548  1.00  0.00    -0.169 C  
HETATM   13  N   UNL     1      -8.531   7.623  69.840  1.00  0.00    -0.135 N  
HETATM   14  C   UNL     1      -8.680   7.335  68.480  1.00  0.00    -0.123 C  
HETATM   15  C   UNL     1     -10.364   9.080  68.384  1.00  0.00    -0.205 C  
HETATM   16  O   UNL     1      -8.078   6.405  67.937  1.00  0.00    -0.113 OA 
HETATM   17  O   UNL     1     -11.017   9.909  67.749  1.00  0.00    -0.282 OA 
HETATM   18  N   UNL     1      -9.547   8.148  67.781  1.00  0.00    -0.148 N  
BRANCH  13  19
HETATM   19  C   UNL     1      -7.384   6.983  70.496  1.00  0.00    -0.076 C  
BRANCH  19  20
HETATM   20  C   UNL     1      -7.579   6.497  71.927  1.00  0.00    -0.094 A  
HETATM   21  F   UNL     1      -8.286   3.176  71.031  1.00  0.00    -0.059 F  
HETATM   22  C   UNL     1      -8.920   4.355  71.274  1.00  0.00    -0.122 C  
HETATM   23  C   UNL     1      -8.149   5.237  72.238  1.00  0.00    -0.110 A  
HETATM   24  F   UNL     1      -6.526   8.459  72.777  1.00  0.00    -0.076 F  
HETATM   25  C   UNL     1      -8.019   4.729  73.555  1.00  0.00    -0.103 A  
HETATM   26  C   UNL     1      -7.010   7.229  72.987  1.00  0.00    -0.068 A  
HETATM   27  F   UNL     1     -10.142   4.020  71.781  1.00  0.00    -0.237 F  
HETATM   28  F   UNL     1      -9.183   4.895  70.058  1.00  0.00    -0.134 F  
HETATM   29  C   UNL     1      -6.925   6.728  74.287  1.00  0.00    -0.090 A  
HETATM   30  C   UNL     1      -7.402   5.459  74.566  1.00  0.00    -0.082 A  
ENDBRANCH  19  20
ENDBRANCH  13  19
BRANCH  18  31
HETATM   31  C   UNL     1      -9.580   8.030  66.318  1.00  0.00    -0.152 C  
BRANCH  31  32
HETATM   32  C   UNL     1      -8.507   8.873  65.556  1.00  0.00    -0.159 C  
BRANCH  32  33
HETATM   33  N   UNL     1      -7.470   9.478  66.435  1.00  0.00    -0.096 NA 
HETATM   34  H   UNL     1      -6.610   8.931  66.393  1.00  0.00     0.000 HD 
BRANCH  33  35
HETATM   35  C   UNL     1      -7.184  10.885  66.174  1.00  0.00    -0.101 C  
BRANCH  35  36
HETATM   36  C   UNL     1      -6.599  11.562  67.423  1.00  0.00    -0.101 C  
BRANCH  36  37
HETATM   37  C   UNL     1      -7.474  11.393  68.666  1.00  0.00    -0.119 C  
HETATM   38  O   UNL     1      -6.655  10.354  70.680  1.00  0.00    -0.290 OA 
HETATM   39  C   UNL     1      -6.669  11.323  69.937  1.00  0.00    -0.065 C  
HETATM   40  O   UNL     1      -5.996  12.460  70.218  1.00  0.00    -0.161 OA 
ENDBRANCH  36  37
ENDBRANCH  35  36
ENDBRANCH  33  35
ENDBRANCH  32  33
BRANCH  32  41
HETATM   41  C   UNL     1      -9.130  10.009  64.737  1.00  0.00    -0.268 A  
HETATM   42  C   UNL     1      -9.149  11.379  62.724  1.00  0.00    -0.266 A  
HETATM   43  C   UNL     1     -10.700  11.863  64.500  1.00  0.00    -0.361 A  
HETATM   44  C   UNL     1      -8.625  10.315  63.464  1.00  0.00    -0.195 A  
HETATM   45  C   UNL     1     -10.186  10.793  65.238  1.00  0.00    -0.351 A  
HETATM   46  C   UNL     1     -10.183  12.155  63.242  1.00  0.00    -0.341 A  
ENDBRANCH  32  41
ENDBRANCH  31  32
ENDBRANCH  18  31
ENDBRANCH   6  10
ENDBRANCH   2   3
TORSDOF 11
ENDMDL
MODEL      204
REMARK 921   NORMALIZED FREE ENERGY PREDICTED BY IDOCK:   -2.44 KCAL/MOL
REMARK 922        TOTAL FREE ENERGY PREDICTED BY IDOCK:   -7.07 KCAL/MOL
REMARK 923 INTER-LIGAND FREE ENERGY PREDICTED BY IDOCK:   -8.17 KCAL/MOL
REMARK 924 INTRA-LIGAND FREE ENERGY PREDICTED BY IDOCK:    1.10 KCAL/MOL
REMARK 927      BINDING AFFINITY PREDICTED BY RF-SCORE:    0.00 PKD
ROOT
HETATM    1  C   UNL     1      -9.701   4.535  65.478  1.00  0.00    -0.195 C  
HETATM    2  O   UNL     1      -8.488   4.795  64.765  1.00  0.00    -0.128 OA 
ENDROOT
BRANCH   2   3
HETATM    3  C   UNL     1      -8.164   6.120  64.645  1.00  0.00    -0.094 A  
HETATM    4  C   UNL     1      -8.712   6.999  65.590  1.00  0.00    -0.065 A  
HETATM    5  F   UNL     1      -9.522   6.516  66.549  1.00  0.00    -0.161 F  
HETATM    6  C   UNL     1      -8.420   8.369  65.558  1.00  0.00    -0.184 A  
HETATM    7  C   UNL     1      -7.590   8.864  64.543  1.00  0.00    -0.109 A  
HETATM    8  C   UNL     1      -7.352   6.631  63.626  1.00  0.00    -0.072 A  
HETATM    9  C   UNL     1      -7.064   7.995  63.581  1.00  0.00    -0.078 A  
BRANCH   6  10
HETATM   10  C   UNL     1      -8.925   9.278  66.609  1.00  0.00    -0.165 C  
HETATM   11  C   UNL     1      -7.499   8.237  68.397  1.00  0.00    -0.096 C  
HETATM   12  C   UNL     1      -8.529   9.232  67.901  1.00  0.00    -0.117 C  
HETATM   13  N   UNL     1      -9.038  10.159  68.818  1.00  0.00    -0.146 N  
HETATM   14  C   UNL     1      -9.718  11.307  68.402  1.00  0.00    -0.194 C  
HETATM   15  C   UNL     1      -9.988  10.258  66.231  1.00  0.00    -0.235 C  
HETATM   16  O   UNL     1      -9.837  12.298  69.129  1.00  0.00     0.153 OA 
HETATM   17  O   UNL     1     -10.581  10.147  65.158  1.00  0.00    -0.069 OA 
HETATM   18  N   UNL     1     -10.246  11.271  67.129  1.00  0.00    -0.196 N  
BRANCH  13  19
HETATM   19  C   UNL     1      -8.771  10.074  70.259  1.00  0.00     0.119 C  
BRANCH  19  20
HETATM   20  C   UNL     1      -9.595   9.077  71.065  1.00  0.00    -0.348 A  
HETATM   21  F   UNL     1      -7.121   8.523  73.495  1.00  0.00    -0.150 F  
HETATM   22  C   UNL     1      -7.556   8.023  72.306  1.00  0.00    -0.110 C  
HETATM   23  C   UNL     1      -9.036   8.267  72.085  1.00  0.00    -0.279 A  
HETATM   24  F   UNL     1     -11.585   9.763  69.946  1.00  0.00    -0.252 F  
HETATM   25  C   UNL     1      -9.903   7.599  72.986  1.00  0.00    -0.319 A  
HETATM   26  C   UNL     1     -10.998   9.081  70.937  1.00  0.00    -0.268 A  
HETATM   27  F   UNL     1      -7.275   6.688  72.342  1.00  0.00    -0.081 F  
HETATM   28  F   UNL     1      -6.724   8.529  71.362  1.00  0.00    -0.046 F  
HETATM   29  C   UNL     1     -11.835   8.386  71.811  1.00  0.00    -0.374 A  
HETATM   30  C   UNL     1     -11.288   7.669  72.861  1.00  0.00    -0.394 A  
ENDBRANCH  19  20
ENDBRANCH  13  19
BRANCH  18  31
HETATM   31  C   UNL     1     -11.147  12.356  66.721  1.00  0.00    -0.285 C  
BRANCH  31  32
HETATM   32  C   UNL     1     -10.498  13.778  66.668  1.00  0.00    -0.272 C  
BRANCH  32  33
HETATM   33  N   UNL     1      -9.010  13.769  66.669  1.00  0.00    -0.425 NA 
HETATM   34  H   UNL     1      -8.661  13.205  65.894  1.00  0.00     0.000 HD 
BRANCH  33  35
HETATM   35  C   UNL     1      -8.386  15.089  66.652  1.00  0.00    -0.080 C  
BRANCH  35  36
HETATM   36  C   UNL     1      -7.055  15.071  67.419  1.00  0.00    -0.206 C  
BRANCH  36  37
HETATM   37  C   UNL     1      -7.232  15.174  68.935  1.00  0.00    -0.133 C  
HETATM   38  O   UNL     1      -5.810  16.559  70.302  1.00  0.00    -0.195 OA 
HETATM   39  C   UNL     1      -6.721  16.477  69.492  1.00  0.00    -0.198 C  
HETATM   40  O   UNL     1      -7.399  17.559  69.053  1.00  0.00    -0.250 OA 
ENDBRANCH  36  37
ENDBRANCH  35  36
ENDBRANCH  33  35
ENDBRANCH  32  33
BRANCH  32  41
HETATM   41  C   UNL     1     -10.950  14.669  67.829  1.00  0.00    -0.291 A  
HETATM   42  C   UNL     1     -12.263  14.968  69.858  1.00  0.00    -0.351 A  
HETATM   43  C   UNL     1     -11.038  16.834  68.955  1.00  0.00    -0.171 A  
HETATM   44  C   UNL     1     -11.801  14.155  68.819  1.00  0.00    -0.384 A  
HETATM   45  C   UNL     1     -10.566  16.021  67.921  1.00  0.00    -0.301 A  
HETATM   46  C   UNL     1     -11.885  16.307  69.925  1.00  0.00     0.026 A  
ENDBRANCH  32  41
ENDBRANCH  31  32
ENDBRANCH  18  31
ENDBRANCH   6  10
ENDBRANCH   2   3
TORSDOF 11
ENDMDL
MODEL      205
REMARK 921   NORMALIZED FREE ENERGY PREDICTED BY IDOCK:   -2.42 KCAL/MOL
REMARK 922        TOTAL FREE ENERGY PREDICTED BY IDOCK:   -7.04 KCAL/MOL
REMARK 923 INTER-LIGAND FREE ENERGY PREDICTED BY IDOCK:   -6.14 KCAL/MOL
REMARK 924 INTRA-LIGAND FREE ENERGY PREDICTED BY IDOCK:   -0.90 KCAL/MOL
REMARK 927      BINDING AFFINITY PREDICTED BY RF-SCORE:    0.00 PKD
ROOT
HETATM    1  C   UNL     1      -6.528  20.615  68.070  1.00  0.00    -0.315 C  
HETATM    2  O   UNL     1      -7.097  20.074  69.267  1.00  0.00    -0.280 OA 
ENDROOT
BRANCH   2   3
HETATM    3  C   UNL     1      -6.878  18.735  69.453  1.00  0.00    -0.189 A  
HETATM    4  C   UNL     1      -7.785  17.850  68.853  1.00  0.00    -0.201 A  
HETATM    5  F   UNL     1      -8.815  18.343  68.142  1.00  0.00    -0.272 F  
HETATM    6  C   UNL     1      -7.629  16.463  68.973  1.00  0.00    -0.232 A  
HETATM    7  C   UNL     1      -6.563  15.962  69.733  1.00  0.00    -0.148 A  
HETATM    8  C   UNL     1      -5.829  18.221  70.224  1.00  0.00    -0.144 A  
HETATM    9  C   UNL     1      -5.672  16.841  70.357  1.00  0.00    -0.115 A  
BRANCH   6  10
HETATM   10  C   UNL     1      -8.533  15.533  68.265  1.00  0.00    -0.156 C  
HETATM   11  C   UNL     1      -7.552  16.064  66.014  1.00  0.00     0.970 C  
HETATM   12  C   UNL     1      -8.522  15.342  66.927  1.00  0.00    -0.252 C  
HETATM   13  N   UNL     1      -9.395  14.412  66.349  1.00  0.00    -0.278 N  
HETATM   14  C   UNL     1     -10.078  13.467  67.120  1.00  0.00    -0.240 C  
HETATM   15  C   UNL     1      -9.567  14.816  69.071  1.00  0.00    -0.178 C  
HETATM   16  O   UNL     1     -10.534  12.429  66.632  1.00  0.00    -0.227 OA 
HETATM   17  O   UNL     1      -9.807  15.168  70.227  1.00  0.00    -0.055 OA 
HETATM   18  N   UNL     1     -10.208  13.759  68.461  1.00  0.00    -0.237 N  
BRANCH  13  19
HETATM   19  C   UNL     1      -9.542  14.263  64.896  1.00  0.00     0.577 C  
BRANCH  19  20
HETATM   20  C   UNL     1     -10.545  13.230  64.396  1.00  0.00    -0.438 A  
HETATM   21  F   UNL     1     -13.145  15.537  63.902  1.00  0.00     0.091 F  
HETATM   22  C   UNL     1     -12.654  14.698  64.853  1.00  0.00    -0.165 C  
HETATM   23  C   UNL     1     -11.927  13.509  64.254  1.00  0.00    -0.479 A  
HETATM   24  F   UNL     1      -8.795  11.649  64.045  1.00  0.00     0.075 F  
HETATM   25  C   UNL     1     -12.736  12.616  63.507  1.00  0.00    -0.294 A  
HETATM   26  C   UNL     1     -10.073  12.009  63.876  1.00  0.00    -0.369 A  
HETATM   27  F   UNL     1     -13.732  14.299  65.588  1.00  0.00    -0.224 F  
HETATM   28  F   UNL     1     -11.926  15.474  65.695  1.00  0.00     0.000 F  
HETATM   29  C   UNL     1     -10.894  11.124  63.175  1.00  0.00    -0.002 A  
HETATM   30  C   UNL     1     -12.223  11.444  62.960  1.00  0.00     0.393 A  
ENDBRANCH  19  20
ENDBRANCH  13  19
BRANCH  18  31
HETATM   31  C   UNL     1     -11.094  12.915  69.272  1.00  0.00    -0.133 C  
BRANCH  31  32
HETATM   32  C   UNL     1     -10.420  11.653  69.901  1.00  0.00     0.786 C  
BRANCH  32  33
HETATM   33  N   UNL     1      -9.761  10.756  68.913  1.00  0.00    -0.195 NA 
HETATM   34  H   UNL     1      -9.952  11.077  67.964  1.00  0.00     0.000 HD 
BRANCH  33  35
HETATM   35  C   UNL     1      -8.325  10.577  69.104  1.00  0.00    -0.151 C  
BRANCH  35  36
HETATM   36  C   UNL     1      -7.766   9.556  68.101  1.00  0.00    -0.083 C  
BRANCH  36  37
HETATM   37  C   UNL     1      -8.032   9.934  66.644  1.00  0.00    -0.113 C  
HETATM   38  O   UNL     1      -8.802   8.328  65.021  1.00  0.00    -0.080 OA 
HETATM   39  C   UNL     1      -9.046   9.034  65.986  1.00  0.00    -0.208 C  
HETATM   40  O   UNL     1     -10.279   9.117  66.530  1.00  0.00    -0.278 OA 
ENDBRANCH  36  37
ENDBRANCH  35  36
ENDBRANCH  33  35
ENDBRANCH  32  33
BRANCH  32  41
HETATM   41  C   UNL     1     -11.409  10.801  70.703  1.00  0.00    -0.202 A  
HETATM   42  C   UNL     1     -13.597  10.543  71.740  1.00  0.00    -0.212 A  
HETATM   43  C   UNL     1     -11.949   8.807  72.005  1.00  0.00    -0.446 A  
HETATM   44  C   UNL     1     -12.698  11.285  70.969  1.00  0.00    -0.457 A  
HETATM   45  C   UNL     1     -11.053   9.542  71.224  1.00  0.00    -0.449 A  
HETATM   46  C   UNL     1     -13.223   9.307  72.261  1.00  0.00    -0.535 A  
ENDBRANCH  32  41
ENDBRANCH  31  32
ENDBRANCH  18  31
ENDBRANCH   6  10
ENDBRANCH   2   3
TORSDOF 11
ENDMDL
MODEL      206
REMARK 921   NORMALIZED FREE ENERGY PREDICTED BY IDOCK:   -2.38 KCAL/MOL
REMARK 922        TOTAL FREE ENERGY PREDICTED BY IDOCK:   -6.96 KCAL/MOL
REMARK 923 INTER-LIGAND FREE ENERGY PREDICTED BY IDOCK:   -8.20 KCAL/MOL
REMARK 924 INTRA-LIGAND FREE ENERGY PREDICTED BY IDOCK:    1.24 KCAL/MOL
REMARK 927      BINDING AFFINITY PREDICTED BY RF-SCORE:    0.00 PKD
ROOT
HETATM    1  C   UNL     1     -10.649  17.659  69.292  1.00  0.00     0.091 C  
HETATM    2  O   UNL     1     -11.180  16.667  68.407  1.00  0.00    -0.357 OA 
ENDROOT
BRANCH   2   3
HETATM    3  C   UNL     1     -11.359  15.431  68.970  1.00  0.00    -0.316 A  
HETATM    4  C   UNL     1     -10.823  14.334  68.281  1.00  0.00    -0.246 A  
HETATM    5  F   UNL     1     -10.177  14.535  67.119  1.00  0.00    -0.251 F  
HETATM    6  C   UNL     1     -10.939  13.034  68.791  1.00  0.00    -0.295 A  
HETATM    7  C   UNL     1     -11.631  12.835  69.994  1.00  0.00    -0.194 A  
HETATM    8  C   UNL     1     -12.063  15.216  70.160  1.00  0.00    -0.384 A  
HETATM    9  C   UNL     1     -12.192  13.923  70.669  1.00  0.00    -0.443 A  
BRANCH   6  10
HETATM   10  C   UNL     1     -10.295  11.891  68.111  1.00  0.00    -0.210 C  
HETATM   11  C   UNL     1      -8.244  13.214  67.516  1.00  0.00    -0.183 C  
HETATM   12  C   UNL     1      -9.080  11.951  67.521  1.00  0.00    -0.178 C  
HETATM   13  N   UNL     1      -8.536  10.803  66.931  1.00  0.00    -0.128 N  
HETATM   14  C   UNL     1      -9.063   9.532  67.172  1.00  0.00    -0.134 C  
HETATM   15  C   UNL     1     -11.066  10.614  68.011  1.00  0.00    -0.301 C  
HETATM   16  O   UNL     1      -8.405   8.504  66.990  1.00  0.00    -0.109 OA 
HETATM   17  O   UNL     1     -12.270  10.595  68.270  1.00  0.00    -0.345 OA 
HETATM   18  N   UNL     1     -10.362   9.492  67.633  1.00  0.00    -0.228 N  
BRANCH  13  19
HETATM   19  C   UNL     1      -7.297  10.832  66.144  1.00  0.00    -0.127 C  
BRANCH  19  20
HETATM   20  C   UNL     1      -7.149   9.797  65.034  1.00  0.00    -0.120 A  
HETATM   21  F   UNL     1      -8.780  11.726  62.594  1.00  0.00    -0.228 F  
HETATM   22  C   UNL     1      -9.046  10.778  63.534  1.00  0.00    -0.226 C  
HETATM   23  C   UNL     1      -7.852   9.885  63.806  1.00  0.00    -0.147 A  
HETATM   24  F   UNL     1      -5.498   8.628  66.295  1.00  0.00    -0.032 F  
HETATM   25  C   UNL     1      -7.441   9.072  62.720  1.00  0.00    -0.103 A  
HETATM   26  C   UNL     1      -6.145   8.815  65.138  1.00  0.00    -0.059 A  
HETATM   27  F   UNL     1     -10.100  10.061  63.047  1.00  0.00    -0.137 F  
HETATM   28  F   UNL     1      -9.544  11.445  64.606  1.00  0.00    -0.237 F  
HETATM   29  C   UNL     1      -5.780   7.997  64.068  1.00  0.00    -0.056 A  
HETATM   30  C   UNL     1      -6.407   8.148  62.844  1.00  0.00    -0.085 A  
ENDBRANCH  19  20
ENDBRANCH  13  19
BRANCH  18  31
HETATM   31  C   UNL     1     -11.035   8.188  67.699  1.00  0.00     0.136 C  
BRANCH  31  32
HETATM   32  C   UNL     1     -10.310   7.107  68.566  1.00  0.00    -0.183 C  
BRANCH  32  33
HETATM   33  N   UNL     1     -10.844   5.729  68.394  1.00  0.00    -0.224 NA 
HETATM   34  H   UNL     1     -11.723   5.754  67.876  1.00  0.00     0.000 HD 
BRANCH  33  35
HETATM   35  C   UNL     1      -9.921   4.782  67.774  1.00  0.00    -0.112 C  
BRANCH  35  36
HETATM   36  C   UNL     1      -8.465   5.213  68.005  1.00  0.00    -0.100 C  
BRANCH  36  37
HETATM   37  C   UNL     1      -7.598   4.109  68.611  1.00  0.00    -0.059 C  
HETATM   38  O   UNL     1      -6.306   2.598  67.248  1.00  0.00    -0.030 OA 
HETATM   39  C   UNL     1      -6.450   3.716  67.718  1.00  0.00    -0.038 C  
HETATM   40  O   UNL     1      -5.552   4.705  67.522  1.00  0.00    -0.015 OA 
ENDBRANCH  36  37
ENDBRANCH  35  36
ENDBRANCH  33  35
ENDBRANCH  32  33
BRANCH  32  41
HETATM   41  C   UNL     1     -10.355   7.432  70.062  1.00  0.00    -0.224 A  
HETATM   42  C   UNL     1      -9.346   8.482  72.014  1.00  0.00    -0.353 A  
HETATM   43  C   UNL     1     -11.360   7.189  72.274  1.00  0.00    -0.303 A  
HETATM   44  C   UNL     1      -9.347   8.217  70.641  1.00  0.00    -0.165 A  
HETATM   45  C   UNL     1     -11.370   6.932  70.900  1.00  0.00    -0.348 A  
HETATM   46  C   UNL     1     -10.349   7.966  72.831  1.00  0.00    -0.413 A  
ENDBRANCH  32  41
ENDBRANCH  31  32
ENDBRANCH  18  31
ENDBRANCH   6  10
ENDBRANCH   2   3
TORSDOF 11
ENDMDL
MODEL      207
REMARK 921   NORMALIZED FREE ENERGY PREDICTED BY IDOCK:   -2.38 KCAL/MOL
REMARK 922        TOTAL FREE ENERGY PREDICTED BY IDOCK:   -6.96 KCAL/MOL
REMARK 923 INTER-LIGAND FREE ENERGY PREDICTED BY IDOCK:   -8.63 KCAL/MOL
REMARK 924 INTRA-LIGAND FREE ENERGY PREDICTED BY IDOCK:    1.67 KCAL/MOL
REMARK 927      BINDING AFFINITY PREDICTED BY RF-SCORE:    0.00 PKD
ROOT
HETATM    1  C   UNL     1     -14.265   7.342  72.018  1.00  0.00    -0.229 C  
HETATM    2  O   UNL     1     -13.430   7.970  72.997  1.00  0.00     0.458 OA 
ENDROOT
BRANCH   2   3
HETATM    3  C   UNL     1     -12.154   8.238  72.577  1.00  0.00    -0.337 A  
HETATM    4  C   UNL     1     -12.001   8.718  71.268  1.00  0.00    -0.301 A  
HETATM    5  F   UNL     1     -13.089   8.885  70.495  1.00  0.00     0.097 F  
HETATM    6  C   UNL     1     -10.736   9.039  70.759  1.00  0.00    -0.301 A  
HETATM    7  C   UNL     1      -9.608   8.843  71.569  1.00  0.00    -0.362 A  
HETATM    8  C   UNL     1     -11.018   8.029  73.367  1.00  0.00     0.261 A  
HETATM    9  C   UNL     1      -9.754   8.337  72.864  1.00  0.00    -0.310 A  
BRANCH   6  10
HETATM   10  C   UNL     1     -10.586   9.631  69.413  1.00  0.00    -0.243 C  
HETATM   11  C   UNL     1     -12.298  11.417  69.851  1.00  0.00    -0.280 C  
HETATM   12  C   UNL     1     -11.287  10.702  68.978  1.00  0.00    -0.277 C  
HETATM   13  N   UNL     1     -11.050  11.214  67.696  1.00  0.00    -0.267 N  
HETATM   14  C   UNL     1      -9.924  10.847  66.954  1.00  0.00    -0.194 C  
HETATM   15  C   UNL     1      -9.654   8.961  68.457  1.00  0.00    -0.157 C  
HETATM   16  O   UNL     1      -9.497  11.539  66.026  1.00  0.00    -0.218 OA 
HETATM   17  O   UNL     1      -9.220   7.834  68.700  1.00  0.00    -0.139 OA 
HETATM   18  N   UNL     1      -9.313   9.667  67.324  1.00  0.00    -0.137 N  
BRANCH  13  19
HETATM   19  C   UNL     1     -11.876  12.273  67.104  1.00  0.00    -0.258 C  
BRANCH  19  20
HETATM   20  C   UNL     1     -11.162  13.532  66.626  1.00  0.00    -0.328 A  
HETATM   21  F   UNL     1     -12.409  13.368  63.347  1.00  0.00    -0.549 F  
HETATM   22  C   UNL     1     -11.340  12.962  64.085  1.00  0.00    -0.393 C  
HETATM   23  C   UNL     1     -11.064  13.885  65.257  1.00  0.00    -0.318 A  
HETATM   24  F   UNL     1     -10.734  14.188  68.877  1.00  0.00    -0.235 F  
HETATM   25  C   UNL     1     -10.663  15.200  64.912  1.00  0.00    -0.421 A  
HETATM   26  C   UNL     1     -10.741  14.487  67.573  1.00  0.00    -0.276 A  
HETATM   27  F   UNL     1     -10.284  12.930  63.221  1.00  0.00    -0.197 F  
HETATM   28  F   UNL     1     -11.574  11.662  64.398  1.00  0.00    -0.390 F  
HETATM   29  C   UNL     1     -10.313  15.765  67.212  1.00  0.00    -0.290 A  
HETATM   30  C   UNL     1     -10.305  16.135  65.879  1.00  0.00    -0.384 A  
ENDBRANCH  19  20
ENDBRANCH  13  19
BRANCH  18  31
HETATM   31  C   UNL     1      -8.263   9.127  66.451  1.00  0.00    -0.114 C  
BRANCH  31  32
HETATM   32  C   UNL     1      -8.761   8.152  65.335  1.00  0.00    -0.094 C  
BRANCH  32  33
HETATM   33  N   UNL     1      -9.197   6.821  65.837  1.00  0.00    -0.368 NA 
HETATM   34  H   UNL     1      -9.710   6.321  65.112  1.00  0.00     0.000 HD 
BRANCH  33  35
HETATM   35  C   UNL     1      -8.126   5.980  66.366  1.00  0.00    -0.110 C  
BRANCH  35  36
HETATM   36  C   UNL     1      -8.704   4.794  67.152  1.00  0.00    -0.103 C  
BRANCH  36  37
HETATM   37  C   UNL     1      -8.636   4.983  68.667  1.00  0.00    -0.097 C  
HETATM   38  O   UNL     1     -10.157   3.872  70.170  1.00  0.00    -0.067 OA 
HETATM   39  C   UNL     1      -9.191   3.806  69.426  1.00  0.00    -0.156 C  
HETATM   40  O   UNL     1      -8.487   2.667  69.251  1.00  0.00    -0.057 OA 
ENDBRANCH  36  37
ENDBRANCH  35  36
ENDBRANCH  33  35
ENDBRANCH  32  33
BRANCH  32  41
HETATM   41  C   UNL     1      -7.700   7.909  64.256  1.00  0.00    -0.128 A  
HETATM   42  C   UNL     1      -6.700   6.442  62.589  1.00  0.00    -0.038 A  
HETATM   43  C   UNL     1      -5.700   8.587  63.031  1.00  0.00    -0.074 A  
HETATM   44  C   UNL     1      -7.689   6.701  63.542  1.00  0.00    -0.110 A  
HETATM   45  C   UNL     1      -6.695   8.854  63.976  1.00  0.00    -0.087 A  
HETATM   46  C   UNL     1      -5.704   7.382  62.336  1.00  0.00    -0.050 A  
ENDBRANCH  32  41
ENDBRANCH  31  32
ENDBRANCH  18  31
ENDBRANCH   6  10
ENDBRANCH   2   3
TORSDOF 11
ENDMDL
MODEL      208
REMARK 921   NORMALIZED FREE ENERGY PREDICTED BY IDOCK:   -2.38 KCAL/MOL
REMARK 922        TOTAL FREE ENERGY PREDICTED BY IDOCK:   -6.96 KCAL/MOL
REMARK 923 INTER-LIGAND FREE ENERGY PREDICTED BY IDOCK:   -8.38 KCAL/MOL
REMARK 924 INTRA-LIGAND FREE ENERGY PREDICTED BY IDOCK:    1.42 KCAL/MOL
REMARK 927      BINDING AFFINITY PREDICTED BY RF-SCORE:    0.00 PKD
ROOT
HETATM    1  C   UNL     1      -5.711   3.159  68.345  1.00  0.00    -0.022 C  
HETATM    2  O   UNL     1      -5.406   4.142  67.350  1.00  0.00    -0.011 OA 
ENDROOT
BRANCH   2   3
HETATM    3  C   UNL     1      -6.468   4.522  66.573  1.00  0.00    -0.041 A  
HETATM    4  C   UNL     1      -7.154   5.684  66.955  1.00  0.00    -0.070 A  
HETATM    5  F   UNL     1      -6.754   6.358  68.048  1.00  0.00    -0.056 F  
HETATM    6  C   UNL     1      -8.240   6.160  66.208  1.00  0.00    -0.116 A  
HETATM    7  C   UNL     1      -8.659   5.439  65.081  1.00  0.00    -0.149 A  
HETATM    8  C   UNL     1      -6.909   3.802  65.457  1.00  0.00    -0.053 A  
HETATM    9  C   UNL     1      -7.995   4.264  64.714  1.00  0.00    -0.090 A  
BRANCH   6  10
HETATM   10  C   UNL     1      -8.903   7.434  66.559  1.00  0.00    -0.165 C  
HETATM   11  C   UNL     1      -8.024   8.619  64.525  1.00  0.00    -0.144 C  
HETATM   12  C   UNL     1      -8.813   8.561  65.817  1.00  0.00    -0.190 C  
HETATM   13  N   UNL     1      -9.507   9.711  66.213  1.00  0.00    -0.183 N  
HETATM   14  C   UNL     1     -10.513   9.666  67.182  1.00  0.00    -0.249 C  
HETATM   15  C   UNL     1      -9.658   7.495  67.847  1.00  0.00    -0.143 C  
HETATM   16  O   UNL     1     -11.373  10.546  67.274  1.00  0.00    -0.359 OA 
HETATM   17  O   UNL     1      -9.530   6.601  68.684  1.00  0.00    -0.130 OA 
HETATM   18  N   UNL     1     -10.492   8.577  68.027  1.00  0.00    -0.215 N  
BRANCH  13  19
HETATM   19  C   UNL     1      -9.335  11.006  65.544  1.00  0.00    -0.215 C  
BRANCH  19  20
HETATM   20  C   UNL     1     -10.353  12.097  65.858  1.00  0.00    -0.286 A  
HETATM   21  F   UNL     1      -7.982  14.402  67.040  1.00  0.00    -0.206 F  
HETATM   22  C   UNL     1      -8.801  13.414  67.492  1.00  0.00    -0.210 C  
HETATM   23  C   UNL     1     -10.034  13.245  66.625  1.00  0.00    -0.272 A  
HETATM   24  F   UNL     1     -12.001  10.987  64.542  1.00  0.00     0.103 F  
HETATM   25  C   UNL     1     -10.927  14.346  66.618  1.00  0.00    -0.318 A  
HETATM   26  C   UNL     1     -11.607  12.073  65.217  1.00  0.00    -0.279 A  
HETATM   27  F   UNL     1      -9.137  13.766  68.766  1.00  0.00    -0.178 F  
HETATM   28  F   UNL     1      -8.019  12.314  67.629  1.00  0.00    -0.123 F  
HETATM   29  C   UNL     1     -12.489  13.153  65.253  1.00  0.00    -0.550 A  
HETATM   30  C   UNL     1     -12.135  14.308  65.928  1.00  0.00    -0.416 A  
ENDBRANCH  19  20
ENDBRANCH  13  19
BRANCH  18  31
HETATM   31  C   UNL     1     -11.388   8.585  69.190  1.00  0.00     0.508 C  
BRANCH  31  32
HETATM   32  C   UNL     1     -10.727   9.022  70.538  1.00  0.00    -0.239 C  
BRANCH  32  33
HETATM   33  N   UNL     1     -11.273  10.286  71.103  1.00  0.00    -0.265 NA 
HETATM   34  H   UNL     1     -10.537  10.807  71.578  1.00  0.00     0.000 HD 
BRANCH  33  35
HETATM   35  C   UNL     1     -11.960  11.145  70.143  1.00  0.00    -0.365 C  
BRANCH  35  36
HETATM   36  C   UNL     1     -12.622  12.335  70.855  1.00  0.00    -0.334 C  
BRANCH  36  37
HETATM   37  C   UNL     1     -12.413  13.664  70.129  1.00  0.00    -0.305 C  
HETATM   38  O   UNL     1     -13.554  15.681  70.789  1.00  0.00    -0.524 OA 
HETATM   39  C   UNL     1     -12.682  14.856  71.010  1.00  0.00    -0.348 C  
HETATM   40  O   UNL     1     -11.829  14.965  72.052  1.00  0.00    -0.362 OA 
ENDBRANCH  36  37
ENDBRANCH  35  36
ENDBRANCH  33  35
ENDBRANCH  32  33
BRANCH  32  41
HETATM   41  C   UNL     1      -9.209   9.195  70.415  1.00  0.00    -0.271 A  
HETATM   42  C   UNL     1      -6.960   8.466  70.998  1.00  0.00    -0.056 A  
HETATM   43  C   UNL     1      -7.253  10.439  69.649  1.00  0.00    -0.148 A  
HETATM   44  C   UNL     1      -8.346   8.296  71.059  1.00  0.00    -0.138 A  
HETATM   45  C   UNL     1      -8.639  10.264  69.698  1.00  0.00    -0.126 A  
HETATM   46  C   UNL     1      -6.413   9.539  70.297  1.00  0.00    -0.071 A  
ENDBRANCH  32  41
ENDBRANCH  31  32
ENDBRANCH  18  31
ENDBRANCH   6  10
ENDBRANCH   2   3
TORSDOF 11
ENDMDL
MODEL      209
REMARK 921   NORMALIZED FREE ENERGY PREDICTED BY IDOCK:   -2.37 KCAL/MOL
REMARK 922        TOTAL FREE ENERGY PREDICTED BY IDOCK:   -6.95 KCAL/MOL
REMARK 923 INTER-LIGAND FREE ENERGY PREDICTED BY IDOCK:   -8.04 KCAL/MOL
REMARK 924 INTRA-LIGAND FREE ENERGY PREDICTED BY IDOCK:    1.09 KCAL/MOL
REMARK 927      BINDING AFFINITY PREDICTED BY RF-SCORE:    0.00 PKD
ROOT
HETATM    1  C   UNL     1      -7.908   7.742  73.637  1.00  0.00    -0.154 C  
HETATM    2  O   UNL     1      -8.008   7.573  72.220  1.00  0.00    -0.096 OA 
ENDROOT
BRANCH   2   3
HETATM    3  C   UNL     1      -9.273   7.707  71.712  1.00  0.00    -0.137 A  
HETATM    4  C   UNL     1      -9.465   8.682  70.724  1.00  0.00    -0.190 A  
HETATM    5  F   UNL     1      -8.423   9.435  70.329  1.00  0.00    -0.139 F  
HETATM    6  C   UNL     1     -10.720   8.876  70.133  1.00  0.00    -0.245 A  
HETATM    7  C   UNL     1     -11.803   8.097  70.566  1.00  0.00    -0.010 A  
HETATM    8  C   UNL     1     -10.366   6.950  72.148  1.00  0.00    -0.221 A  
HETATM    9  C   UNL     1     -11.622   7.143  71.572  1.00  0.00    -0.310 A  
BRANCH   6  10
HETATM   10  C   UNL     1     -10.899   9.841  69.027  1.00  0.00    -0.223 C  
HETATM   11  C   UNL     1     -11.768  11.642  70.547  1.00  0.00    -0.196 C  
HETATM   12  C   UNL     1     -11.378  11.094  69.190  1.00  0.00    -0.273 C  
HETATM   13  N   UNL     1     -11.479  11.949  68.085  1.00  0.00    -0.295 N  
HETATM   14  C   UNL     1     -10.842  11.664  66.874  1.00  0.00    -0.278 C  
HETATM   15  C   UNL     1     -10.597   9.374  67.640  1.00  0.00    -0.271 C  
HETATM   16  O   UNL     1     -10.597  12.540  66.040  1.00  0.00    -0.254 OA 
HETATM   17  O   UNL     1     -10.440   8.175  67.409  1.00  0.00    -0.260 OA 
HETATM   18  N   UNL     1     -10.497  10.345  66.666  1.00  0.00    -0.234 N  
BRANCH  13  19
HETATM   19  C   UNL     1     -12.128  13.263  68.160  1.00  0.00    -0.211 C  
BRANCH  19  20
HETATM   20  C   UNL     1     -11.854  14.109  69.398  1.00  0.00    -0.378 A  
HETATM   21  F   UNL     1      -9.340  16.048  67.897  1.00  0.00    -0.202 F  
HETATM   22  C   UNL     1      -9.492  14.909  68.627  1.00  0.00    -0.208 C  
HETATM   23  C   UNL     1     -10.722  14.953  69.514  1.00  0.00    -0.256 A  
HETATM   24  F   UNL     1     -13.900  13.390  70.387  1.00  0.00     0.506 F  
HETATM   25  C   UNL     1     -10.692  15.926  70.545  1.00  0.00    -0.204 A  
HETATM   26  C   UNL     1     -12.844  14.212  70.395  1.00  0.00    -0.197 A  
HETATM   27  F   UNL     1      -8.352  14.789  69.366  1.00  0.00    -0.153 F  
HETATM   28  F   UNL     1      -9.441  13.886  67.738  1.00  0.00    -0.193 F  
HETATM   29  C   UNL     1     -12.779  15.152  71.424  1.00  0.00    -0.443 A  
HETATM   30  C   UNL     1     -11.715  16.035  71.482  1.00  0.00    -0.554 A  
ENDBRANCH  19  20
ENDBRANCH  13  19
BRANCH  18  31
HETATM   31  C   UNL     1     -10.023   9.954  65.333  1.00  0.00    -0.279 C  
BRANCH  31  32
HETATM   32  C   UNL     1      -8.572   9.375  65.285  1.00  0.00    -0.162 C  
BRANCH  32  33
HETATM   33  N   UNL     1      -8.444   8.002  65.844  1.00  0.00    -0.136 NA 
HETATM   34  H   UNL     1      -9.362   7.564  65.917  1.00  0.00     0.000 HD 
BRANCH  33  35
HETATM   35  C   UNL     1      -7.523   7.126  65.125  1.00  0.00    -0.094 C  
BRANCH  35  36
HETATM   36  C   UNL     1      -8.101   5.707  65.009  1.00  0.00    -0.122 C  
BRANCH  36  37
HETATM   37  C   UNL     1      -8.016   4.913  66.313  1.00  0.00    -0.107 C  
HETATM   38  O   UNL     1      -9.883   4.721  67.824  1.00  0.00    -0.159 OA 
HETATM   39  C   UNL     1      -9.357   4.401  66.770  1.00  0.00    -0.162 C  
HETATM   40  O   UNL     1      -9.911   3.503  65.927  1.00  0.00    -0.034 OA 
ENDBRANCH  36  37
ENDBRANCH  35  36
ENDBRANCH  33  35
ENDBRANCH  32  33
BRANCH  32  41
HETATM   41  C   UNL     1      -7.563  10.263  66.020  1.00  0.00    -0.128 A  
HETATM   42  C   UNL     1      -5.392  11.364  66.083  1.00  0.00    -0.052 A  
HETATM   43  C   UNL     1      -6.844  11.498  68.000  1.00  0.00    -0.064 A  
HETATM   44  C   UNL     1      -6.344  10.595  65.409  1.00  0.00    -0.052 A  
HETATM   45  C   UNL     1      -7.803  10.738  67.323  1.00  0.00    -0.113 A  
HETATM   46  C   UNL     1      -5.639  11.813  67.379  1.00  0.00    -0.100 A  
ENDBRANCH  32  41
ENDBRANCH  31  32
ENDBRANCH  18  31
ENDBRANCH   6  10
ENDBRANCH   2   3
TORSDOF 11
ENDMDL
MODEL      210
REMARK 921   NORMALIZED FREE ENERGY PREDICTED BY IDOCK:   -2.21 KCAL/MOL
REMARK 922        TOTAL FREE ENERGY PREDICTED BY IDOCK:   -6.69 KCAL/MOL
REMARK 923 INTER-LIGAND FREE ENERGY PREDICTED BY IDOCK:   -7.19 KCAL/MOL
REMARK 924 INTRA-LIGAND FREE ENERGY PREDICTED BY IDOCK:    0.50 KCAL/MOL
REMARK 927      BINDING AFFINITY PREDICTED BY RF-SCORE:    0.00 PKD
ROOT
HETATM    1  C   UNL     1      -6.876  20.234  70.565  1.00  0.00     0.293 C  
HETATM    2  O   UNL     1      -6.982  19.800  69.205  1.00  0.00    -0.341 OA 
ENDROOT
BRANCH   2   3
HETATM    3  C   UNL     1      -6.782  18.459  69.012  1.00  0.00    -0.267 A  
HETATM    4  C   UNL     1      -7.921  17.643  68.969  1.00  0.00    -0.081 A  
HETATM    5  F   UNL     1      -9.136  18.198  69.123  1.00  0.00    -0.226 F  
HETATM    6  C   UNL     1      -7.814  16.263  68.755  1.00  0.00    -0.216 A  
HETATM    7  C   UNL     1      -6.540  15.693  68.614  1.00  0.00    -0.110 A  
HETATM    8  C   UNL     1      -5.516  17.875  68.889  1.00  0.00    -0.182 A  
HETATM    9  C   UNL     1      -5.400  16.499  68.686  1.00  0.00    -0.117 A  
BRANCH   6  10
HETATM   10  C   UNL     1      -9.020  15.419  68.618  1.00  0.00    -0.191 C  
HETATM   11  C   UNL     1      -8.828  15.298  66.116  1.00  0.00    -0.166 C  
HETATM   12  C   UNL     1      -9.502  14.978  67.435  1.00  0.00    -0.201 C  
HETATM   13  N   UNL     1     -10.633  14.153  67.408  1.00  0.00    -0.277 N  
HETATM   14  C   UNL     1     -11.118  13.533  68.563  1.00  0.00    -0.272 C  
HETATM   15  C   UNL     1      -9.789  15.097  69.858  1.00  0.00    -0.054 C  
HETATM   16  O   UNL     1     -11.845  12.537  68.516  1.00  0.00    -0.305 OA 
HETATM   17  O   UNL     1      -9.562  15.705  70.905  1.00  0.00     0.966 OA 
HETATM   18  N   UNL     1     -10.733  14.097  69.761  1.00  0.00     0.034 N  
BRANCH  13  19
HETATM   19  C   UNL     1     -11.297  13.763  66.158  1.00  0.00    -0.314 C  
BRANCH  19  20
HETATM   20  C   UNL     1     -10.814  12.488  65.478  1.00  0.00    -0.312 A  
HETATM   21  F   UNL     1     -12.572  13.048  62.490  1.00  0.00     0.018 F  
HETATM   22  C   UNL     1     -12.717  12.429  63.693  1.00  0.00    -0.354 C  
HETATM   23  C   UNL     1     -11.389  11.992  64.281  1.00  0.00    -0.433 A  
HETATM   24  F   UNL     1      -9.083  12.236  67.097  1.00  0.00    -0.169 F  
HETATM   25  C   UNL     1     -10.702  10.991  63.551  1.00  0.00    -0.230 A  
HETATM   26  C   UNL     1      -9.634  11.868  65.934  1.00  0.00    -0.231 A  
HETATM   27  F   UNL     1     -13.532  11.360  63.462  1.00  0.00    -0.222 F  
HETATM   28  F   UNL     1     -13.455  13.272  64.459  1.00  0.00     0.150 F  
HETATM   29  C   UNL     1      -8.991  10.857  65.220  1.00  0.00    -0.202 A  
HETATM   30  C   UNL     1      -9.508  10.439  64.006  1.00  0.00    -0.351 A  
ENDBRANCH  19  20
ENDBRANCH  13  19
BRANCH  18  31
HETATM   31  C   UNL     1     -11.380  13.623  70.991  1.00  0.00     1.161 C  
BRANCH  31  32
HETATM   32  C   UNL     1     -12.725  12.853  70.782  1.00  0.00    -0.149 C  
BRANCH  32  33
HETATM   33  N   UNL     1     -13.892  13.469  71.471  1.00  0.00    -0.117 NA 
HETATM   34  H   UNL     1     -13.675  13.635  72.453  1.00  0.00     0.000 HD 
BRANCH  33  35
HETATM   35  C   UNL     1     -14.398  14.691  70.854  1.00  0.00     0.257 C  
BRANCH  35  36
HETATM   36  C   UNL     1     -13.784  15.931  71.520  1.00  0.00     0.103 C  
BRANCH  36  37
HETATM   37  C   UNL     1     -13.898  15.915  73.045  1.00  0.00    -0.477 C  
HETATM   38  O   UNL     1     -12.302  14.770  74.440  1.00  0.00    -0.510 OA 
HETATM   39  C   UNL     1     -12.568  15.724  73.725  1.00  0.00    -0.610 C  
HETATM   40  O   UNL     1     -11.701  16.738  73.518  1.00  0.00    -0.271 OA 
ENDBRANCH  36  37
ENDBRANCH  35  36
ENDBRANCH  33  35
ENDBRANCH  32  33
BRANCH  32  41
HETATM   41  C   UNL     1     -12.640  11.394  71.241  1.00  0.00    -0.480 A  
HETATM   42  C   UNL     1     -11.566   9.213  71.113  1.00  0.00    -0.386 A  
HETATM   43  C   UNL     1     -13.520   9.491  72.493  1.00  0.00    -0.381 A  
HETATM   44  C   UNL     1     -11.629  10.559  70.743  1.00  0.00    -0.432 A  
HETATM   45  C   UNL     1     -13.578  10.841  72.133  1.00  0.00    -0.100 A  
HETATM   46  C   UNL     1     -12.512   8.677  71.984  1.00  0.00    -0.433 A  
ENDBRANCH  32  41
ENDBRANCH  31  32
ENDBRANCH  18  31
ENDBRANCH   6  10
ENDBRANCH   2   3
TORSDOF 11
ENDMDL
MODEL      211
REMARK 921   NORMALIZED FREE ENERGY PREDICTED BY IDOCK:   -2.19 KCAL/MOL
REMARK 922        TOTAL FREE ENERGY PREDICTED BY IDOCK:   -6.66 KCAL/MOL
REMARK 923 INTER-LIGAND FREE ENERGY PREDICTED BY IDOCK:   -8.35 KCAL/MOL
REMARK 924 INTRA-LIGAND FREE ENERGY PREDICTED BY IDOCK:    1.69 KCAL/MOL
REMARK 927      BINDING AFFINITY PREDICTED BY RF-SCORE:    0.00 PKD
ROOT
HETATM    1  C   UNL     1     -11.322   5.758  69.980  1.00  0.00     0.035 C  
HETATM    2  O   UNL     1     -11.837   6.275  71.211  1.00  0.00    -0.303 OA 
ENDROOT
BRANCH   2   3
HETATM    3  C   UNL     1     -11.910   7.641  71.275  1.00  0.00    -0.292 A  
HETATM    4  C   UNL     1     -11.096   8.365  70.392  1.00  0.00    -0.231 A  
HETATM    5  F   UNL     1     -10.292   7.703  69.542  1.00  0.00    -0.195 F  
HETATM    6  C   UNL     1     -11.120   9.766  70.372  1.00  0.00    -0.367 A  
HETATM    7  C   UNL     1     -11.950  10.445  71.275  1.00  0.00    -0.425 A  
HETATM    8  C   UNL     1     -12.719   8.332  72.184  1.00  0.00    -0.366 A  
HETATM    9  C   UNL     1     -12.740   9.727  72.178  1.00  0.00    -0.410 A  
BRANCH   6  10
HETATM   10  C   UNL     1     -10.331  10.525  69.378  1.00  0.00    -0.258 C  
HETATM   11  C   UNL     1      -8.136   9.686  70.266  1.00  0.00    -0.206 C  
HETATM   12  C   UNL     1      -8.981  10.510  69.316  1.00  0.00    -0.134 C  
HETATM   13  N   UNL     1      -8.323  11.235  68.315  1.00  0.00    -0.142 N  
HETATM   14  C   UNL     1      -9.005  11.743  67.206  1.00  0.00    -0.172 C  
HETATM   15  C   UNL     1     -11.072  11.414  68.434  1.00  0.00    -0.242 C  
HETATM   16  O   UNL     1      -8.424  12.038  66.158  1.00  0.00    -0.006 OA 
HETATM   17  O   UNL     1     -12.257  11.684  68.634  1.00  0.00    -0.455 OA 
HETATM   18  N   UNL     1     -10.368  11.891  67.348  1.00  0.00    -0.205 N  
BRANCH  13  19
HETATM   19  C   UNL     1      -6.863  11.387  68.280  1.00  0.00    -0.069 C  
BRANCH  19  20
HETATM   20  C   UNL     1      -6.238  12.366  69.266  1.00  0.00    -0.101 A  
HETATM   21  F   UNL     1      -7.462  15.241  67.663  1.00  0.00    -0.125 F  
HETATM   22  C   UNL     1      -6.369  14.430  67.673  1.00  0.00    -0.106 C  
HETATM   23  C   UNL     1      -6.161  13.760  69.018  1.00  0.00    -0.095 A  
HETATM   24  F   UNL     1      -5.862  10.608  70.831  1.00  0.00    -0.095 F  
HETATM   25  C   UNL     1      -5.852  14.633  70.091  1.00  0.00    -0.139 A  
HETATM   26  C   UNL     1      -5.887  11.917  70.554  1.00  0.00    -0.125 A  
HETATM   27  F   UNL     1      -5.312  15.230  67.351  1.00  0.00    -0.096 F  
HETATM   28  F   UNL     1      -6.512  13.597  66.612  1.00  0.00     0.710 F  
HETATM   29  C   UNL     1      -5.548  12.791  71.588  1.00  0.00     0.227 A  
HETATM   30  C   UNL     1      -5.563  14.156  71.366  1.00  0.00    -0.225 A  
ENDBRANCH  19  20
ENDBRANCH  13  19
BRANCH  18  31
HETATM   31  C   UNL     1     -11.100  12.615  66.302  1.00  0.00    -0.293 C  
BRANCH  31  32
HETATM   32  C   UNL     1     -11.069  14.173  66.422  1.00  0.00    -0.320 C  
BRANCH  32  33
HETATM   33  N   UNL     1      -9.954  14.820  65.678  1.00  0.00    -0.345 NA 
HETATM   34  H   UNL     1     -10.108  14.740  64.674  1.00  0.00     0.000 HD 
BRANCH  33  35
HETATM   35  C   UNL     1      -9.697  16.211  66.039  1.00  0.00    -0.344 C  
BRANCH  35  36
HETATM   36  C   UNL     1     -10.694  17.147  65.340  1.00  0.00    -0.097 C  
BRANCH  36  37
HETATM   37  C   UNL     1     -10.428  18.627  65.617  1.00  0.00    -0.147 C  
HETATM   38  O   UNL     1     -11.415  19.782  67.488  1.00  0.00     0.104 OA 
HETATM   39  C   UNL     1     -10.589  18.984  67.071  1.00  0.00    -0.461 C  
HETATM   40  O   UNL     1      -9.694  18.379  67.881  1.00  0.00    -0.288 OA 
ENDBRANCH  36  37
ENDBRANCH  35  36
ENDBRANCH  33  35
ENDBRANCH  32  33
BRANCH  32  41
HETATM   41  C   UNL     1     -10.983  14.645  67.877  1.00  0.00    -0.283 A  
HETATM   42  C   UNL     1     -12.091  15.442  69.894  1.00  0.00    -0.382 A  
HETATM   43  C   UNL     1      -9.687  15.300  69.840  1.00  0.00    -0.108 A  
HETATM   44  C   UNL     1     -12.153  14.963  68.582  1.00  0.00    -0.205 A  
HETATM   45  C   UNL     1      -9.748  14.810  68.533  1.00  0.00    -0.218 A  
HETATM   46  C   UNL     1     -10.859  15.614  70.522  1.00  0.00    -0.347 A  
ENDBRANCH  32  41
ENDBRANCH  31  32
ENDBRANCH  18  31
ENDBRANCH   6  10
ENDBRANCH   2   3
TORSDOF 11
ENDMDL
MODEL      212
REMARK 921   NORMALIZED FREE ENERGY PREDICTED BY IDOCK:   -2.14 KCAL/MOL
REMARK 922        TOTAL FREE ENERGY PREDICTED BY IDOCK:   -6.57 KCAL/MOL
REMARK 923 INTER-LIGAND FREE ENERGY PREDICTED BY IDOCK:   -6.31 KCAL/MOL
REMARK 924 INTRA-LIGAND FREE ENERGY PREDICTED BY IDOCK:   -0.26 KCAL/MOL
REMARK 927      BINDING AFFINITY PREDICTED BY RF-SCORE:    0.00 PKD
ROOT
HETATM    1  C   UNL     1      -6.773  20.620  67.994  1.00  0.00    -0.288 C  
HETATM    2  O   UNL     1      -7.611  20.042  69.001  1.00  0.00    -0.197 OA 
ENDROOT
BRANCH   2   3
HETATM    3  C   UNL     1      -7.320  18.741  69.313  1.00  0.00    -0.116 A  
HETATM    4  C   UNL     1      -8.122  17.750  68.729  1.00  0.00    -0.226 A  
HETATM    5  F   UNL     1      -9.126  18.111  67.910  1.00  0.00    -0.250 F  
HETATM    6  C   UNL     1      -7.886  16.391  68.975  1.00  0.00    -0.231 A  
HETATM    7  C   UNL     1      -6.848  16.028  69.846  1.00  0.00     0.018 A  
HETATM    8  C   UNL     1      -6.300  18.365  70.195  1.00  0.00     0.099 A  
HETATM    9  C   UNL     1      -6.065  17.014  70.453  1.00  0.00     0.242 A  
BRANCH   6  10
HETATM   10  C   UNL     1      -8.673  15.346  68.287  1.00  0.00    -0.164 C  
HETATM   11  C   UNL     1      -7.518  15.720  66.088  1.00  0.00     1.205 C  
HETATM   12  C   UNL     1      -8.529  15.031  66.981  1.00  0.00    -0.229 C  
HETATM   13  N   UNL     1      -9.298  14.000  66.425  1.00  0.00    -0.256 N  
HETATM   14  C   UNL     1     -10.000  13.094  67.224  1.00  0.00    -0.230 C  
HETATM   15  C   UNL     1      -9.739  14.649  69.069  1.00  0.00    -0.160 C  
HETATM   16  O   UNL     1     -10.357  11.990  66.804  1.00  0.00    -0.204 OA 
HETATM   17  O   UNL     1     -10.101  15.093  70.158  1.00  0.00    -0.174 OA 
HETATM   18  N   UNL     1     -10.267  13.503  68.513  1.00  0.00    -0.240 N  
BRANCH  13  19
HETATM   19  C   UNL     1      -9.304  13.708  64.986  1.00  0.00     0.864 C  
BRANCH  19  20
HETATM   20  C   UNL     1     -10.627  13.273  64.367  1.00  0.00    -0.438 A  
HETATM   21  F   UNL     1      -9.972   9.832  64.623  1.00  0.00    -0.373 F  
HETATM   22  C   UNL     1      -9.827  10.866  63.750  1.00  0.00    -0.337 C  
HETATM   23  C   UNL     1     -10.877  11.942  63.950  1.00  0.00    -0.456 A  
HETATM   24  F   UNL     1     -11.532  15.456  64.679  1.00  0.00    -0.380 F  
HETATM   25  C   UNL     1     -12.210  11.547  63.673  1.00  0.00    -0.154 A  
HETATM   26  C   UNL     1     -11.716  14.166  64.371  1.00  0.00    -0.392 A  
HETATM   27  F   UNL     1      -9.914  10.314  62.506  1.00  0.00    -0.289 F  
HETATM   28  F   UNL     1      -8.537  11.271  63.863  1.00  0.00    -0.021 F  
HETATM   29  C   UNL     1     -13.016  13.768  64.059  1.00  0.00     0.599 A  
HETATM   30  C   UNL     1     -13.271  12.446  63.740  1.00  0.00     0.126 A  
ENDBRANCH  19  20
ENDBRANCH  13  19
BRANCH  18  31
HETATM   31  C   UNL     1     -11.180  12.688  69.324  1.00  0.00    -0.193 C  
BRANCH  31  32
HETATM   32  C   UNL     1     -10.595  11.326  69.821  1.00  0.00     0.163 C  
BRANCH  32  33
HETATM   33  N   UNL     1     -10.254  10.374  68.730  1.00  0.00    -0.177 NA 
HETATM   34  H   UNL     1     -10.620  10.712  67.840  1.00  0.00     0.000 HD 
BRANCH  33  35
HETATM   35  C   UNL     1      -8.833  10.063  68.603  1.00  0.00    -0.132 C  
BRANCH  35  36
HETATM   36  C   UNL     1      -8.472   8.824  69.436  1.00  0.00    -0.125 C  
BRANCH  36  37
HETATM   37  C   UNL     1      -7.738   9.163  70.734  1.00  0.00    -0.162 C  
HETATM   38  O   UNL     1      -8.559   8.472  72.892  1.00  0.00    -0.345 OA 
HETATM   39  C   UNL     1      -8.021   8.176  71.836  1.00  0.00    -0.121 C  
HETATM   40  O   UNL     1      -7.574   6.928  71.576  1.00  0.00    -0.085 OA 
ENDBRANCH  36  37
ENDBRANCH  35  36
ENDBRANCH  33  35
ENDBRANCH  32  33
BRANCH  32  41
HETATM   41  C   UNL     1     -11.541  10.600  70.783  1.00  0.00    -0.388 A  
HETATM   42  C   UNL     1     -12.115   8.603  72.053  1.00  0.00    -0.442 A  
HETATM   43  C   UNL     1     -13.621  10.482  72.056  1.00  0.00    -0.216 A  
HETATM   44  C   UNL     1     -11.240   9.300  71.215  1.00  0.00    -0.425 A  
HETATM   45  C   UNL     1     -12.742  11.185  71.227  1.00  0.00    -0.531 A  
HETATM   46  C   UNL     1     -13.307   9.192  72.471  1.00  0.00    -0.481 A  
ENDBRANCH  32  41
ENDBRANCH  31  32
ENDBRANCH  18  31
ENDBRANCH   6  10
ENDBRANCH   2   3
TORSDOF 11
ENDMDL
MODEL      213
REMARK 921   NORMALIZED FREE ENERGY PREDICTED BY IDOCK:   -2.09 KCAL/MOL
REMARK 922        TOTAL FREE ENERGY PREDICTED BY IDOCK:   -6.50 KCAL/MOL
REMARK 923 INTER-LIGAND FREE ENERGY PREDICTED BY IDOCK:   -5.17 KCAL/MOL
REMARK 924 INTRA-LIGAND FREE ENERGY PREDICTED BY IDOCK:   -1.33 KCAL/MOL
REMARK 927      BINDING AFFINITY PREDICTED BY RF-SCORE:    0.00 PKD
ROOT
HETATM    1  C   UNL     1      -6.635   1.504  73.930  1.00  0.00    -0.017 C  
HETATM    2  O   UNL     1      -6.736   2.932  73.911  1.00  0.00    -0.028 OA 
ENDROOT
BRANCH   2   3
HETATM    3  C   UNL     1      -7.822   3.423  73.236  1.00  0.00    -0.069 A  
HETATM    4  C   UNL     1      -7.575   4.091  72.029  1.00  0.00    -0.066 A  
HETATM    5  F   UNL     1      -6.309   4.226  71.596  1.00  0.00    -0.016 F  
HETATM    6  C   UNL     1      -8.627   4.609  71.261  1.00  0.00    -0.127 A  
HETATM    7  C   UNL     1      -9.941   4.478  71.732  1.00  0.00    -0.264 A  
HETATM    8  C   UNL     1      -9.137   3.316  73.704  1.00  0.00    -0.093 A  
HETATM    9  C   UNL     1     -10.189   3.838  72.950  1.00  0.00    -0.233 A  
BRANCH   6  10
HETATM   10  C   UNL     1      -8.372   5.232  69.945  1.00  0.00    -0.094 C  
HETATM   11  C   UNL     1      -7.922   3.027  68.828  1.00  0.00    -0.065 C  
HETATM   12  C   UNL     1      -8.044   4.537  68.833  1.00  0.00    -0.077 C  
HETATM   13  N   UNL     1      -7.855   5.213  67.621  1.00  0.00    -0.095 N  
HETATM   14  C   UNL     1      -8.268   6.537  67.446  1.00  0.00    -0.121 C  
HETATM   15  C   UNL     1      -8.410   6.723  69.861  1.00  0.00    -0.135 C  
HETATM   16  O   UNL     1      -8.463   7.020  66.327  1.00  0.00    -0.122 OA 
HETATM   17  O   UNL     1      -8.416   7.403  70.888  1.00  0.00    -0.121 OA 
HETATM   18  N   UNL     1      -8.450   7.273  68.598  1.00  0.00    -0.129 N  
BRANCH  13  19
HETATM   19  C   UNL     1      -7.352   4.546  66.414  1.00  0.00    -0.081 C  
BRANCH  19  20
HETATM   20  C   UNL     1      -8.310   4.418  65.235  1.00  0.00    -0.112 A  
HETATM   21  F   UNL     1      -5.790   4.429  62.789  1.00  0.00    -0.014 F  
HETATM   22  C   UNL     1      -6.614   5.286  63.451  1.00  0.00    -0.026 C  
HETATM   23  C   UNL     1      -7.904   4.621  63.893  1.00  0.00    -0.087 A  
HETATM   24  F   UNL     1     -10.075   3.756  66.694  1.00  0.00    -0.203 F  
HETATM   25  C   UNL     1      -8.756   4.192  62.844  1.00  0.00    -0.104 A  
HETATM   26  C   UNL     1      -9.601   3.898  65.450  1.00  0.00    -0.185 A  
HETATM   27  F   UNL     1      -6.858   6.309  62.582  1.00  0.00    -0.037 F  
HETATM   28  F   UNL     1      -5.864   5.837  64.438  1.00  0.00    -0.021 F  
HETATM   29  C   UNL     1     -10.441   3.516  64.404  1.00  0.00    -0.131 A  
HETATM   30  C   UNL     1     -10.005   3.632  63.095  1.00  0.00    -0.156 A  
ENDBRANCH  19  20
ENDBRANCH  13  19
BRANCH  18  31
HETATM   31  C   UNL     1      -8.673   8.718  68.469  1.00  0.00    -0.135 C  
BRANCH  31  32
HETATM   32  C   UNL     1      -7.964   9.397  67.252  1.00  0.00    -0.106 C  
BRANCH  32  33
HETATM   33  N   UNL     1      -6.532   9.725  67.486  1.00  0.00    -0.067 NA 
HETATM   34  H   UNL     1      -6.381   9.964  68.466  1.00  0.00     0.000 HD 
BRANCH  33  35
HETATM   35  C   UNL     1      -5.586   8.695  67.067  1.00  0.00    -0.038 C  
BRANCH  35  36
HETATM   36  C   UNL     1      -5.273   8.821  65.568  1.00  0.00    -0.034 C  
BRANCH  36  37
HETATM   37  C   UNL     1      -5.493  10.233  65.023  1.00  0.00    -0.119 C  
HETATM   38  O   UNL     1      -5.326  10.743  62.674  1.00  0.00    -0.143 OA 
HETATM   39  C   UNL     1      -5.956  10.237  63.590  1.00  0.00    -0.140 C  
HETATM   40  O   UNL     1      -7.169   9.673  63.409  1.00  0.00    -0.105 OA 
ENDBRANCH  36  37
ENDBRANCH  35  36
ENDBRANCH  33  35
ENDBRANCH  32  33
BRANCH  32  41
HETATM   41  C   UNL     1      -8.664  10.687  66.814  1.00  0.00    -0.133 A  
HETATM   42  C   UNL     1      -9.458  12.928  67.343  1.00  0.00    -0.198 A  
HETATM   43  C   UNL     1      -9.923  11.988  65.175  1.00  0.00    -0.265 A  
HETATM   44  C   UNL     1      -8.780  11.761  67.709  1.00  0.00    -0.155 A  
HETATM   45  C   UNL     1      -9.236  10.824  65.535  1.00  0.00    -0.230 A  
HETATM   46  C   UNL     1     -10.032  13.040  66.079  1.00  0.00    -0.277 A  
ENDBRANCH  32  41
ENDBRANCH  31  32
ENDBRANCH  18  31
ENDBRANCH   6  10
ENDBRANCH   2   3
TORSDOF 11
ENDMDL
MODEL      214
REMARK 921   NORMALIZED FREE ENERGY PREDICTED BY IDOCK:   -2.09 KCAL/MOL
REMARK 922        TOTAL FREE ENERGY PREDICTED BY IDOCK:   -6.49 KCAL/MOL
REMARK 923 INTER-LIGAND FREE ENERGY PREDICTED BY IDOCK:   -8.28 KCAL/MOL
REMARK 924 INTRA-LIGAND FREE ENERGY PREDICTED BY IDOCK:    1.79 KCAL/MOL
REMARK 927      BINDING AFFINITY PREDICTED BY RF-SCORE:    0.00 PKD
ROOT
HETATM    1  C   UNL     1     -11.368  15.902  71.210  1.00  0.00    -0.365 C  
HETATM    2  O   UNL     1     -12.559  15.294  70.700  1.00  0.00    -0.363 OA 
ENDROOT
BRANCH   2   3
HETATM    3  C   UNL     1     -12.729  13.981  71.049  1.00  0.00    -0.361 A  
HETATM    4  C   UNL     1     -12.048  13.024  70.283  1.00  0.00    -0.314 A  
HETATM    5  F   UNL     1     -11.278  13.426  69.256  1.00  0.00    -0.274 F  
HETATM    6  C   UNL     1     -12.146  11.658  70.579  1.00  0.00    -0.458 A  
HETATM    7  C   UNL     1     -12.966  11.250  71.641  1.00  0.00    -0.537 A  
HETATM    8  C   UNL     1     -13.559  13.558  72.093  1.00  0.00    -0.651 A  
HETATM    9  C   UNL     1     -13.670  12.199  72.388  1.00  0.00    -0.002 A  
BRANCH   6  10
HETATM   10  C   UNL     1     -11.356  10.659  69.829  1.00  0.00    -0.371 C  
HETATM   11  C   UNL     1     -10.326   9.699  71.910  1.00  0.00     0.738 C  
HETATM   12  C   UNL     1     -10.520   9.768  70.409  1.00  0.00    -0.297 C  
HETATM   13  N   UNL     1      -9.839   8.836  69.617  1.00  0.00    -0.179 N  
HETATM   14  C   UNL     1     -10.199   8.598  68.288  1.00  0.00    -0.198 C  
HETATM   15  C   UNL     1     -11.434  10.686  68.337  1.00  0.00    -0.259 C  
HETATM   16  O   UNL     1      -9.890   7.556  67.702  1.00  0.00    -0.147 OA 
HETATM   17  O   UNL     1     -11.943  11.647  67.760  1.00  0.00    -0.608 OA 
HETATM   18  N   UNL     1     -10.926   9.593  67.669  1.00  0.00    -0.214 N  
BRANCH  13  19
HETATM   19  C   UNL     1      -8.806   7.944  70.159  1.00  0.00    -0.144 C  
BRANCH  19  20
HETATM   20  C   UNL     1      -9.157   6.467  70.291  1.00  0.00    -0.155 A  
HETATM   21  F   UNL     1      -5.978   5.310  69.349  1.00  0.00    -0.016 F  
HETATM   22  C   UNL     1      -7.187   5.616  68.805  1.00  0.00    -0.081 C  
HETATM   23  C   UNL     1      -8.326   5.434  69.790  1.00  0.00    -0.100 A  
HETATM   24  F   UNL     1     -11.115   7.006  71.539  1.00  0.00    -0.248 F  
HETATM   25  C   UNL     1      -8.556   4.100  70.211  1.00  0.00    -0.104 A  
HETATM   26  C   UNL     1     -10.247   6.087  71.099  1.00  0.00    -0.207 A  
HETATM   27  F   UNL     1      -7.327   4.791  67.728  1.00  0.00    -0.066 F  
HETATM   28  F   UNL     1      -7.054   6.859  68.277  1.00  0.00    -0.073 F  
HETATM   29  C   UNL     1     -10.480   4.763  71.472  1.00  0.00    -0.142 A  
HETATM   30  C   UNL     1      -9.612   3.769  71.055  1.00  0.00    -0.249 A  
ENDBRANCH  19  20
ENDBRANCH  13  19
BRANCH  18  31
HETATM   31  C   UNL     1     -11.146   9.493  66.221  1.00  0.00     0.967 C  
BRANCH  31  32
HETATM   32  C   UNL     1     -10.128  10.285  65.336  1.00  0.00    -0.284 C  
BRANCH  32  33
HETATM   33  N   UNL     1      -8.764  10.391  65.921  1.00  0.00    -0.152 NA 
HETATM   34  H   UNL     1      -8.060  10.341  65.186  1.00  0.00     0.000 HD 
BRANCH  33  35
HETATM   35  C   UNL     1      -8.540  11.570  66.753  1.00  0.00    -0.170 C  
BRANCH  35  36
HETATM   36  C   UNL     1      -7.054  11.960  66.755  1.00  0.00    -0.003 C  
BRANCH  36  37
HETATM   37  C   UNL     1      -6.496  12.202  68.158  1.00  0.00    -0.056 C  
HETATM   38  O   UNL     1      -6.887  10.671  69.977  1.00  0.00    -0.148 OA 
HETATM   39  C   UNL     1      -6.304  10.926  68.935  1.00  0.00    -0.046 C  
HETATM   40  O   UNL     1      -5.379  10.099  68.401  1.00  0.00    -0.036 OA 
ENDBRANCH  36  37
ENDBRANCH  35  36
ENDBRANCH  33  35
ENDBRANCH  32  33
BRANCH  32  41
HETATM   41  C   UNL     1     -10.606  11.708  65.028  1.00  0.00    -0.342 A  
HETATM   42  C   UNL     1     -12.292  13.201  64.103  1.00  0.00    -0.418 A  
HETATM   43  C   UNL     1     -10.230  14.119  64.943  1.00  0.00    -0.371 A  
HETATM   44  C   UNL     1     -11.861  11.914  64.436  1.00  0.00    -0.336 A  
HETATM   45  C   UNL     1      -9.802  12.834  65.288  1.00  0.00    -0.118 A  
HETATM   46  C   UNL     1     -11.477  14.303  64.353  1.00  0.00    -0.321 A  
ENDBRANCH  32  41
ENDBRANCH  31  32
ENDBRANCH  18  31
ENDBRANCH   6  10
ENDBRANCH   2   3
TORSDOF 11
ENDMDL
MODEL      215
REMARK 921   NORMALIZED FREE ENERGY PREDICTED BY IDOCK:   -2.08 KCAL/MOL
REMARK 922        TOTAL FREE ENERGY PREDICTED BY IDOCK:   -6.47 KCAL/MOL
REMARK 923 INTER-LIGAND FREE ENERGY PREDICTED BY IDOCK:   -8.26 KCAL/MOL
REMARK 924 INTRA-LIGAND FREE ENERGY PREDICTED BY IDOCK:    1.79 KCAL/MOL
REMARK 927      BINDING AFFINITY PREDICTED BY RF-SCORE:    0.00 PKD
ROOT
HETATM    1  C   UNL     1     -12.301  13.562  68.327  1.00  0.00     0.095 C  
HETATM    2  O   UNL     1     -12.251  13.528  69.757  1.00  0.00    -0.313 OA 
ENDROOT
BRANCH   2   3
HETATM    3  C   UNL     1     -12.119  12.277  70.299  1.00  0.00    -0.295 A  
HETATM    4  C   UNL     1     -11.207  11.409  69.684  1.00  0.00    -0.230 A  
HETATM    5  F   UNL     1     -10.519  11.829  68.607  1.00  0.00    -0.199 F  
HETATM    6  C   UNL     1     -10.991  10.117  70.181  1.00  0.00    -0.376 A  
HETATM    7  C   UNL     1     -11.727   9.684  71.293  1.00  0.00    -0.458 A  
HETATM    8  C   UNL     1     -12.862  11.826  71.396  1.00  0.00    -0.440 A  
HETATM    9  C   UNL     1     -12.660  10.537  71.891  1.00  0.00    -0.349 A  
BRANCH   6  10
HETATM   10  C   UNL     1      -9.962   9.236  69.587  1.00  0.00    -0.201 C  
HETATM   11  C   UNL     1     -11.138   7.136  70.307  1.00  0.00    -0.303 C  
HETATM   12  C   UNL     1     -10.004   7.886  69.638  1.00  0.00    -0.191 C  
HETATM   13  N   UNL     1      -9.000   7.135  69.015  1.00  0.00    -0.134 N  
HETATM   14  C   UNL     1      -8.112   7.710  68.101  1.00  0.00    -0.124 C  
HETATM   15  C   UNL     1      -8.773   9.883  68.955  1.00  0.00    -0.140 C  
HETATM   16  O   UNL     1      -7.491   7.033  67.276  1.00  0.00    -0.094 OA 
HETATM   17  O   UNL     1      -8.547  11.080  69.136  1.00  0.00    -0.111 OA 
HETATM   18  N   UNL     1      -7.973   9.080  68.170  1.00  0.00    -0.101 N  
BRANCH  13  19
HETATM   19  C   UNL     1      -8.899   5.678  69.159  1.00  0.00    -0.110 C  
BRANCH  19  20
HETATM   20  C   UNL     1      -8.664   5.128  70.561  1.00  0.00    -0.134 A  
HETATM   21  F   UNL     1      -6.082   7.376  71.346  1.00  0.00    -0.036 F  
HETATM   22  C   UNL     1      -6.270   6.135  70.819  1.00  0.00    -0.039 C  
HETATM   23  C   UNL     1      -7.531   5.472  71.340  1.00  0.00    -0.098 A  
HETATM   24  F   UNL     1     -10.751   3.978  70.499  1.00  0.00     0.243 F  
HETATM   25  C   UNL     1      -7.532   5.174  72.726  1.00  0.00    -0.096 A  
HETATM   26  C   UNL     1      -9.690   4.401  71.196  1.00  0.00    -0.186 A  
HETATM   27  F   UNL     1      -5.159   5.418  71.156  1.00  0.00    -0.004 F  
HETATM   28  F   UNL     1      -6.193   6.285  69.473  1.00  0.00    -0.027 F  
HETATM   29  C   UNL     1      -9.656   4.083  72.554  1.00  0.00    -0.189 A  
HETATM   30  C   UNL     1      -8.589   4.500  73.331  1.00  0.00    -0.101 A  
ENDBRANCH  19  20
ENDBRANCH  13  19
BRANCH  18  31
HETATM   31  C   UNL     1      -6.904   9.709  67.386  1.00  0.00    -0.083 C  
BRANCH  31  32
HETATM   32  C   UNL     1      -7.375  10.462  66.099  1.00  0.00    -0.131 C  
BRANCH  32  33
HETATM   33  N   UNL     1      -8.824  10.800  66.086  1.00  0.00    -0.171 NA 
HETATM   34  H   UNL     1      -9.248  10.568  66.984  1.00  0.00     0.000 HD 
BRANCH  33  35
HETATM   35  C   UNL     1      -9.133  12.180  65.725  1.00  0.00     0.066 C  
BRANCH  35  36
HETATM   36  C   UNL     1     -10.622  12.333  65.380  1.00  0.00    -0.309 C  
BRANCH  36  37
HETATM   37  C   UNL     1     -10.956  11.909  63.949  1.00  0.00    -0.473 C  
HETATM   38  O   UNL     1     -13.225  11.605  63.197  1.00  0.00    -0.471 OA 
HETATM   39  C   UNL     1     -12.324  12.366  63.513  1.00  0.00    -0.546 C  
HETATM   40  O   UNL     1     -12.453  13.709  63.448  1.00  0.00    -0.784 OA 
ENDBRANCH  36  37
ENDBRANCH  35  36
ENDBRANCH  33  35
ENDBRANCH  32  33
BRANCH  32  41
HETATM   41  C   UNL     1      -7.079   9.673  64.819  1.00  0.00    -0.115 A  
HETATM   42  C   UNL     1      -7.821   8.812  62.665  1.00  0.00    -0.136 A  
HETATM   43  C   UNL     1      -5.626   8.242  63.476  1.00  0.00    -0.062 A  
HETATM   44  C   UNL     1      -8.055   9.567  63.817  1.00  0.00    -0.152 A  
HETATM   45  C   UNL     1      -5.854   9.007  64.624  1.00  0.00    -0.064 A  
HETATM   46  C   UNL     1      -6.609   8.146  62.496  1.00  0.00    -0.087 A  
ENDBRANCH  32  41
ENDBRANCH  31  32
ENDBRANCH  18  31
ENDBRANCH   6  10
ENDBRANCH   2   3
TORSDOF 11
ENDMDL
MODEL      216
REMARK 921   NORMALIZED FREE ENERGY PREDICTED BY IDOCK:   -2.07 KCAL/MOL
REMARK 922        TOTAL FREE ENERGY PREDICTED BY IDOCK:   -6.46 KCAL/MOL
REMARK 923 INTER-LIGAND FREE ENERGY PREDICTED BY IDOCK:   -4.81 KCAL/MOL
REMARK 924 INTRA-LIGAND FREE ENERGY PREDICTED BY IDOCK:   -1.65 KCAL/MOL
REMARK 927      BINDING AFFINITY PREDICTED BY RF-SCORE:    0.00 PKD
ROOT
HETATM    1  C   UNL     1      -6.934   4.186  62.383  1.00  0.00    -0.031 C  
HETATM    2  O   UNL     1      -7.627   3.559  63.467  1.00  0.00    -0.061 OA 
ENDROOT
BRANCH   2   3
HETATM    3  C   UNL     1      -6.882   3.388  64.604  1.00  0.00    -0.048 A  
HETATM    4  C   UNL     1      -7.189   4.210  65.697  1.00  0.00    -0.072 A  
HETATM    5  F   UNL     1      -8.175   5.117  65.585  1.00  0.00    -0.107 F  
HETATM    6  C   UNL     1      -6.493   4.092  66.908  1.00  0.00    -0.041 A  
HETATM    7  C   UNL     1      -5.455   3.155  67.007  1.00  0.00    -0.020 A  
HETATM    8  C   UNL     1      -5.830   2.470  64.711  1.00  0.00    -0.017 A  
HETATM    9  C   UNL     1      -5.126   2.354  65.910  1.00  0.00    -0.005 A  
BRANCH   6  10
HETATM   10  C   UNL     1      -6.880   4.896  68.087  1.00  0.00    -0.056 C  
HETATM   11  C   UNL     1      -8.469   3.147  68.939  1.00  0.00    -0.097 C  
HETATM   12  C   UNL     1      -7.776   4.492  69.015  1.00  0.00    -0.070 C  
HETATM   13  N   UNL     1      -8.052   5.309  70.118  1.00  0.00    -0.086 N  
HETATM   14  C   UNL     1      -7.235   6.392  70.453  1.00  0.00    -0.083 C  
HETATM   15  C   UNL     1      -6.294   6.264  68.220  1.00  0.00    -0.047 C  
HETATM   16  O   UNL     1      -7.223   6.878  71.588  1.00  0.00    -0.077 OA 
HETATM   17  O   UNL     1      -5.709   6.784  67.269  1.00  0.00    -0.012 OA 
HETATM   18  N   UNL     1      -6.436   6.884  69.443  1.00  0.00    -0.042 N  
BRANCH  13  19
HETATM   19  C   UNL     1      -9.120   5.005  71.078  1.00  0.00    -0.141 C  
BRANCH  19  20
HETATM   20  C   UNL     1      -9.911   6.181  71.639  1.00  0.00    -0.203 A  
HETATM   21  F   UNL     1     -12.178   6.333  68.961  1.00  0.00     0.145 F  
HETATM   22  C   UNL     1     -10.987   6.859  69.360  1.00  0.00    -0.237 C  
HETATM   23  C   UNL     1     -10.855   6.907  70.870  1.00  0.00    -0.277 A  
HETATM   24  F   UNL     1      -8.933   5.860  73.789  1.00  0.00    -0.127 F  
HETATM   25  C   UNL     1     -11.761   7.773  71.532  1.00  0.00    -0.312 A  
HETATM   26  C   UNL     1      -9.854   6.453  73.020  1.00  0.00    -0.165 A  
HETATM   27  F   UNL     1     -10.935   8.110  68.819  1.00  0.00    -0.156 F  
HETATM   28  F   UNL     1     -10.031   6.155  68.704  1.00  0.00    -0.132 F  
HETATM   29  C   UNL     1     -10.731   7.339  73.648  1.00  0.00    -0.282 A  
HETATM   30  C   UNL     1     -11.710   7.977  72.907  1.00  0.00    -0.222 A  
ENDBRANCH  19  20
ENDBRANCH  13  19
BRANCH  18  31
HETATM   31  C   UNL     1      -5.722   8.145  69.675  1.00  0.00    -0.026 C  
BRANCH  31  32
HETATM   32  C   UNL     1      -6.631   9.408  69.829  1.00  0.00    -0.045 C  
BRANCH  32  33
HETATM   33  N   UNL     1      -8.029   9.214  69.357  1.00  0.00    -0.093 NA 
HETATM   34  H   UNL     1      -8.216   8.223  69.210  1.00  0.00     0.000 HD 
BRANCH  33  35
HETATM   35  C   UNL     1      -9.056   9.798  70.215  1.00  0.00    -0.157 C  
BRANCH  35  36
HETATM   36  C   UNL     1      -9.860  10.863  69.452  1.00  0.00    -0.055 C  
BRANCH  36  37
HETATM   37  C   UNL     1      -9.216  11.270  68.126  1.00  0.00    -0.170 C  
HETATM   38  O   UNL     1      -9.693  10.122  66.062  1.00  0.00    -0.197 OA 
HETATM   39  C   UNL     1     -10.056  10.896  66.934  1.00  0.00    -0.212 C  
HETATM   40  O   UNL     1     -11.242  11.540  66.882  1.00  0.00    -0.299 OA 
ENDBRANCH  36  37
ENDBRANCH  35  36
ENDBRANCH  33  35
ENDBRANCH  32  33
BRANCH  32  41
HETATM   41  C   UNL     1      -6.066  10.628  69.094  1.00  0.00    -0.042 A  
HETATM   42  C   UNL     1      -5.559  13.009  69.061  1.00  0.00    -0.070 A  
HETATM   43  C   UNL     1      -5.155  11.685  67.090  1.00  0.00    -0.088 A  
HETATM   44  C   UNL     1      -6.026  11.876  69.732  1.00  0.00    -0.132 A  
HETATM   45  C   UNL     1      -5.610  10.548  67.764  1.00  0.00    -0.043 A  
HETATM   46  C   UNL     1      -5.127  12.916  67.740  1.00  0.00    -0.103 A  
ENDBRANCH  32  41
ENDBRANCH  31  32
ENDBRANCH  18  31
ENDBRANCH   6  10
ENDBRANCH   2   3
TORSDOF 11
ENDMDL
MODEL      217
REMARK 921   NORMALIZED FREE ENERGY PREDICTED BY IDOCK:   -2.05 KCAL/MOL
REMARK 922        TOTAL FREE ENERGY PREDICTED BY IDOCK:   -6.42 KCAL/MOL
REMARK 923 INTER-LIGAND FREE ENERGY PREDICTED BY IDOCK:   -6.52 KCAL/MOL
REMARK 924 INTRA-LIGAND FREE ENERGY PREDICTED BY IDOCK:    0.09 KCAL/MOL
REMARK 927      BINDING AFFINITY PREDICTED BY RF-SCORE:    0.00 PKD
ROOT
HETATM    1  C   UNL     1     -12.344  12.483  63.590  1.00  0.00    -0.522 C  
HETATM    2  O   UNL     1     -11.874  11.132  63.646  1.00  0.00     0.111 OA 
ENDROOT
BRANCH   2   3
HETATM    3  C   UNL     1     -10.514  11.000  63.734  1.00  0.00    -0.341 A  
HETATM    4  C   UNL     1      -9.926  11.259  64.981  1.00  0.00    -0.274 A  
HETATM    5  F   UNL     1     -10.705  11.626  66.014  1.00  0.00    -0.281 F  
HETATM    6  C   UNL     1      -8.544  11.130  65.170  1.00  0.00     0.069 A  
HETATM    7  C   UNL     1      -7.740  10.764  64.080  1.00  0.00     0.293 A  
HETATM    8  C   UNL     1      -9.697  10.655  62.651  1.00  0.00    -0.228 A  
HETATM    9  C   UNL     1      -8.318  10.533  62.829  1.00  0.00    -0.191 A  
BRANCH   6  10
HETATM   10  C   UNL     1      -7.939  11.314  66.506  1.00  0.00    -0.145 C  
HETATM   11  C   UNL     1      -8.680  13.709  66.670  1.00  0.00    -0.018 C  
HETATM   12  C   UNL     1      -7.982  12.473  67.200  1.00  0.00    -0.140 C  
HETATM   13  N   UNL     1      -7.409  12.540  68.477  1.00  0.00    -0.112 N  
HETATM   14  C   UNL     1      -7.048  11.390  69.182  1.00  0.00    -0.115 C  
HETATM   15  C   UNL     1      -7.177  10.168  67.089  1.00  0.00    -0.090 C  
HETATM   16  O   UNL     1      -6.908  11.390  70.408  1.00  0.00    -0.051 OA 
HETATM   17  O   UNL     1      -6.866   9.207  66.385  1.00  0.00    -0.077 OA 
HETATM   18  N   UNL     1      -6.863  10.250  68.429  1.00  0.00    -0.061 N  
BRANCH  13  19
HETATM   19  C   UNL     1      -7.285  13.800  69.220  1.00  0.00     0.041 C  
BRANCH  19  20
HETATM   20  C   UNL     1      -7.382  15.095  68.423  1.00  0.00    -0.115 A  
HETATM   21  F   UNL     1     -10.158  16.332  70.184  1.00  0.00    -0.188 F  
HETATM   22  C   UNL     1      -9.859  15.597  69.078  1.00  0.00    -0.236 C  
HETATM   23  C   UNL     1      -8.506  15.957  68.495  1.00  0.00    -0.184 A  
HETATM   24  F   UNL     1      -5.185  14.771  67.558  1.00  0.00    -0.084 F  
HETATM   25  C   UNL     1      -8.399  17.271  67.975  1.00  0.00    -0.228 A  
HETATM   26  C   UNL     1      -6.250  15.564  67.729  1.00  0.00    -0.157 A  
HETATM   27  F   UNL     1     -10.862  15.843  68.188  1.00  0.00    -0.269 F  
HETATM   28  F   UNL     1     -10.022  14.299  69.438  1.00  0.00    -0.143 F  
HETATM   29  C   UNL     1      -6.177  16.849  67.191  1.00  0.00    -0.215 A  
HETATM   30  C   UNL     1      -7.243  17.719  67.343  1.00  0.00    -0.201 A  
ENDBRANCH  19  20
ENDBRANCH  13  19
BRANCH  18  31
HETATM   31  C   UNL     1      -6.279   9.073  69.084  1.00  0.00    -0.042 C  
BRANCH  31  32
HETATM   32  C   UNL     1      -7.233   7.841  69.216  1.00  0.00    -0.081 C  
BRANCH  32  33
HETATM   33  N   UNL     1      -8.371   7.846  68.257  1.00  0.00    -0.123 NA 
HETATM   34  H   UNL     1      -8.202   8.521  67.512  1.00  0.00     0.000 HD 
BRANCH  33  35
HETATM   35  C   UNL     1      -8.705   6.543  67.689  1.00  0.00    -0.114 C  
BRANCH  35  36
HETATM   36  C   UNL     1     -10.224   6.317  67.703  1.00  0.00    -0.206 C  
BRANCH  36  37
HETATM   37  C   UNL     1     -10.643   5.084  68.505  1.00  0.00     0.097 C  
HETATM   38  O   UNL     1      -9.924   4.725  70.777  1.00  0.00    -0.200 OA 
HETATM   39  C   UNL     1     -10.638   5.329  69.991  1.00  0.00    -0.230 C  
HETATM   40  O   UNL     1     -11.541   6.249  70.394  1.00  0.00    -0.381 OA 
ENDBRANCH  36  37
ENDBRANCH  35  36
ENDBRANCH  33  35
ENDBRANCH  32  33
BRANCH  32  41
HETATM   41  C   UNL     1      -7.822   7.707  70.624  1.00  0.00    -0.097 A  
HETATM   42  C   UNL     1      -9.437   8.422  72.300  1.00  0.00    -0.367 A  
HETATM   43  C   UNL     1      -7.786   6.767  72.877  1.00  0.00    -0.098 A  
HETATM   44  C   UNL     1      -8.918   8.496  71.005  1.00  0.00    -0.219 A  
HETATM   45  C   UNL     1      -7.272   6.830  71.579  1.00  0.00    -0.081 A  
HETATM   46  C   UNL     1      -8.870   7.561  73.237  1.00  0.00    -0.221 A  
ENDBRANCH  32  41
ENDBRANCH  31  32
ENDBRANCH  18  31
ENDBRANCH   6  10
ENDBRANCH   2   3
TORSDOF 11
ENDMDL
MODEL      218
REMARK 921   NORMALIZED FREE ENERGY PREDICTED BY IDOCK:   -2.04 KCAL/MOL
REMARK 922        TOTAL FREE ENERGY PREDICTED BY IDOCK:   -6.42 KCAL/MOL
REMARK 923 INTER-LIGAND FREE ENERGY PREDICTED BY IDOCK:  -10.63 KCAL/MOL
REMARK 924 INTRA-LIGAND FREE ENERGY PREDICTED BY IDOCK:    4.21 KCAL/MOL
REMARK 927      BINDING AFFINITY PREDICTED BY RF-SCORE:    0.00 PKD
ROOT
HETATM    1  C   UNL     1      -8.265   7.201  74.554  1.00  0.00    -0.173 C  
HETATM    2  O   UNL     1      -8.232   7.451  73.145  1.00  0.00    -0.105 OA 
ENDROOT
BRANCH   2   3
HETATM    3  C   UNL     1      -9.457   7.453  72.533  1.00  0.00    -0.152 A  
HETATM    4  C   UNL     1      -9.774   8.568  71.743  1.00  0.00    -0.267 A  
HETATM    5  F   UNL     1      -8.884   9.569  71.628  1.00  0.00    -0.056 F  
HETATM    6  C   UNL     1     -10.996   8.648  71.063  1.00  0.00    -0.314 A  
HETATM    7  C   UNL     1     -11.923   7.606  71.206  1.00  0.00    -0.330 A  
HETATM    8  C   UNL     1     -10.400   6.429  72.682  1.00  0.00    -0.216 A  
HETATM    9  C   UNL     1     -11.623   6.506  72.015  1.00  0.00    -0.354 A  
BRANCH   6  10
HETATM   10  C   UNL     1     -11.289   9.780  70.159  1.00  0.00    -0.305 C  
HETATM   11  C   UNL     1     -12.645  10.998  71.888  1.00  0.00    -0.189 C  
HETATM   12  C   UNL     1     -12.039  10.849  70.507  1.00  0.00    -0.371 C  
HETATM   13  N   UNL     1     -12.233  11.891  69.591  1.00  0.00    -0.203 N  
HETATM   14  C   UNL     1     -11.454  12.009  68.436  1.00  0.00    -0.301 C  
HETATM   15  C   UNL     1     -10.784   9.699  68.755  1.00  0.00    -0.206 C  
HETATM   16  O   UNL     1     -11.338  13.078  67.831  1.00  0.00    -0.255 OA 
HETATM   17  O   UNL     1     -10.354   8.634  68.310  1.00  0.00    -0.206 OA 
HETATM   18  N   UNL     1     -10.818  10.861  68.015  1.00  0.00    -0.224 N  
BRANCH  13  19
HETATM   19  C   UNL     1     -13.154  13.005  69.846  1.00  0.00     1.060 C  
BRANCH  19  20
HETATM   20  C   UNL     1     -12.809  13.951  70.991  1.00  0.00    -0.394 A  
HETATM   21  F   UNL     1     -11.998  16.665  68.915  1.00  0.00    -0.138 F  
HETATM   22  C   UNL     1     -11.412  15.601  69.528  1.00  0.00    -0.344 C  
HETATM   23  C   UNL     1     -12.145  15.187  70.790  1.00  0.00    -0.387 A  
HETATM   24  F   UNL     1     -13.893  12.514  72.553  1.00  0.00    -0.590 F  
HETATM   25  C   UNL     1     -12.131  16.138  71.840  1.00  0.00    -0.548 A  
HETATM   26  C   UNL     1     -13.324  13.693  72.276  1.00  0.00    -0.525 A  
HETATM   27  F   UNL     1     -10.134  15.991  69.805  1.00  0.00    -0.248 F  
HETATM   28  F   UNL     1     -11.285  14.643  68.576  1.00  0.00    -0.238 F  
HETATM   29  C   UNL     1     -13.268  14.628  73.309  1.00  0.00    -0.411 A  
HETATM   30  C   UNL     1     -12.699  15.869  73.082  1.00  0.00    -0.631 A  
ENDBRANCH  19  20
ENDBRANCH  13  19
BRANCH  18  31
HETATM   31  C   UNL     1     -10.166  10.873  66.699  1.00  0.00    -0.234 C  
BRANCH  31  32
HETATM   32  C   UNL     1      -9.102  12.000  66.493  1.00  0.00    -0.202 C  
BRANCH  32  33
HETATM   33  N   UNL     1      -8.336  12.348  67.720  1.00  0.00    -0.153 NA 
HETATM   34  H   UNL     1      -8.539  11.681  68.464  1.00  0.00     0.000 HD 
BRANCH  33  35
HETATM   35  C   UNL     1      -6.893  12.468  67.532  1.00  0.00    -0.150 C  
BRANCH  35  36
HETATM   36  C   UNL     1      -6.366  11.342  66.629  1.00  0.00    -0.127 C  
BRANCH  36  37
HETATM   37  C   UNL     1      -5.431  10.375  67.354  1.00  0.00    -0.041 C  
HETATM   38  O   UNL     1      -6.104   9.181  69.337  1.00  0.00    -0.037 OA 
HETATM   39  C   UNL     1      -6.175   9.316  68.125  1.00  0.00    -0.053 C  
HETATM   40  O   UNL     1      -6.896   8.481  67.345  1.00  0.00    -0.065 OA 
ENDBRANCH  36  37
ENDBRANCH  35  36
ENDBRANCH  33  35
ENDBRANCH  32  33
BRANCH  32  41
HETATM   41  C   UNL     1      -9.721  13.296  65.958  1.00  0.00    -0.230 A  
HETATM   42  C   UNL     1     -11.201  14.422  64.386  1.00  0.00    -0.235 A  
HETATM   43  C   UNL     1      -9.876  15.732  65.911  1.00  0.00    -0.381 A  
HETATM   44  C   UNL     1     -10.663  13.248  64.919  1.00  0.00    -0.365 A  
HETATM   45  C   UNL     1      -9.345  14.559  66.454  1.00  0.00    -0.300 A  
HETATM   46  C   UNL     1     -10.806  15.664  64.878  1.00  0.00    -0.438 A  
ENDBRANCH  32  41
ENDBRANCH  31  32
ENDBRANCH  18  31
ENDBRANCH   6  10
ENDBRANCH   2   3
TORSDOF 11
ENDMDL
MODEL      219
REMARK 921   NORMALIZED FREE ENERGY PREDICTED BY IDOCK:   -1.98 KCAL/MOL
REMARK 922        TOTAL FREE ENERGY PREDICTED BY IDOCK:   -6.31 KCAL/MOL
REMARK 923 INTER-LIGAND FREE ENERGY PREDICTED BY IDOCK:   -6.11 KCAL/MOL
REMARK 924 INTRA-LIGAND FREE ENERGY PREDICTED BY IDOCK:   -0.20 KCAL/MOL
REMARK 927      BINDING AFFINITY PREDICTED BY RF-SCORE:    0.00 PKD
ROOT
HETATM    1  C   UNL     1      -8.064   1.681  66.946  1.00  0.00    -0.073 C  
HETATM    2  O   UNL     1      -7.232   2.514  66.133  1.00  0.00    -0.062 OA 
ENDROOT
BRANCH   2   3
HETATM    3  C   UNL     1      -7.904   3.447  65.389  1.00  0.00    -0.082 A  
HETATM    4  C   UNL     1      -8.185   4.675  66.007  1.00  0.00    -0.110 A  
HETATM    5  F   UNL     1      -7.796   4.877  67.278  1.00  0.00    -0.091 F  
HETATM    6  C   UNL     1      -8.851   5.696  65.316  1.00  0.00    -0.083 A  
HETATM    7  C   UNL     1      -9.266   5.466  63.997  1.00  0.00     0.459 A  
HETATM    8  C   UNL     1      -8.342   3.224  64.079  1.00  0.00    -0.090 A  
HETATM    9  C   UNL     1      -9.015   4.233  63.387  1.00  0.00    -0.130 A  
BRANCH   6  10
HETATM   10  C   UNL     1      -9.063   7.020  65.938  1.00  0.00    -0.048 C  
HETATM   11  C   UNL     1      -7.861   8.238  64.099  1.00  0.00    -0.145 C  
HETATM   12  C   UNL     1      -8.618   8.182  65.410  1.00  0.00    -0.129 C  
HETATM   13  N   UNL     1      -8.899   9.392  66.056  1.00  0.00    -0.148 N  
HETATM   14  C   UNL     1      -9.859   9.480  67.067  1.00  0.00    -0.190 C  
HETATM   15  C   UNL     1      -9.750   7.064  67.265  1.00  0.00    -0.149 C  
HETATM   16  O   UNL     1     -10.388  10.552  67.377  1.00  0.00    -0.199 OA 
HETATM   17  O   UNL     1      -9.912   6.031  67.915  1.00  0.00    -0.118 OA 
HETATM   18  N   UNL     1     -10.187   8.298  67.696  1.00  0.00    -0.215 N  
BRANCH  13  19
HETATM   19  C   UNL     1      -8.321  10.671  65.623  1.00  0.00    -0.162 C  
BRANCH  19  20
HETATM   20  C   UNL     1      -7.305  11.328  66.550  1.00  0.00    -0.101 A  
HETATM   21  F   UNL     1      -9.658  13.331  68.218  1.00  0.00    -0.206 F  
HETATM   22  C   UNL     1      -8.813  13.372  67.152  1.00  0.00    -0.222 C  
HETATM   23  C   UNL     1      -7.609  12.467  67.336  1.00  0.00    -0.160 A  
HETATM   24  F   UNL     1      -5.691   9.653  66.028  1.00  0.00    -0.051 F  
HETATM   25  C   UNL     1      -6.730  12.833  68.386  1.00  0.00    -0.087 A  
HETATM   26  C   UNL     1      -6.074  10.686  66.788  1.00  0.00    -0.074 A  
HETATM   27  F   UNL     1      -8.436  14.677  67.029  1.00  0.00    -0.201 F  
HETATM   28  F   UNL     1      -9.577  13.125  66.059  1.00  0.00    -0.261 F  
HETATM   29  C   UNL     1      -5.203  11.084  67.802  1.00  0.00    -0.039 A  
HETATM   30  C   UNL     1      -5.546  12.141  68.627  1.00  0.00    -0.053 A  
ENDBRANCH  19  20
ENDBRANCH  13  19
BRANCH  18  31
HETATM   31  C   UNL     1     -11.024   8.362  68.901  1.00  0.00     0.152 C  
BRANCH  31  32
HETATM   32  C   UNL     1     -10.290   8.033  70.241  1.00  0.00    -0.212 C  
BRANCH  32  33
HETATM   33  N   UNL     1     -10.768   8.824  71.408  1.00  0.00    -0.260 NA 
HETATM   34  H   UNL     1     -11.353   9.597  71.094  1.00  0.00     0.000 HD 
BRANCH  33  35
HETATM   35  C   UNL     1     -11.464   8.051  72.433  1.00  0.00    -0.389 C  
BRANCH  35  36
HETATM   36  C   UNL     1     -12.904   7.741  71.997  1.00  0.00    -0.265 C  
BRANCH  36  37
HETATM   37  C   UNL     1     -13.873   8.895  72.254  1.00  0.00    -0.536 C  
HETATM   38  O   UNL     1     -13.161  11.198  72.240  1.00  0.00    -0.370 OA 
HETATM   39  C   UNL     1     -13.426  10.183  71.613  1.00  0.00    -0.284 C  
HETATM   40  O   UNL     1     -13.394  10.136  70.264  1.00  0.00    -0.065 OA 
ENDBRANCH  36  37
ENDBRANCH  35  36
ENDBRANCH  33  35
ENDBRANCH  32  33
BRANCH  32  41
HETATM   41  C   UNL     1      -8.775   8.234  70.142  1.00  0.00    -0.133 A  
HETATM   42  C   UNL     1      -6.812   9.623  70.532  1.00  0.00    -0.126 A  
HETATM   43  C   UNL     1      -6.568   7.524  69.378  1.00  0.00    -0.037 A  
HETATM   44  C   UNL     1      -8.186   9.400  70.657  1.00  0.00    -0.207 A  
HETATM   45  C   UNL     1      -7.940   7.293  69.511  1.00  0.00    -0.127 A  
HETATM   46  C   UNL     1      -6.003   8.688  69.890  1.00  0.00    -0.031 A  
ENDBRANCH  32  41
ENDBRANCH  31  32
ENDBRANCH  18  31
ENDBRANCH   6  10
ENDBRANCH   2   3
TORSDOF 11
ENDMDL
MODEL      220
REMARK 921   NORMALIZED FREE ENERGY PREDICTED BY IDOCK:   -1.97 KCAL/MOL
REMARK 922        TOTAL FREE ENERGY PREDICTED BY IDOCK:   -6.30 KCAL/MOL
REMARK 923 INTER-LIGAND FREE ENERGY PREDICTED BY IDOCK:   -6.48 KCAL/MOL
REMARK 924 INTRA-LIGAND FREE ENERGY PREDICTED BY IDOCK:    0.18 KCAL/MOL
REMARK 927      BINDING AFFINITY PREDICTED BY RF-SCORE:    0.00 PKD
ROOT
HETATM    1  C   UNL     1     -14.175   6.630  71.598  1.00  0.00     0.047 C  
HETATM    2  O   UNL     1     -13.577   7.405  72.643  1.00  0.00     0.419 OA 
ENDROOT
BRANCH   2   3
HETATM    3  C   UNL     1     -12.299   7.826  72.386  1.00  0.00    -0.164 A  
HETATM    4  C   UNL     1     -12.014   8.239  71.077  1.00  0.00    -0.241 A  
HETATM    5  F   UNL     1     -12.985   8.200  70.146  1.00  0.00     0.669 F  
HETATM    6  C   UNL     1     -10.740   8.705  70.727  1.00  0.00    -0.260 A  
HETATM    7  C   UNL     1      -9.732   8.725  71.702  1.00  0.00    -0.366 A  
HETATM    8  C   UNL     1     -11.279   7.833  73.344  1.00  0.00     0.134 A  
HETATM    9  C   UNL     1     -10.004   8.287  73.001  1.00  0.00    -0.220 A  
BRANCH   6  10
HETATM   10  C   UNL     1     -10.468   9.227  69.371  1.00  0.00    -0.229 C  
HETATM   11  C   UNL     1     -12.318  10.922  69.494  1.00  0.00    -0.241 C  
HETATM   12  C   UNL     1     -11.173  10.223  68.790  1.00  0.00    -0.206 C  
HETATM   13  N   UNL     1     -10.817  10.674  67.512  1.00  0.00    -0.276 N  
HETATM   14  C   UNL     1      -9.593  10.337  66.928  1.00  0.00    -0.173 C  
HETATM   15  C   UNL     1      -9.394   8.562  68.572  1.00  0.00    -0.138 C  
HETATM   16  O   UNL     1      -9.100  10.999  66.011  1.00  0.00    -0.183 OA 
HETATM   17  O   UNL     1      -8.928   7.482  68.936  1.00  0.00    -0.135 OA 
HETATM   18  N   UNL     1      -8.963   9.222  67.441  1.00  0.00    -0.124 N  
BRANCH  13  19
HETATM   19  C   UNL     1     -11.627  11.641  66.762  1.00  0.00    -0.141 C  
BRANCH  19  20
HETATM   20  C   UNL     1     -10.948  12.936  66.331  1.00  0.00    -0.310 A  
HETATM   21  F   UNL     1     -12.506  13.067  63.186  1.00  0.00    -0.560 F  
HETATM   22  C   UNL     1     -11.376  12.595  63.779  1.00  0.00    -0.467 C  
HETATM   23  C   UNL     1     -10.979  13.409  64.995  1.00  0.00    -0.328 A  
HETATM   24  F   UNL     1     -10.299  13.388  68.579  1.00  0.00    -0.226 F  
HETATM   25  C   UNL     1     -10.598  14.748  64.731  1.00  0.00    -0.355 A  
HETATM   26  C   UNL     1     -10.428  13.801  67.313  1.00  0.00    -0.264 A  
HETATM   27  F   UNL     1     -10.409  12.637  62.817  1.00  0.00     0.047 F  
HETATM   28  F   UNL     1     -11.593  11.273  63.996  1.00  0.00    -0.393 F  
HETATM   29  C   UNL     1     -10.022  15.105  67.027  1.00  0.00    -0.242 A  
HETATM   30  C   UNL     1     -10.139  15.593  65.737  1.00  0.00    -0.394 A  
ENDBRANCH  19  20
ENDBRANCH  13  19
BRANCH  18  31
HETATM   31  C   UNL     1      -7.790   8.701  66.730  1.00  0.00    -0.094 C  
BRANCH  31  32
HETATM   32  C   UNL     1      -8.102   7.692  65.577  1.00  0.00    -0.130 C  
BRANCH  32  33
HETATM   33  N   UNL     1      -9.460   7.086  65.649  1.00  0.00    -0.280 NA 
HETATM   34  H   UNL     1      -9.938   7.186  64.754  1.00  0.00     0.000 HD 
BRANCH  33  35
HETATM   35  C   UNL     1      -9.492   5.693  66.083  1.00  0.00    -0.139 C  
BRANCH  35  36
HETATM   36  C   UNL     1     -10.011   4.784  64.959  1.00  0.00     0.044 C  
BRANCH  36  37
HETATM   37  C   UNL     1      -9.476   3.354  65.042  1.00  0.00    -0.154 C  
HETATM   38  O   UNL     1     -10.624   1.492  64.032  1.00  0.00     0.032 OA 
HETATM   39  C   UNL     1      -9.938   2.493  63.896  1.00  0.00    -0.138 C  
HETATM   40  O   UNL     1      -9.477   2.898  62.693  1.00  0.00    -0.093 OA 
ENDBRANCH  36  37
ENDBRANCH  35  36
ENDBRANCH  33  35
ENDBRANCH  32  33
BRANCH  32  41
HETATM   41  C   UNL     1      -7.092   6.542  65.516  1.00  0.00    -0.064 A  
HETATM   42  C   UNL     1      -5.780   4.968  64.200  1.00  0.00    -0.017 A  
HETATM   43  C   UNL     1      -5.719   4.841  66.604  1.00  0.00    -0.021 A  
HETATM   44  C   UNL     1      -6.664   6.048  64.275  1.00  0.00    -0.041 A  
HETATM   45  C   UNL     1      -6.594   5.928  66.681  1.00  0.00    -0.056 A  
HETATM   46  C   UNL     1      -5.311   4.362  65.363  1.00  0.00    -0.009 A  
ENDBRANCH  32  41
ENDBRANCH  31  32
ENDBRANCH  18  31
ENDBRANCH   6  10
ENDBRANCH   2   3
TORSDOF 11
ENDMDL
MODEL      221
REMARK 921   NORMALIZED FREE ENERGY PREDICTED BY IDOCK:   -1.93 KCAL/MOL
REMARK 922        TOTAL FREE ENERGY PREDICTED BY IDOCK:   -6.24 KCAL/MOL
REMARK 923 INTER-LIGAND FREE ENERGY PREDICTED BY IDOCK:   -6.60 KCAL/MOL
REMARK 924 INTRA-LIGAND FREE ENERGY PREDICTED BY IDOCK:    0.36 KCAL/MOL
REMARK 927      BINDING AFFINITY PREDICTED BY RF-SCORE:    0.00 PKD
ROOT
HETATM    1  C   UNL     1      -8.544  15.903  69.939  1.00  0.00     0.424 C  
HETATM    2  O   UNL     1      -7.151  15.736  69.652  1.00  0.00    -0.200 OA 
ENDROOT
BRANCH   2   3
HETATM    3  C   UNL     1      -6.630  14.523  70.016  1.00  0.00    -0.140 A  
HETATM    4  C   UNL     1      -7.171  13.385  69.399  1.00  0.00     0.208 A  
HETATM    5  F   UNL     1      -8.162  13.530  68.501  1.00  0.00    -0.145 F  
HETATM    6  C   UNL     1      -6.687  12.104  69.694  1.00  0.00     0.035 A  
HETATM    7  C   UNL     1      -5.666  11.965  70.645  1.00  0.00    -0.125 A  
HETATM    8  C   UNL     1      -5.625  14.368  70.977  1.00  0.00    -0.181 A  
HETATM    9  C   UNL     1      -5.144  13.094  71.283  1.00  0.00    -0.168 A  
BRANCH   6  10
HETATM   10  C   UNL     1      -7.195  10.916  68.975  1.00  0.00    -0.101 C  
HETATM   11  C   UNL     1      -7.487   9.585  71.086  1.00  0.00     0.133 C  
HETATM   12  C   UNL     1      -7.556   9.764  69.583  1.00  0.00    -0.120 C  
HETATM   13  N   UNL     1      -8.060   8.703  68.820  1.00  0.00    -0.114 N  
HETATM   14  C   UNL     1      -8.474   8.881  67.497  1.00  0.00    -0.116 C  
HETATM   15  C   UNL     1      -7.245  10.973  67.483  1.00  0.00    -0.096 C  
HETATM   16  O   UNL     1      -9.249   8.097  66.942  1.00  0.00    -0.144 OA 
HETATM   17  O   UNL     1      -6.665  11.875  66.876  1.00  0.00    -0.138 OA 
HETATM   18  N   UNL     1      -7.970   9.988  66.848  1.00  0.00    -0.112 N  
BRANCH  13  19
HETATM   19  C   UNL     1      -8.327   7.377  69.390  1.00  0.00    -0.132 C  
BRANCH  19  20
HETATM   20  C   UNL     1      -7.625   6.186  68.749  1.00  0.00    -0.092 A  
HETATM   21  F   UNL     1     -10.554   4.787  67.409  1.00  0.00    -0.178 F  
HETATM   22  C   UNL     1      -9.778   4.728  68.526  1.00  0.00    -0.151 C  
HETATM   23  C   UNL     1      -8.328   5.066  68.238  1.00  0.00    -0.095 A  
HETATM   24  F   UNL     1      -5.508   7.255  68.993  1.00  0.00    -0.016 F  
HETATM   25  C   UNL     1      -7.647   4.153  67.394  1.00  0.00    -0.076 A  
HETATM   26  C   UNL     1      -6.245   6.265  68.475  1.00  0.00    -0.032 A  
HETATM   27  F   UNL     1      -9.905   3.454  68.997  1.00  0.00    -0.225 F  
HETATM   28  F   UNL     1     -10.395   5.505  69.451  1.00  0.00    -0.247 F  
HETATM   29  C   UNL     1      -5.584   5.335  67.673  1.00  0.00    -0.013 A  
HETATM   30  C   UNL     1      -6.293   4.293  67.102  1.00  0.00    -0.040 A  
ENDBRANCH  19  20
ENDBRANCH  13  19
BRANCH  18  31
HETATM   31  C   UNL     1      -8.199  10.108  65.403  1.00  0.00    -0.151 C  
BRANCH  31  32
HETATM   32  C   UNL     1      -9.467  10.925  64.994  1.00  0.00    -0.233 C  
BRANCH  32  33
HETATM   33  N   UNL     1      -9.233  11.908  63.901  1.00  0.00    -0.414 NA 
HETATM   34  H   UNL     1      -8.661  11.490  63.167  1.00  0.00     0.000 HD 
BRANCH  33  35
HETATM   35  C   UNL     1     -10.442  12.490  63.325  1.00  0.00    -0.018 C  
BRANCH  35  36
HETATM   36  C   UNL     1     -11.553  11.434  63.212  1.00  0.00     0.019 C  
BRANCH  36  37
HETATM   37  C   UNL     1     -12.880  11.887  63.823  1.00  0.00    -0.396 C  
HETATM   38  O   UNL     1     -13.031  13.785  65.301  1.00  0.00    -0.731 OA 
HETATM   39  C   UNL     1     -12.890  13.354  64.167  1.00  0.00     0.178 C  
HETATM   40  O   UNL     1     -12.782  14.164  63.092  1.00  0.00    -0.627 OA 
ENDBRANCH  36  37
ENDBRANCH  35  36
ENDBRANCH  33  35
ENDBRANCH  32  33
BRANCH  32  41
HETATM   41  C   UNL     1     -10.075  11.690  66.173  1.00  0.00    -0.259 A  
HETATM   42  C   UNL     1     -11.508  11.718  68.143  1.00  0.00    -0.382 A  
HETATM   43  C   UNL     1     -10.470  13.761  67.405  1.00  0.00    -0.256 A  
HETATM   44  C   UNL     1     -10.905  11.025  67.088  1.00  0.00    -0.336 A  
HETATM   45  C   UNL     1      -9.857  13.069  66.356  1.00  0.00    -0.270 A  
HETATM   46  C   UNL     1     -11.294  13.085  68.299  1.00  0.00    -0.323 A  
ENDBRANCH  32  41
ENDBRANCH  31  32
ENDBRANCH  18  31
ENDBRANCH   6  10
ENDBRANCH   2   3
TORSDOF 11
ENDMDL
MODEL      222
REMARK 921   NORMALIZED FREE ENERGY PREDICTED BY IDOCK:   -1.89 KCAL/MOL
REMARK 922        TOTAL FREE ENERGY PREDICTED BY IDOCK:   -6.17 KCAL/MOL
REMARK 923 INTER-LIGAND FREE ENERGY PREDICTED BY IDOCK:   -7.17 KCAL/MOL
REMARK 924 INTRA-LIGAND FREE ENERGY PREDICTED BY IDOCK:    1.00 KCAL/MOL
REMARK 927      BINDING AFFINITY PREDICTED BY RF-SCORE:    0.00 PKD
ROOT
HETATM    1  C   UNL     1     -10.387   6.182  68.286  1.00  0.00    -0.198 C  
HETATM    2  O   UNL     1      -9.454   6.795  69.182  1.00  0.00    -0.142 OA 
ENDROOT
BRANCH   2   3
HETATM    3  C   UNL     1      -8.476   7.538  68.574  1.00  0.00    -0.129 A  
HETATM    4  C   UNL     1      -8.724   8.908  68.411  1.00  0.00    -0.134 A  
HETATM    5  F   UNL     1      -9.889   9.424  68.844  1.00  0.00    -0.158 F  
HETATM    6  C   UNL     1      -7.774   9.750  67.819  1.00  0.00    -0.091 A  
HETATM    7  C   UNL     1      -6.571   9.197  67.356  1.00  0.00    -0.065 A  
HETATM    8  C   UNL     1      -7.280   6.996  68.089  1.00  0.00    -0.091 A  
HETATM    9  C   UNL     1      -6.332   7.826  67.489  1.00  0.00    -0.055 A  
BRANCH   6  10
HETATM   10  C   UNL     1      -7.999  11.208  67.732  1.00  0.00    -0.116 C  
HETATM   11  C   UNL     1      -6.501  11.701  69.688  1.00  0.00    -0.124 C  
HETATM   12  C   UNL     1      -7.440  12.109  68.571  1.00  0.00    -0.117 C  
HETATM   13  N   UNL     1      -7.685  13.475  68.388  1.00  0.00    -0.130 N  
HETATM   14  C   UNL     1      -8.250  13.970  67.209  1.00  0.00    -0.171 C  
HETATM   15  C   UNL     1      -8.957  11.705  66.699  1.00  0.00    -0.189 C  
HETATM   16  O   UNL     1      -8.129  15.150  66.870  1.00  0.00    -0.211 OA 
HETATM   17  O   UNL     1      -9.701  10.918  66.113  1.00  0.00    -0.195 OA 
HETATM   18  N   UNL     1      -8.946  13.059  66.443  1.00  0.00    -0.069 N  
BRANCH  13  19
HETATM   19  C   UNL     1      -7.238  14.493  69.347  1.00  0.00    -0.120 C  
BRANCH  19  20
HETATM   20  C   UNL     1      -8.049  15.781  69.429  1.00  0.00    -0.209 A  
HETATM   21  F   UNL     1      -5.803  17.681  67.511  1.00  0.00    -0.129 F  
HETATM   22  C   UNL     1      -6.063  17.357  68.806  1.00  0.00    -0.174 C  
HETATM   23  C   UNL     1      -7.528  17.040  69.039  1.00  0.00    -0.211 A  
HETATM   24  F   UNL     1      -9.964  14.572  70.171  1.00  0.00     0.140 F  
HETATM   25  C   UNL     1      -8.420  18.126  68.854  1.00  0.00    -0.134 A  
HETATM   26  C   UNL     1      -9.425  15.712  69.722  1.00  0.00    -0.152 A  
HETATM   27  F   UNL     1      -5.667  18.434  69.544  1.00  0.00    -0.205 F  
HETATM   28  F   UNL     1      -5.187  16.373  69.128  1.00  0.00    -0.113 F  
HETATM   29  C   UNL     1     -10.281  16.802  69.570  1.00  0.00    -0.166 A  
HETATM   30  C   UNL     1      -9.785  18.006  69.102  1.00  0.00    -0.114 A  
ENDBRANCH  19  20
ENDBRANCH  13  19
BRANCH  18  31
HETATM   31  C   UNL     1      -9.735  13.564  65.312  1.00  0.00     0.024 C  
BRANCH  31  32
HETATM   32  C   UNL     1     -11.264  13.737  65.591  1.00  0.00    -0.302 C  
BRANCH  32  33
HETATM   33  N   UNL     1     -11.799  15.082  65.243  1.00  0.00    -0.215 NA 
HETATM   34  H   UNL     1     -12.395  15.429  65.994  1.00  0.00     0.000 HD 
BRANCH  33  35
HETATM   35  C   UNL     1     -10.788  16.078  64.902  1.00  0.00    -0.372 C  
BRANCH  35  36
HETATM   36  C   UNL     1     -10.641  17.112  66.029  1.00  0.00    -0.205 C  
BRANCH  36  37
HETATM   37  C   UNL     1     -11.019  18.530  65.600  1.00  0.00     0.209 C  
HETATM   38  O   UNL     1     -10.347  20.473  66.856  1.00  0.00    -0.300 OA 
HETATM   39  C   UNL     1     -10.045  19.566  66.097  1.00  0.00    -0.469 C  
HETATM   40  O   UNL     1      -8.803  19.436  65.582  1.00  0.00    -0.316 OA 
ENDBRANCH  36  37
ENDBRANCH  35  36
ENDBRANCH  33  35
ENDBRANCH  32  33
BRANCH  32  41
HETATM   41  C   UNL     1     -11.626  13.466  67.054  1.00  0.00    -0.396 A  
HETATM   42  C   UNL     1     -11.784  11.914  68.924  1.00  0.00    -0.381 A  
HETATM   43  C   UNL     1     -12.585  14.169  69.186  1.00  0.00     0.219 A  
HETATM   44  C   UNL     1     -11.415  12.193  67.605  1.00  0.00    -0.399 A  
HETATM   45  C   UNL     1     -12.207  14.454  67.872  1.00  0.00    -0.178 A  
HETATM   46  C   UNL     1     -12.372  12.899  69.714  1.00  0.00    -0.118 A  
ENDBRANCH  32  41
ENDBRANCH  31  32
ENDBRANCH  18  31
ENDBRANCH   6  10
ENDBRANCH   2   3
TORSDOF 11
ENDMDL
MODEL      223
REMARK 921   NORMALIZED FREE ENERGY PREDICTED BY IDOCK:   -1.80 KCAL/MOL
REMARK 922        TOTAL FREE ENERGY PREDICTED BY IDOCK:   -6.02 KCAL/MOL
REMARK 923 INTER-LIGAND FREE ENERGY PREDICTED BY IDOCK:   -6.27 KCAL/MOL
REMARK 924 INTRA-LIGAND FREE ENERGY PREDICTED BY IDOCK:    0.25 KCAL/MOL
REMARK 927      BINDING AFFINITY PREDICTED BY RF-SCORE:    0.00 PKD
ROOT
HETATM    1  C   UNL     1     -14.130   9.994  72.167  1.00  0.00     0.246 C  
HETATM    2  O   UNL     1     -13.862   9.144  71.046  1.00  0.00    -0.197 OA 
ENDROOT
BRANCH   2   3
HETATM    3  C   UNL     1     -12.565   8.718  70.946  1.00  0.00     0.030 A  
HETATM    4  C   UNL     1     -11.784   9.284  69.928  1.00  0.00     0.199 A  
HETATM    5  F   UNL     1     -12.331  10.198  69.107  1.00  0.00    -0.035 F  
HETATM    6  C   UNL     1     -10.440   8.924  69.763  1.00  0.00    -0.217 A  
HETATM    7  C   UNL     1      -9.886   7.957  70.614  1.00  0.00    -0.187 A  
HETATM    8  C   UNL     1     -12.004   7.740  71.776  1.00  0.00    -0.332 A  
HETATM    9  C   UNL     1     -10.669   7.368  71.611  1.00  0.00    -0.239 A  
BRANCH   6  10
HETATM   10  C   UNL     1      -9.594   9.589  68.749  1.00  0.00    -0.159 C  
HETATM   11  C   UNL     1     -10.721  11.813  69.060  1.00  0.00    -0.209 C  
HETATM   12  C   UNL     1      -9.708  10.892  68.410  1.00  0.00    -0.176 C  
HETATM   13  N   UNL     1      -8.837  11.443  67.461  1.00  0.00    -0.144 N  
HETATM   14  C   UNL     1      -7.673  10.781  67.060  1.00  0.00    -0.121 C  
HETATM   15  C   UNL     1      -8.603   8.750  68.009  1.00  0.00    -0.134 C  
HETATM   16  O   UNL     1      -6.725  11.378  66.543  1.00  0.00    -0.131 OA 
HETATM   17  O   UNL     1      -8.660   7.522  68.072  1.00  0.00    -0.123 OA 
HETATM   18  N   UNL     1      -7.643   9.420  67.282  1.00  0.00    -0.091 N  
BRANCH  13  19
HETATM   19  C   UNL     1      -9.000  12.804  66.935  1.00  0.00    -0.213 C  
BRANCH  19  20
HETATM   20  C   UNL     1     -10.267  13.100  66.141  1.00  0.00    -0.291 A  
HETATM   21  F   UNL     1     -10.470  16.464  67.128  1.00  0.00    -0.286 F  
HETATM   22  C   UNL     1     -10.912  15.232  67.501  1.00  0.00    -0.315 C  
HETATM   23  C   UNL     1     -11.028  14.280  66.326  1.00  0.00    -0.317 A  
HETATM   24  F   UNL     1      -9.978  11.106  64.867  1.00  0.00    -0.250 F  
HETATM   25  C   UNL     1     -12.003  14.629  65.357  1.00  0.00    -0.275 A  
HETATM   26  C   UNL     1     -10.606  12.273  65.052  1.00  0.00    -0.287 A  
HETATM   27  F   UNL     1     -12.124  15.438  68.093  1.00  0.00    -0.321 F  
HETATM   28  F   UNL     1     -10.095  14.832  68.508  1.00  0.00    -0.206 F  
HETATM   29  C   UNL     1     -11.595  12.615  64.129  1.00  0.00    -0.458 A  
HETATM   30  C   UNL     1     -12.274  13.813  64.262  1.00  0.00    -0.444 A  
ENDBRANCH  19  20
ENDBRANCH  13  19
BRANCH  18  31
HETATM   31  C   UNL     1      -6.545   8.646  66.691  1.00  0.00    -0.060 C  
BRANCH  31  32
HETATM   32  C   UNL     1      -5.686   7.825  67.708  1.00  0.00    -0.037 C  
BRANCH  32  33
HETATM   33  N   UNL     1      -6.165   6.433  67.927  1.00  0.00    -0.027 NA 
HETATM   34  H   UNL     1      -7.010   6.261  67.382  1.00  0.00     0.000 HD 
BRANCH  33  35
HETATM   35  C   UNL     1      -5.176   5.392  67.665  1.00  0.00    -0.004 C  
BRANCH  35  36
HETATM   36  C   UNL     1      -5.298   4.256  68.693  1.00  0.00    -0.012 C  
BRANCH  36  37
HETATM   37  C   UNL     1      -6.658   3.557  68.661  1.00  0.00    -0.041 C  
HETATM   38  O   UNL     1      -7.781   2.843  70.670  1.00  0.00    -0.043 OA 
HETATM   39  C   UNL     1      -7.441   3.755  69.932  1.00  0.00    -0.048 C  
HETATM   40  O   UNL     1      -7.788   5.040  70.162  1.00  0.00    -0.065 OA 
ENDBRANCH  36  37
ENDBRANCH  35  36
ENDBRANCH  33  35
ENDBRANCH  32  33
BRANCH  32  41
HETATM   41  C   UNL     1      -5.600   8.500  69.080  1.00  0.00    -0.035 A  
HETATM   42  C   UNL     1      -5.139  10.482  70.419  1.00  0.00    -0.046 A  
HETATM   43  C   UNL     1      -5.668   8.406  71.519  1.00  0.00    -0.037 A  
HETATM   44  C   UNL     1      -5.269   9.861  69.174  1.00  0.00    -0.036 A  
HETATM   45  C   UNL     1      -5.810   7.786  70.275  1.00  0.00    -0.023 A  
HETATM   46  C   UNL     1      -5.334   9.755  71.591  1.00  0.00    -0.074 A  
ENDBRANCH  32  41
ENDBRANCH  31  32
ENDBRANCH  18  31
ENDBRANCH   6  10
ENDBRANCH   2   3
TORSDOF 11
ENDMDL
MODEL      224
REMARK 921   NORMALIZED FREE ENERGY PREDICTED BY IDOCK:   -1.71 KCAL/MOL
REMARK 922        TOTAL FREE ENERGY PREDICTED BY IDOCK:   -5.86 KCAL/MOL
REMARK 923 INTER-LIGAND FREE ENERGY PREDICTED BY IDOCK:   -7.22 KCAL/MOL
REMARK 924 INTRA-LIGAND FREE ENERGY PREDICTED BY IDOCK:    1.36 KCAL/MOL
REMARK 927      BINDING AFFINITY PREDICTED BY RF-SCORE:    0.00 PKD
ROOT
HETATM    1  C   UNL     1     -12.198  13.913  66.789  1.00  0.00    -0.399 C  
HETATM    2  O   UNL     1     -11.490  14.243  67.989  1.00  0.00    -0.281 OA 
ENDROOT
BRANCH   2   3
HETATM    3  C   UNL     1     -11.718  13.398  69.042  1.00  0.00    -0.323 A  
HETATM    4  C   UNL     1     -11.192  12.101  68.946  1.00  0.00    -0.269 A  
HETATM    5  F   UNL     1     -10.506  11.748  67.844  1.00  0.00    -0.186 F  
HETATM    6  C   UNL     1     -11.358  11.175  69.984  1.00  0.00    -0.326 A  
HETATM    7  C   UNL     1     -12.091  11.550  71.119  1.00  0.00    -0.149 A  
HETATM    8  C   UNL     1     -12.464  13.752  70.172  1.00  0.00    -0.332 A  
HETATM    9  C   UNL     1     -12.642  12.832  71.206  1.00  0.00    -0.347 A  
BRANCH   6  10
HETATM   10  C   UNL     1     -10.725   9.841  69.920  1.00  0.00    -0.303 C  
HETATM   11  C   UNL     1     -12.778   8.666  70.765  1.00  0.00     0.217 C  
HETATM   12  C   UNL     1     -11.344   8.694  70.275  1.00  0.00    -0.136 C  
HETATM   13  N   UNL     1     -10.673   7.471  70.147  1.00  0.00    -0.236 N  
HETATM   14  C   UNL     1      -9.496   7.354  69.402  1.00  0.00    -0.155 C  
HETATM   15  C   UNL     1      -9.291   9.770  69.504  1.00  0.00    -0.213 C  
HETATM   16  O   UNL     1      -9.104   6.269  68.963  1.00  0.00    -0.129 OA 
HETATM   17  O   UNL     1      -8.609  10.793  69.452  1.00  0.00    -0.096 OA 
HETATM   18  N   UNL     1      -8.800   8.523  69.181  1.00  0.00    -0.141 N  
BRANCH  13  19
HETATM   19  C   UNL     1     -11.226   6.209  70.653  1.00  0.00    -0.319 C  
BRANCH  19  20
HETATM   20  C   UNL     1     -10.266   5.259  71.361  1.00  0.00    -0.279 A  
HETATM   21  F   UNL     1     -10.780   6.626  74.555  1.00  0.00    -0.266 F  
HETATM   22  C   UNL     1      -9.960   6.757  73.477  1.00  0.00    -0.243 C  
HETATM   23  C   UNL     1      -9.827   5.465  72.692  1.00  0.00    -0.184 A  
HETATM   24  F   UNL     1     -10.257   3.804  69.473  1.00  0.00    -0.114 F  
HETATM   25  C   UNL     1      -9.192   4.400  73.380  1.00  0.00    -0.119 A  
HETATM   26  C   UNL     1      -9.941   4.031  70.753  1.00  0.00    -0.088 A  
HETATM   27  F   UNL     1      -8.755   7.159  73.975  1.00  0.00    -0.155 F  
HETATM   28  F   UNL     1     -10.424   7.826  72.782  1.00  0.00    -0.270 F  
HETATM   29  C   UNL     1      -9.281   3.008  71.435  1.00  0.00    -0.190 A  
HETATM   30  C   UNL     1      -8.934   3.179  72.763  1.00  0.00    -0.107 A  
ENDBRANCH  19  20
ENDBRANCH  13  19
BRANCH  18  31
HETATM   31  C   UNL     1      -7.457   8.431  68.594  1.00  0.00    -0.093 C  
BRANCH  31  32
HETATM   32  C   UNL     1      -7.413   7.969  67.101  1.00  0.00    -0.092 C  
BRANCH  32  33
HETATM   33  N   UNL     1      -8.749   7.866  66.454  1.00  0.00    -0.144 NA 
HETATM   34  H   UNL     1      -9.483   8.110  67.119  1.00  0.00     0.000 HD 
BRANCH  33  35
HETATM   35  C   UNL     1      -8.903   8.645  65.229  1.00  0.00    -0.135 C  
BRANCH  35  36
HETATM   36  C   UNL     1      -7.579   9.325  64.847  1.00  0.00    -0.108 C  
BRANCH  36  37
HETATM   37  C   UNL     1      -7.197   9.119  63.380  1.00  0.00    -0.095 C  
HETATM   38  O   UNL     1      -5.806   7.288  62.660  1.00  0.00    -0.047 OA 
HETATM   39  C   UNL     1      -6.893   7.680  63.055  1.00  0.00    -0.071 C  
HETATM   40  O   UNL     1      -7.955   6.857  63.189  1.00  0.00    -0.115 OA 
ENDBRANCH  36  37
ENDBRANCH  35  36
ENDBRANCH  33  35
ENDBRANCH  32  33
BRANCH  32  41
HETATM   41  C   UNL     1      -6.717   6.615  66.928  1.00  0.00    -0.056 A  
HETATM   42  C   UNL     1      -5.172   4.928  67.763  1.00  0.00    -0.011 A  
HETATM   43  C   UNL     1      -6.195   4.632  65.604  1.00  0.00    -0.031 A  
HETATM   44  C   UNL     1      -5.853   6.138  67.925  1.00  0.00    -0.012 A  
HETATM   45  C   UNL     1      -6.886   5.835  65.768  1.00  0.00    -0.060 A  
HETATM   46  C   UNL     1      -5.339   4.177  66.602  1.00  0.00    -0.013 A  
ENDBRANCH  32  41
ENDBRANCH  31  32
ENDBRANCH  18  31
ENDBRANCH   6  10
ENDBRANCH   2   3
TORSDOF 11
ENDMDL
MODEL      225
REMARK 921   NORMALIZED FREE ENERGY PREDICTED BY IDOCK:   -1.71 KCAL/MOL
REMARK 922        TOTAL FREE ENERGY PREDICTED BY IDOCK:   -5.86 KCAL/MOL
REMARK 923 INTER-LIGAND FREE ENERGY PREDICTED BY IDOCK:   -5.58 KCAL/MOL
REMARK 924 INTRA-LIGAND FREE ENERGY PREDICTED BY IDOCK:   -0.28 KCAL/MOL
REMARK 927      BINDING AFFINITY PREDICTED BY RF-SCORE:    0.00 PKD
ROOT
HETATM    1  C   UNL     1      -9.478   3.586  62.513  1.00  0.00    -0.096 C  
HETATM    2  O   UNL     1      -9.249   2.612  63.536  1.00  0.00    -0.095 OA 
ENDROOT
BRANCH   2   3
HETATM    3  C   UNL     1      -8.075   2.765  64.223  1.00  0.00    -0.082 A  
HETATM    4  C   UNL     1      -8.035   3.767  65.203  1.00  0.00    -0.093 A  
HETATM    5  F   UNL     1      -9.126   4.524  65.418  1.00  0.00    -0.125 F  
HETATM    6  C   UNL     1      -6.883   3.983  65.971  1.00  0.00    -0.057 A  
HETATM    7  C   UNL     1      -5.746   3.199  65.725  1.00  0.00    -0.018 A  
HETATM    8  C   UNL     1      -6.927   2.004  63.976  1.00  0.00    -0.036 A  
HETATM    9  C   UNL     1      -5.772   2.219  64.729  1.00  0.00    -0.013 A  
BRANCH   6  10
HETATM   10  C   UNL     1      -6.874   4.977  67.065  1.00  0.00    -0.060 C  
HETATM   11  C   UNL     1      -7.743   3.336  68.757  1.00  0.00    -0.051 C  
HETATM   12  C   UNL     1      -7.265   4.709  68.330  1.00  0.00    -0.064 C  
HETATM   13  N   UNL     1      -7.188   5.708  69.309  1.00  0.00    -0.064 N  
HETATM   14  C   UNL     1      -6.459   6.883  69.104  1.00  0.00    -0.043 C  
HETATM   15  C   UNL     1      -6.474   6.377  66.730  1.00  0.00    -0.046 C  
HETATM   16  O   UNL     1      -6.063   7.581  70.042  1.00  0.00    -0.027 OA 
HETATM   17  O   UNL     1      -6.390   6.735  65.555  1.00  0.00    -0.040 OA 
HETATM   18  N   UNL     1      -6.201   7.215  67.790  1.00  0.00    -0.041 N  
BRANCH  13  19
HETATM   19  C   UNL     1      -7.735   5.535  70.660  1.00  0.00    -0.090 C  
BRANCH  19  20
HETATM   20  C   UNL     1      -8.685   6.611  71.173  1.00  0.00    -0.137 A  
HETATM   21  F   UNL     1     -11.479   5.422  69.407  1.00  0.00    -0.052 F  
HETATM   22  C   UNL     1     -10.449   6.302  69.274  1.00  0.00    -0.244 C  
HETATM   23  C   UNL     1      -9.967   6.833  70.610  1.00  0.00    -0.201 A  
HETATM   24  F   UNL     1      -7.154   7.188  72.906  1.00  0.00    -0.071 F  
HETATM   25  C   UNL     1     -10.902   7.627  71.321  1.00  0.00    -0.252 A  
HETATM   26  C   UNL     1      -8.374   7.293  72.365  1.00  0.00    -0.108 A  
HETATM   27  F   UNL     1     -10.923   7.308  68.483  1.00  0.00    -0.207 F  
HETATM   28  F   UNL     1      -9.517   5.672  68.516  1.00  0.00    -0.117 F  
HETATM   29  C   UNL     1      -9.296   8.101  73.031  1.00  0.00    -0.335 A  
HETATM   30  C   UNL     1     -10.576   8.243  72.526  1.00  0.00    -0.407 A  
ENDBRANCH  19  20
ENDBRANCH  13  19
BRANCH  18  31
HETATM   31  C   UNL     1      -5.630   8.537  67.509  1.00  0.00    -0.039 C  
BRANCH  31  32
HETATM   32  C   UNL     1      -6.641   9.728  67.573  1.00  0.00    -0.069 C  
BRANCH  32  33
HETATM   33  N   UNL     1      -7.415   9.802  68.842  1.00  0.00    -0.073 NA 
HETATM   34  H   UNL     1      -7.264  10.703  69.295  1.00  0.00     0.000 HD 
BRANCH  33  35
HETATM   35  C   UNL     1      -8.845   9.540  68.708  1.00  0.00    -0.132 C  
BRANCH  35  36
HETATM   36  C   UNL     1      -9.667  10.743  69.197  1.00  0.00    -0.181 C  
BRANCH  36  37
HETATM   37  C   UNL     1     -11.177  10.506  69.135  1.00  0.00    -0.314 C  
HETATM   38  O   UNL     1     -12.595  10.758  71.067  1.00  0.00    -0.352 OA 
HETATM   39  C   UNL     1     -11.929  11.280  70.186  1.00  0.00    -0.369 C  
HETATM   40  O   UNL     1     -11.846  12.620  70.039  1.00  0.00    -0.329 OA 
ENDBRANCH  36  37
ENDBRANCH  35  36
ENDBRANCH  33  35
ENDBRANCH  32  33
BRANCH  32  41
HETATM   41  C   UNL     1      -7.652   9.699  66.422  1.00  0.00    -0.101 A  
HETATM   42  C   UNL     1      -8.448  10.602  64.305  1.00  0.00    -0.067 A  
HETATM   43  C   UNL     1      -9.703   8.861  65.397  1.00  0.00     0.127 A  
HETATM   44  C   UNL     1      -7.509  10.581  65.340  1.00  0.00    -0.089 A  
HETATM   45  C   UNL     1      -8.759   8.830  66.428  1.00  0.00    -0.158 A  
HETATM   46  C   UNL     1      -9.547   9.746  64.335  1.00  0.00    -0.160 A  
ENDBRANCH  32  41
ENDBRANCH  31  32
ENDBRANCH  18  31
ENDBRANCH   6  10
ENDBRANCH   2   3
TORSDOF 11
ENDMDL
MODEL      226
REMARK 921   NORMALIZED FREE ENERGY PREDICTED BY IDOCK:   -1.61 KCAL/MOL
REMARK 922        TOTAL FREE ENERGY PREDICTED BY IDOCK:   -5.71 KCAL/MOL
REMARK 923 INTER-LIGAND FREE ENERGY PREDICTED BY IDOCK:   -7.04 KCAL/MOL
REMARK 924 INTRA-LIGAND FREE ENERGY PREDICTED BY IDOCK:    1.34 KCAL/MOL
REMARK 927      BINDING AFFINITY PREDICTED BY RF-SCORE:    0.00 PKD
ROOT
HETATM    1  C   UNL     1     -12.787  11.986  63.830  1.00  0.00    -0.284 C  
HETATM    2  O   UNL     1     -11.894  11.579  62.788  1.00  0.00     0.266 OA 
ENDROOT
BRANCH   2   3
HETATM    3  C   UNL     1     -10.683  11.107  63.220  1.00  0.00    -0.121 A  
HETATM    4  C   UNL     1     -10.407  11.219  64.590  1.00  0.00    -0.315 A  
HETATM    5  F   UNL     1     -11.319  11.780  65.404  1.00  0.00    -0.359 F  
HETATM    6  C   UNL     1      -9.202  10.745  65.126  1.00  0.00    -0.239 A  
HETATM    7  C   UNL     1      -8.251  10.179  64.264  1.00  0.00    -0.165 A  
HETATM    8  C   UNL     1      -9.718  10.557  62.369  1.00  0.00    -0.085 A  
HETATM    9  C   UNL     1      -8.511  10.091  62.893  1.00  0.00    -0.176 A  
BRANCH   6  10
HETATM   10  C   UNL     1      -8.951  10.782  66.582  1.00  0.00    -0.164 C  
HETATM   11  C   UNL     1      -9.451   8.337  66.875  1.00  0.00    -0.240 C  
HETATM   12  C   UNL     1      -9.065   9.707  67.394  1.00  0.00    -0.130 C  
HETATM   13  N   UNL     1      -8.772   9.832  68.758  1.00  0.00    -0.124 N  
HETATM   14  C   UNL     1      -8.095  10.944  69.266  1.00  0.00    -0.055 C  
HETATM   15  C   UNL     1      -8.622  12.102  67.199  1.00  0.00    -0.185 C  
HETATM   16  O   UNL     1      -7.503  10.912  70.348  1.00  0.00     0.168 OA 
HETATM   17  O   UNL     1      -8.789  13.143  66.564  1.00  0.00    -0.124 OA 
HETATM   18  N   UNL     1      -8.122  12.079  68.484  1.00  0.00    -0.146 N  
BRANCH  13  19
HETATM   19  C   UNL     1      -9.019   8.751  69.720  1.00  0.00    -0.146 C  
BRANCH  19  20
HETATM   20  C   UNL     1      -8.564   7.350  69.331  1.00  0.00    -0.134 A  
HETATM   21  F   UNL     1     -11.740   6.273  68.288  1.00  0.00    -0.264 F  
HETATM   22  C   UNL     1     -10.950   6.293  69.396  1.00  0.00    -0.375 C  
HETATM   23  C   UNL     1      -9.473   6.299  69.051  1.00  0.00    -0.133 A  
HETATM   24  F   UNL     1      -6.283   8.042  69.364  1.00  0.00    -0.032 F  
HETATM   25  C   UNL     1      -8.995   5.129  68.407  1.00  0.00    -0.118 A  
HETATM   26  C   UNL     1      -7.202   7.121  69.051  1.00  0.00    -0.086 A  
HETATM   27  F   UNL     1     -11.287   5.181  70.111  1.00  0.00    -0.025 F  
HETATM   28  F   UNL     1     -11.386   7.335  70.146  1.00  0.00    -0.280 F  
HETATM   29  C   UNL     1      -6.746   5.947  68.451  1.00  0.00    -0.060 A  
HETATM   30  C   UNL     1      -7.649   4.960  68.097  1.00  0.00    -0.082 A  
ENDBRANCH  19  20
ENDBRANCH  13  19
BRANCH  18  31
HETATM   31  C   UNL     1      -7.615  13.330  69.060  1.00  0.00     0.119 C  
BRANCH  31  32
HETATM   32  C   UNL     1      -8.253  14.636  68.485  1.00  0.00    -0.152 C  
BRANCH  32  33
HETATM   33  N   UNL     1      -7.367  15.830  68.555  1.00  0.00    -0.120 NA 
HETATM   34  H   UNL     1      -7.925  16.683  68.573  1.00  0.00     0.000 HD 
BRANCH  33  35
HETATM   35  C   UNL     1      -6.416  15.828  69.663  1.00  0.00    -0.181 C  
BRANCH  35  36
HETATM   36  C   UNL     1      -5.949  17.256  69.982  1.00  0.00    -0.186 C  
BRANCH  36  37
HETATM   37  C   UNL     1      -6.075  18.211  68.794  1.00  0.00    -0.202 C  
HETATM   38  O   UNL     1      -7.772  19.919  68.694  1.00  0.00    -0.295 OA 
HETATM   39  C   UNL     1      -6.719  19.521  69.167  1.00  0.00    -0.338 C  
HETATM   40  O   UNL     1      -5.996  20.252  70.043  1.00  0.00    -0.323 OA 
ENDBRANCH  36  37
ENDBRANCH  35  36
ENDBRANCH  33  35
ENDBRANCH  32  33
BRANCH  32  41
HETATM   41  C   UNL     1      -9.567  15.001  69.182  1.00  0.00    -0.202 A  
HETATM   42  C   UNL     1     -10.966  16.659  70.289  1.00  0.00    -0.066 A  
HETATM   43  C   UNL     1     -11.725  14.379  70.139  1.00  0.00    -0.361 A  
HETATM   44  C   UNL     1      -9.794  16.318  69.608  1.00  0.00    -0.086 A  
HETATM   45  C   UNL     1     -10.559  14.038  69.447  1.00  0.00    -0.021 A  
HETATM   46  C   UNL     1     -11.930  15.690  70.558  1.00  0.00    -0.417 A  
ENDBRANCH  32  41
ENDBRANCH  31  32
ENDBRANCH  18  31
ENDBRANCH   6  10
ENDBRANCH   2   3
TORSDOF 11
ENDMDL
MODEL      227
REMARK 921   NORMALIZED FREE ENERGY PREDICTED BY IDOCK:   -1.61 KCAL/MOL
REMARK 922        TOTAL FREE ENERGY PREDICTED BY IDOCK:   -5.70 KCAL/MOL
REMARK 923 INTER-LIGAND FREE ENERGY PREDICTED BY IDOCK:   -5.00 KCAL/MOL
REMARK 924 INTRA-LIGAND FREE ENERGY PREDICTED BY IDOCK:   -0.71 KCAL/MOL
REMARK 927      BINDING AFFINITY PREDICTED BY RF-SCORE:    0.00 PKD
ROOT
HETATM    1  C   UNL     1      -6.632   1.509  73.933  1.00  0.00    -0.017 C  
HETATM    2  O   UNL     1      -6.689   2.918  74.179  1.00  0.00    -0.028 OA 
ENDROOT
BRANCH   2   3
HETATM    3  C   UNL     1      -7.828   3.534  73.733  1.00  0.00    -0.067 A  
HETATM    4  C   UNL     1      -7.681   4.493  72.721  1.00  0.00    -0.087 A  
HETATM    5  F   UNL     1      -6.453   4.767  72.244  1.00  0.00    -0.031 F  
HETATM    6  C   UNL     1      -8.793   5.159  72.189  1.00  0.00    -0.136 A  
HETATM    7  C   UNL     1     -10.066   4.878  72.706  1.00  0.00    -0.215 A  
HETATM    8  C   UNL     1      -9.102   3.277  74.253  1.00  0.00    -0.098 A  
HETATM    9  C   UNL     1     -10.213   3.944  73.736  1.00  0.00    -0.214 A  
BRANCH   6  10
HETATM   10  C   UNL     1      -8.646   6.101  71.059  1.00  0.00    -0.132 C  
HETATM   11  C   UNL     1      -8.953   8.124  72.517  1.00  0.00    -0.286 C  
HETATM   12  C   UNL     1      -8.721   7.445  71.183  1.00  0.00    -0.137 C  
HETATM   13  N   UNL     1      -8.534   8.258  70.058  1.00  0.00    -0.121 N  
HETATM   14  C   UNL     1      -7.990   7.758  68.872  1.00  0.00    -0.124 C  
HETATM   15  C   UNL     1      -8.473   5.526  69.691  1.00  0.00    -0.101 C  
HETATM   16  O   UNL     1      -7.472   8.495  68.027  1.00  0.00    -0.094 OA 
HETATM   17  O   UNL     1      -8.685   4.330  69.489  1.00  0.00    -0.078 OA 
HETATM   18  N   UNL     1      -8.061   6.392  68.701  1.00  0.00    -0.112 N  
BRANCH  13  19
HETATM   19  C   UNL     1      -8.752   9.710  70.088  1.00  0.00    -0.231 C  
BRANCH  19  20
HETATM   20  C   UNL     1      -7.534  10.604  69.890  1.00  0.00    -0.024 A  
HETATM   21  F   UNL     1      -9.337  13.276  68.496  1.00  0.00    -0.200 F  
HETATM   22  C   UNL     1      -8.660  12.157  68.120  1.00  0.00    -0.177 C  
HETATM   23  C   UNL     1      -7.569  11.784  69.106  1.00  0.00     0.080 A  
HETATM   24  F   UNL     1      -6.244   9.236  71.355  1.00  0.00    -0.065 F  
HETATM   25  C   UNL     1      -6.504  12.714  69.213  1.00  0.00    -0.106 A  
HETATM   26  C   UNL     1      -6.374  10.369  70.654  1.00  0.00    -0.063 A  
HETATM   27  F   UNL     1      -8.140  12.436  66.889  1.00  0.00    -0.170 F  
HETATM   28  F   UNL     1      -9.603  11.208  67.893  1.00  0.00    -0.162 F  
HETATM   29  C   UNL     1      -5.319  11.279  70.719  1.00  0.00    -0.127 A  
HETATM   30  C   UNL     1      -5.398  12.472  70.022  1.00  0.00    -0.103 A  
ENDBRANCH  19  20
ENDBRANCH  13  19
BRANCH  18  31
HETATM   31  C   UNL     1      -7.703   5.838  67.390  1.00  0.00    -0.097 C  
BRANCH  31  32
HETATM   32  C   UNL     1      -7.938   6.793  66.175  1.00  0.00    -0.110 C  
BRANCH  32  33
HETATM   33  N   UNL     1      -9.360   6.895  65.746  1.00  0.00    -0.383 NA 
HETATM   34  H   UNL     1      -9.785   5.969  65.713  1.00  0.00     0.000 HD 
BRANCH  33  35
HETATM   35  C   UNL     1     -10.182   7.798  66.546  1.00  0.00    -0.125 C  
BRANCH  35  36
HETATM   36  C   UNL     1     -10.030   9.247  66.058  1.00  0.00    -0.325 C  
BRANCH  36  37
HETATM   37  C   UNL     1      -9.614   9.349  64.590  1.00  0.00     0.104 C  
HETATM   38  O   UNL     1      -9.044  11.451  63.559  1.00  0.00    -0.125 OA 
HETATM   39  C   UNL     1      -8.738  10.543  64.316  1.00  0.00    -0.176 C  
HETATM   40  O   UNL     1      -7.544  10.496  64.946  1.00  0.00    -0.112 OA 
ENDBRANCH  36  37
ENDBRANCH  35  36
ENDBRANCH  33  35
ENDBRANCH  32  33
BRANCH  32  41
HETATM   41  C   UNL     1      -7.118   6.389  64.946  1.00  0.00    -0.060 A  
HETATM   42  C   UNL     1      -6.511   4.713  63.286  1.00  0.00    -0.026 A  
HETATM   43  C   UNL     1      -5.378   6.838  63.293  1.00  0.00    -0.031 A  
HETATM   44  C   UNL     1      -7.285   5.117  64.377  1.00  0.00    -0.055 A  
HETATM   45  C   UNL     1      -6.159   7.248  64.377  1.00  0.00    -0.037 A  
HETATM   46  C   UNL     1      -5.555   5.571  62.746  1.00  0.00    -0.014 A  
ENDBRANCH  32  41
ENDBRANCH  31  32
ENDBRANCH  18  31
ENDBRANCH   6  10
ENDBRANCH   2   3
TORSDOF 11
ENDMDL
MODEL      228
REMARK 921   NORMALIZED FREE ENERGY PREDICTED BY IDOCK:   -1.60 KCAL/MOL
REMARK 922        TOTAL FREE ENERGY PREDICTED BY IDOCK:   -5.69 KCAL/MOL
REMARK 923 INTER-LIGAND FREE ENERGY PREDICTED BY IDOCK:   -8.51 KCAL/MOL
REMARK 924 INTRA-LIGAND FREE ENERGY PREDICTED BY IDOCK:    2.82 KCAL/MOL
REMARK 927      BINDING AFFINITY PREDICTED BY RF-SCORE:    0.00 PKD
ROOT
HETATM    1  C   UNL     1      -8.867  15.467  69.704  1.00  0.00    -0.140 C  
HETATM    2  O   UNL     1      -7.464  15.415  69.426  1.00  0.00    -0.188 OA 
ENDROOT
BRANCH   2   3
HETATM    3  C   UNL     1      -6.854  14.237  69.765  1.00  0.00    -0.053 A  
HETATM    4  C   UNL     1      -7.451  13.054  69.307  1.00  0.00     0.308 A  
HETATM    5  F   UNL     1      -8.577  13.124  68.575  1.00  0.00    -0.168 F  
HETATM    6  C   UNL     1      -6.886  11.803  69.588  1.00  0.00     0.026 A  
HETATM    7  C   UNL     1      -5.722  11.742  70.367  1.00  0.00    -0.161 A  
HETATM    8  C   UNL     1      -5.703  14.160  70.558  1.00  0.00    -0.159 A  
HETATM    9  C   UNL     1      -5.140  12.918  70.850  1.00  0.00    -0.143 A  
BRANCH   6  10
HETATM   10  C   UNL     1      -7.466  10.564  69.027  1.00  0.00    -0.112 C  
HETATM   11  C   UNL     1      -7.568   9.427  71.265  1.00  0.00     0.128 C  
HETATM   12  C   UNL     1      -7.775   9.475  69.765  1.00  0.00    -0.123 C  
HETATM   13  N   UNL     1      -8.354   8.358  69.148  1.00  0.00    -0.120 N  
HETATM   14  C   UNL     1      -8.888   8.426  67.858  1.00  0.00    -0.138 C  
HETATM   15  C   UNL     1      -7.654  10.491  67.547  1.00  0.00    -0.093 C  
HETATM   16  O   UNL     1      -9.716   7.607  67.449  1.00  0.00    -0.145 OA 
HETATM   17  O   UNL     1      -7.127  11.328  66.812  1.00  0.00    -0.133 OA 
HETATM   18  N   UNL     1      -8.440   9.465  67.070  1.00  0.00    -0.127 N  
BRANCH  13  19
HETATM   19  C   UNL     1      -8.574   7.091  69.855  1.00  0.00    -0.141 C  
BRANCH  19  20
HETATM   20  C   UNL     1      -8.947   7.169  71.331  1.00  0.00    -0.135 A  
HETATM   21  F   UNL     1     -12.394   6.757  70.801  1.00  0.00    -0.418 F  
HETATM   22  C   UNL     1     -11.460   7.740  70.916  1.00  0.00    -0.279 C  
HETATM   23  C   UNL     1     -10.284   7.320  71.777  1.00  0.00    -0.211 A  
HETATM   24  F   UNL     1      -6.675   6.821  71.961  1.00  0.00    -0.055 F  
HETATM   25  C   UNL     1     -10.585   7.080  73.141  1.00  0.00    -0.350 A  
HETATM   26  C   UNL     1      -7.966   6.897  72.304  1.00  0.00    -0.093 A  
HETATM   27  F   UNL     1     -12.113   8.808  71.458  1.00  0.00    -0.310 F  
HETATM   28  F   UNL     1     -11.160   8.120  69.649  1.00  0.00    -0.234 F  
HETATM   29  C   UNL     1      -8.277   6.701  73.650  1.00  0.00    -0.122 A  
HETATM   30  C   UNL     1      -9.595   6.759  74.066  1.00  0.00    -0.278 A  
ENDBRANCH  19  20
ENDBRANCH  13  19
BRANCH  18  31
HETATM   31  C   UNL     1      -8.801   9.461  65.647  1.00  0.00    -0.174 C  
BRANCH  31  32
HETATM   32  C   UNL     1      -9.816  10.569  65.214  1.00  0.00    -0.284 C  
BRANCH  32  33
HETATM   33  N   UNL     1      -9.213  11.669  64.413  1.00  0.00    -0.421 NA 
HETATM   34  H   UNL     1      -8.422  11.319  63.873  1.00  0.00     0.000 HD 
BRANCH  33  35
HETATM   35  C   UNL     1     -10.143  12.379  63.541  1.00  0.00    -0.218 C  
BRANCH  35  36
HETATM   36  C   UNL     1     -11.199  11.417  62.974  1.00  0.00     0.150 C  
BRANCH  36  37
HETATM   37  C   UNL     1     -12.628  11.789  63.371  1.00  0.00    -0.458 C  
HETATM   38  O   UNL     1     -13.113  13.132  65.312  1.00  0.00    -0.678 OA 
HETATM   39  C   UNL     1     -12.697  13.066  64.166  1.00  0.00    -0.122 C  
HETATM   40  O   UNL     1     -12.302  14.158  63.475  1.00  0.00    -0.738 OA 
ENDBRANCH  36  37
ENDBRANCH  35  36
ENDBRANCH  33  35
ENDBRANCH  32  33
BRANCH  32  41
HETATM   41  C   UNL     1     -10.526  11.211  66.410  1.00  0.00    -0.311 A  
HETATM   42  C   UNL     1     -10.894  13.148  67.840  1.00  0.00    -0.260 A  
HETATM   43  C   UNL     1     -11.983  11.065  68.364  1.00  0.00    -0.158 A  
HETATM   44  C   UNL     1     -10.293  12.559  66.724  1.00  0.00    -0.241 A  
HETATM   45  C   UNL     1     -11.392  10.476  67.242  1.00  0.00    -0.058 A  
HETATM   46  C   UNL     1     -11.736  12.401  68.662  1.00  0.00    -0.372 A  
ENDBRANCH  32  41
ENDBRANCH  31  32
ENDBRANCH  18  31
ENDBRANCH   6  10
ENDBRANCH   2   3
TORSDOF 11
ENDMDL
MODEL      229
REMARK 921   NORMALIZED FREE ENERGY PREDICTED BY IDOCK:   -1.60 KCAL/MOL
REMARK 922        TOTAL FREE ENERGY PREDICTED BY IDOCK:   -5.68 KCAL/MOL
REMARK 923 INTER-LIGAND FREE ENERGY PREDICTED BY IDOCK:   -7.65 KCAL/MOL
REMARK 924 INTRA-LIGAND FREE ENERGY PREDICTED BY IDOCK:    1.97 KCAL/MOL
REMARK 927      BINDING AFFINITY PREDICTED BY RF-SCORE:    0.00 PKD
ROOT
HETATM    1  C   UNL     1      -5.634  17.979  65.399  1.00  0.00    -0.107 C  
HETATM    2  O   UNL     1      -6.420  19.022  65.983  1.00  0.00    -0.189 OA 
ENDROOT
BRANCH   2   3
HETATM    3  C   UNL     1      -7.748  18.724  66.137  1.00  0.00    -0.247 A  
HETATM    4  C   UNL     1      -8.067  17.417  66.531  1.00  0.00    -0.277 A  
HETATM    5  F   UNL     1      -7.078  16.528  66.731  1.00  0.00    -0.198 F  
HETATM    6  C   UNL     1      -9.398  17.028  66.733  1.00  0.00    -0.268 A  
HETATM    7  C   UNL     1     -10.421  17.959  66.504  1.00  0.00    -0.315 A  
HETATM    8  C   UNL     1      -8.780  19.638  65.893  1.00  0.00    -0.135 A  
HETATM    9  C   UNL     1     -10.109  19.254  66.082  1.00  0.00    -0.517 A  
BRANCH   6  10
HETATM   10  C   UNL     1      -9.726  15.678  67.238  1.00  0.00    -0.219 C  
HETATM   11  C   UNL     1     -10.116  16.491  69.582  1.00  0.00    -0.100 C  
HETATM   12  C   UNL     1     -10.046  15.410  68.523  1.00  0.00    -0.213 C  
HETATM   13  N   UNL     1     -10.377  14.102  68.900  1.00  0.00    -0.227 N  
HETATM   14  C   UNL     1     -10.667  13.115  67.953  1.00  0.00    -0.235 C  
HETATM   15  C   UNL     1      -9.628  14.534  66.281  1.00  0.00    -0.304 C  
HETATM   16  O   UNL     1     -11.311  12.102  68.240  1.00  0.00    -0.244 OA 
HETATM   17  O   UNL     1      -9.068  14.680  65.194  1.00  0.00     0.780 OA 
HETATM   18  N   UNL     1     -10.197  13.343  66.677  1.00  0.00    -0.269 N  
BRANCH  13  19
HETATM   19  C   UNL     1     -10.585  13.712  70.300  1.00  0.00     1.361 C  
BRANCH  19  20
HETATM   20  C   UNL     1     -11.993  13.860  70.864  1.00  0.00    -0.310 A  
HETATM   21  F   UNL     1     -12.100  10.643  72.270  1.00  0.00     0.037 F  
HETATM   22  C   UNL     1     -12.421  11.297  71.121  1.00  0.00    -0.373 C  
HETATM   23  C   UNL     1     -12.739  12.761  71.360  1.00  0.00    -0.353 A  
HETATM   24  F   UNL     1     -11.902  16.224  70.573  1.00  0.00    -0.357 F  
HETATM   25  C   UNL     1     -13.897  13.011  72.138  1.00  0.00    -0.450 A  
HETATM   26  C   UNL     1     -12.516  15.149  71.083  1.00  0.00    -0.352 A  
HETATM   27  F   UNL     1     -13.497  10.635  70.606  1.00  0.00    -0.317 F  
HETATM   28  F   UNL     1     -11.409  11.046  70.253  1.00  0.00    -0.333 F  
HETATM   29  C   UNL     1     -13.679  15.374  71.820  1.00  0.00    -0.610 A  
HETATM   30  C   UNL     1     -14.355  14.303  72.379  1.00  0.00    -0.392 A  
ENDBRANCH  19  20
ENDBRANCH  13  19
BRANCH  18  31
HETATM   31  C   UNL     1     -10.286  12.250  65.701  1.00  0.00    -0.261 C  
BRANCH  31  32
HETATM   32  C   UNL     1      -9.124  11.205  65.762  1.00  0.00    -0.206 C  
BRANCH  32  33
HETATM   33  N   UNL     1      -9.559   9.797  65.550  1.00  0.00    -0.264 NA 
HETATM   34  H   UNL     1     -10.569   9.756  65.417  1.00  0.00     0.000 HD 
BRANCH  33  35
HETATM   35  C   UNL     1      -8.880   9.100  64.461  1.00  0.00    -0.125 C  
BRANCH  35  36
HETATM   36  C   UNL     1      -8.345   7.741  64.936  1.00  0.00    -0.071 C  
BRANCH  36  37
HETATM   37  C   UNL     1      -9.057   7.215  66.183  1.00  0.00    -0.155 C  
HETATM   38  O   UNL     1      -8.875   4.919  66.893  1.00  0.00    -0.108 OA 
HETATM   39  C   UNL     1      -8.363   6.023  66.788  1.00  0.00    -0.106 C  
HETATM   40  O   UNL     1      -7.127   6.295  67.261  1.00  0.00    -0.070 OA 
ENDBRANCH  36  37
ENDBRANCH  35  36
ENDBRANCH  33  35
ENDBRANCH  32  33
BRANCH  32  41
HETATM   41  C   UNL     1      -8.364  11.253  67.092  1.00  0.00    -0.151 A  
HETATM   42  C   UNL     1      -8.196  10.618  69.437  1.00  0.00    -0.089 A  
HETATM   43  C   UNL     1      -6.552  12.101  68.490  1.00  0.00    -0.063 A  
HETATM   44  C   UNL     1      -8.849  10.547  68.203  1.00  0.00    -0.134 A  
HETATM   45  C   UNL     1      -7.197  12.022  67.253  1.00  0.00    -0.150 A  
HETATM   46  C   UNL     1      -7.051  11.397  69.582  1.00  0.00     0.033 A  
ENDBRANCH  32  41
ENDBRANCH  31  32
ENDBRANCH  18  31
ENDBRANCH   6  10
ENDBRANCH   2   3
TORSDOF 11
ENDMDL
MODEL      230
REMARK 921   NORMALIZED FREE ENERGY PREDICTED BY IDOCK:   -1.54 KCAL/MOL
REMARK 922        TOTAL FREE ENERGY PREDICTED BY IDOCK:   -5.58 KCAL/MOL
REMARK 923 INTER-LIGAND FREE ENERGY PREDICTED BY IDOCK:   -4.60 KCAL/MOL
REMARK 924 INTRA-LIGAND FREE ENERGY PREDICTED BY IDOCK:   -0.98 KCAL/MOL
REMARK 927      BINDING AFFINITY PREDICTED BY RF-SCORE:    0.00 PKD
ROOT
HETATM    1  C   UNL     1     -10.863  11.883  63.130  1.00  0.00    -0.223 C  
HETATM    2  O   UNL     1     -10.325  10.562  63.009  1.00  0.00    -0.036 OA 
ENDROOT
BRANCH   2   3
HETATM    3  C   UNL     1      -9.020  10.434  63.403  1.00  0.00    -0.229 A  
HETATM    4  C   UNL     1      -8.739  10.643  64.761  1.00  0.00    -0.160 A  
HETATM    5  F   UNL     1      -9.741  10.961  65.600  1.00  0.00    -0.220 F  
HETATM    6  C   UNL     1      -7.436  10.514  65.258  1.00  0.00    -0.065 A  
HETATM    7  C   UNL     1      -6.397  10.200  64.370  1.00  0.00    -0.127 A  
HETATM    8  C   UNL     1      -7.971  10.140  62.524  1.00  0.00    -0.154 A  
HETATM    9  C   UNL     1      -6.668  10.019  63.010  1.00  0.00    -0.129 A  
BRANCH   6  10
HETATM   10  C   UNL     1      -7.158  10.644  66.704  1.00  0.00    -0.124 C  
HETATM   11  C   UNL     1      -7.454  13.139  66.683  1.00  0.00     0.887 C  
HETATM   12  C   UNL     1      -7.154  11.821  67.368  1.00  0.00    -0.126 C  
HETATM   13  N   UNL     1      -6.913  11.841  68.748  1.00  0.00    -0.097 N  
HETATM   14  C   UNL     1      -6.961  10.676  69.519  1.00  0.00    -0.121 C  
HETATM   15  C   UNL     1      -6.793   9.407  67.458  1.00  0.00    -0.076 C  
HETATM   16  O   UNL     1      -7.131  10.706  70.741  1.00  0.00    -0.085 OA 
HETATM   17  O   UNL     1      -6.503   8.374  66.852  1.00  0.00    -0.055 OA 
HETATM   18  N   UNL     1      -6.811   9.489  68.833  1.00  0.00    -0.054 N  
BRANCH  13  19
HETATM   19  C   UNL     1      -6.744  13.089  69.502  1.00  0.00     0.029 C  
BRANCH  19  20
HETATM   20  C   UNL     1      -7.776  14.188  69.278  1.00  0.00     0.100 A  
HETATM   21  F   UNL     1      -5.426  16.640  68.386  1.00  0.00    -0.112 F  
HETATM   22  C   UNL     1      -6.078  16.160  69.479  1.00  0.00    -0.170 C  
HETATM   23  C   UNL     1      -7.422  15.552  69.129  1.00  0.00    -0.191 A  
HETATM   24  F   UNL     1      -9.532  12.577  69.218  1.00  0.00     0.212 F  
HETATM   25  C   UNL     1      -8.387  16.461  68.625  1.00  0.00    -0.221 A  
HETATM   26  C   UNL     1      -9.115  13.833  69.020  1.00  0.00     0.276 A  
HETATM   27  F   UNL     1      -6.220  17.223  70.322  1.00  0.00    -0.216 F  
HETATM   28  F   UNL     1      -5.200  15.335  70.104  1.00  0.00    -0.104 F  
HETATM   29  C   UNL     1     -10.060  14.750  68.561  1.00  0.00    -0.230 A  
HETATM   30  C   UNL     1      -9.687  16.063  68.330  1.00  0.00    -0.214 A  
ENDBRANCH  19  20
ENDBRANCH  13  19
BRANCH  18  31
HETATM   31  C   UNL     1      -6.639   8.256  69.611  1.00  0.00    -0.037 C  
BRANCH  31  32
HETATM   32  C   UNL     1      -7.928   7.387  69.777  1.00  0.00    -0.125 C  
BRANCH  32  33
HETATM   33  N   UNL     1      -8.219   6.500  68.618  1.00  0.00    -0.118 NA 
HETATM   34  H   UNL     1      -8.111   7.014  67.745  1.00  0.00     0.000 HD 
BRANCH  33  35
HETATM   35  C   UNL     1      -7.439   5.266  68.575  1.00  0.00    -0.072 C  
BRANCH  35  36
HETATM   36  C   UNL     1      -8.291   4.102  68.048  1.00  0.00    -0.098 C  
BRANCH  36  37
HETATM   37  C   UNL     1      -8.245   3.962  66.526  1.00  0.00    -0.100 C  
HETATM   38  O   UNL     1     -10.221   4.141  65.159  1.00  0.00    -0.224 OA 
HETATM   39  C   UNL     1      -9.371   4.691  65.841  1.00  0.00    -0.155 C  
HETATM   40  O   UNL     1      -9.328   6.031  66.003  1.00  0.00    -0.151 OA 
ENDBRANCH  36  37
ENDBRANCH  35  36
ENDBRANCH  33  35
ENDBRANCH  32  33
BRANCH  32  41
HETATM   41  C   UNL     1      -9.178   8.237  70.027  1.00  0.00    -0.151 A  
HETATM   42  C   UNL     1     -11.012   9.580  69.152  1.00  0.00    -0.148 A  
HETATM   43  C   UNL     1     -10.726   9.373  71.534  1.00  0.00    -0.367 A  
HETATM   44  C   UNL     1      -9.897   8.762  68.943  1.00  0.00    -0.183 A  
HETATM   45  C   UNL     1      -9.619   8.546  71.327  1.00  0.00    -0.264 A  
HETATM   46  C   UNL     1     -11.424   9.889  70.446  1.00  0.00    -0.372 A  
ENDBRANCH  32  41
ENDBRANCH  31  32
ENDBRANCH  18  31
ENDBRANCH   6  10
ENDBRANCH   2   3
TORSDOF 11
ENDMDL
MODEL      231
REMARK 921   NORMALIZED FREE ENERGY PREDICTED BY IDOCK:   -1.49 KCAL/MOL
REMARK 922        TOTAL FREE ENERGY PREDICTED BY IDOCK:   -5.51 KCAL/MOL
REMARK 923 INTER-LIGAND FREE ENERGY PREDICTED BY IDOCK:   -7.06 KCAL/MOL
REMARK 924 INTRA-LIGAND FREE ENERGY PREDICTED BY IDOCK:    1.55 KCAL/MOL
REMARK 927      BINDING AFFINITY PREDICTED BY RF-SCORE:    0.00 PKD
ROOT
HETATM    1  C   UNL     1      -9.320   3.945  63.424  1.00  0.00    -0.127 C  
HETATM    2  O   UNL     1      -9.788   3.946  64.777  1.00  0.00    -0.177 OA 
ENDROOT
BRANCH   2   3
HETATM    3  C   UNL     1      -8.819   4.167  65.720  1.00  0.00    -0.122 A  
HETATM    4  C   UNL     1      -8.696   5.473  66.214  1.00  0.00    -0.128 A  
HETATM    5  F   UNL     1      -9.511   6.435  65.747  1.00  0.00    -0.124 F  
HETATM    6  C   UNL     1      -7.747   5.788  67.196  1.00  0.00    -0.101 A  
HETATM    7  C   UNL     1      -6.891   4.780  67.662  1.00  0.00    -0.060 A  
HETATM    8  C   UNL     1      -7.946   3.175  66.180  1.00  0.00    -0.085 A  
HETATM    9  C   UNL     1      -6.991   3.483  67.151  1.00  0.00    -0.058 A  
BRANCH   6  10
HETATM   10  C   UNL     1      -7.681   7.144  67.781  1.00  0.00    -0.112 C  
HETATM   11  C   UNL     1      -9.267   6.574  69.644  1.00  0.00    -0.143 C  
HETATM   12  C   UNL     1      -8.365   7.524  68.883  1.00  0.00    -0.129 C  
HETATM   13  N   UNL     1      -8.211   8.823  69.384  1.00  0.00    -0.106 N  
HETATM   14  C   UNL     1      -7.167   9.653  68.965  1.00  0.00    -0.071 C  
HETATM   15  C   UNL     1      -6.863   8.171  67.068  1.00  0.00    -0.070 C  
HETATM   16  O   UNL     1      -6.786  10.616  69.637  1.00  0.00    -0.093 OA 
HETATM   17  O   UNL     1      -6.462   7.960  65.923  1.00  0.00    -0.042 OA 
HETATM   18  N   UNL     1      -6.583   9.331  67.758  1.00  0.00    -0.063 N  
BRANCH  13  19
HETATM   19  C   UNL     1      -9.033   9.350  70.480  1.00  0.00    -0.253 C  
BRANCH  19  20
HETATM   20  C   UNL     1      -9.589   8.345  71.482  1.00  0.00    -0.273 A  
HETATM   21  F   UNL     1      -6.991   8.760  73.809  1.00  0.00    -0.144 F  
HETATM   22  C   UNL     1      -7.331   7.985  72.743  1.00  0.00    -0.111 C  
HETATM   23  C   UNL     1      -8.834   7.858  72.579  1.00  0.00    -0.220 A  
HETATM   24  F   UNL     1     -11.710   8.380  70.396  1.00  0.00    -0.250 F  
HETATM   25  C   UNL     1      -9.503   7.176  73.625  1.00  0.00    -0.265 A  
HETATM   26  C   UNL     1     -10.959   8.019  71.443  1.00  0.00    -0.234 A  
HETATM   27  F   UNL     1      -6.754   6.770  72.969  1.00  0.00    -0.065 F  
HETATM   28  F   UNL     1      -6.662   8.498  71.680  1.00  0.00    -0.054 F  
HETATM   29  C   UNL     1     -11.593   7.313  72.465  1.00  0.00    -0.285 A  
HETATM   30  C   UNL     1     -10.870   6.918  73.578  1.00  0.00    -0.265 A  
ENDBRANCH  19  20
ENDBRANCH  13  19
BRANCH  18  31
HETATM   31  C   UNL     1      -5.634  10.285  67.171  1.00  0.00    -0.041 C  
BRANCH  31  32
HETATM   32  C   UNL     1      -6.276  11.412  66.298  1.00  0.00    -0.007 C  
BRANCH  32  33
HETATM   33  N   UNL     1      -6.453  12.707  67.009  1.00  0.00    -0.467 NA 
HETATM   34  H   UNL     1      -6.120  13.476  66.429  1.00  0.00     0.000 HD 
BRANCH  33  35
HETATM   35  C   UNL     1      -7.811  12.977  67.471  1.00  0.00    -0.178 C  
BRANCH  35  36
HETATM   36  C   UNL     1      -7.981  14.464  67.821  1.00  0.00    -0.166 C  
BRANCH  36  37
HETATM   37  C   UNL     1      -7.903  15.383  66.601  1.00  0.00     0.010 C  
HETATM   38  O   UNL     1      -9.803  16.641  65.817  1.00  0.00    -0.482 OA 
HETATM   39  C   UNL     1      -8.918  16.495  66.646  1.00  0.00    -0.255 C  
HETATM   40  O   UNL     1      -8.731  17.361  67.665  1.00  0.00    -0.217 OA 
ENDBRANCH  36  37
ENDBRANCH  35  36
ENDBRANCH  33  35
ENDBRANCH  32  33
BRANCH  32  41
HETATM   41  C   UNL     1      -7.644  11.009  65.736  1.00  0.00     0.058 A  
HETATM   42  C   UNL     1      -8.999  10.232  63.868  1.00  0.00    -0.259 A  
HETATM   43  C   UNL     1     -10.066  10.796  65.951  1.00  0.00    -0.314 A  
HETATM   44  C   UNL     1      -7.753  10.557  64.413  1.00  0.00     0.040 A  
HETATM   45  C   UNL     1      -8.821  11.111  66.502  1.00  0.00    -0.174 A  
HETATM   46  C   UNL     1     -10.155  10.354  64.635  1.00  0.00    -0.378 A  
ENDBRANCH  32  41
ENDBRANCH  31  32
ENDBRANCH  18  31
ENDBRANCH   6  10
ENDBRANCH   2   3
TORSDOF 11
ENDMDL
MODEL      232
REMARK 921   NORMALIZED FREE ENERGY PREDICTED BY IDOCK:   -1.45 KCAL/MOL
REMARK 922        TOTAL FREE ENERGY PREDICTED BY IDOCK:   -5.44 KCAL/MOL
REMARK 923 INTER-LIGAND FREE ENERGY PREDICTED BY IDOCK:   -5.60 KCAL/MOL
REMARK 924 INTRA-LIGAND FREE ENERGY PREDICTED BY IDOCK:    0.15 KCAL/MOL
REMARK 927      BINDING AFFINITY PREDICTED BY RF-SCORE:    0.00 PKD
ROOT
HETATM    1  C   UNL     1      -7.491  13.539  67.404  1.00  0.00    -0.122 C  
HETATM    2  O   UNL     1      -7.953  12.850  68.570  1.00  0.00    -0.144 OA 
ENDROOT
BRANCH   2   3
HETATM    3  C   UNL     1      -9.100  12.124  68.392  1.00  0.00    -0.151 A  
HETATM    4  C   UNL     1      -8.953  10.768  68.064  1.00  0.00    -0.139 A  
HETATM    5  F   UNL     1      -7.718  10.252  67.934  1.00  0.00    -0.087 F  
HETATM    6  C   UNL     1     -10.070   9.942  67.883  1.00  0.00    -0.210 A  
HETATM    7  C   UNL     1     -11.352  10.497  68.003  1.00  0.00    -0.319 A  
HETATM    8  C   UNL     1     -10.386  12.668  68.490  1.00  0.00    -0.232 A  
HETATM    9  C   UNL     1     -11.504  11.854  68.302  1.00  0.00    -0.372 A  
BRANCH   6  10
HETATM   10  C   UNL     1      -9.911   8.495  67.628  1.00  0.00    -0.253 C  
HETATM   11  C   UNL     1      -9.070   8.852  65.288  1.00  0.00    -0.196 C  
HETATM   12  C   UNL     1      -9.468   7.979  66.460  1.00  0.00    -0.214 C  
HETATM   13  N   UNL     1      -9.317   6.593  66.325  1.00  0.00    -0.142 N  
HETATM   14  C   UNL     1      -9.332   5.740  67.432  1.00  0.00    -0.112 C  
HETATM   15  C   UNL     1     -10.333   7.548  68.704  1.00  0.00    -0.200 C  
HETATM   16  O   UNL     1      -8.837   4.610  67.395  1.00  0.00    -0.104 OA 
HETATM   17  O   UNL     1     -11.003   7.949  69.656  1.00  0.00    -0.214 OA 
HETATM   18  N   UNL     1      -9.927   6.238  68.572  1.00  0.00    -0.138 N  
BRANCH  13  19
HETATM   19  C   UNL     1      -8.988   5.956  65.044  1.00  0.00     0.158 C  
BRANCH  19  20
HETATM   20  C   UNL     1      -7.687   5.165  64.970  1.00  0.00    -0.085 A  
HETATM   21  F   UNL     1      -5.670   7.779  66.165  1.00  0.00    -0.033 F  
HETATM   22  C   UNL     1      -6.130   7.260  64.994  1.00  0.00    -0.038 C  
HETATM   23  C   UNL     1      -6.413   5.773  65.096  1.00  0.00    -0.042 A  
HETATM   24  F   UNL     1      -8.898   3.121  64.771  1.00  0.00    -0.105 F  
HETATM   25  C   UNL     1      -5.279   4.953  65.321  1.00  0.00    -0.012 A  
HETATM   26  C   UNL     1      -7.736   3.757  64.964  1.00  0.00    -0.085 A  
HETATM   27  F   UNL     1      -5.160   7.517  64.069  1.00  0.00    -0.027 F  
HETATM   28  F   UNL     1      -7.178   8.038  64.627  1.00  0.00    -0.069 F  
HETATM   29  C   UNL     1      -6.603   2.966  65.150  1.00  0.00    -0.035 A  
HETATM   30  C   UNL     1      -5.374   3.565  65.363  1.00  0.00    -0.009 A  
ENDBRANCH  19  20
ENDBRANCH  13  19
BRANCH  18  31
HETATM   31  C   UNL     1     -10.161   5.316  69.691  1.00  0.00    -0.278 C  
BRANCH  31  32
HETATM   32  C   UNL     1      -9.813   5.883  71.106  1.00  0.00    -0.181 C  
BRANCH  32  33
HETATM   33  N   UNL     1      -8.438   6.442  71.217  1.00  0.00    -0.123 NA 
HETATM   34  H   UNL     1      -8.111   6.756  70.304  1.00  0.00     0.000 HD 
BRANCH  33  35
HETATM   35  C   UNL     1      -8.285   7.510  72.201  1.00  0.00    -0.103 C  
BRANCH  35  36
HETATM   36  C   UNL     1      -6.807   7.694  72.577  1.00  0.00    -0.064 C  
BRANCH  36  37
HETATM   37  C   UNL     1      -5.849   7.385  71.426  1.00  0.00    -0.036 C  
HETATM   38  O   UNL     1      -6.503   7.606  69.117  1.00  0.00    -0.038 OA 
HETATM   39  C   UNL     1      -6.189   8.142  70.169  1.00  0.00    -0.032 C  
HETATM   40  O   UNL     1      -6.063   9.481  70.290  1.00  0.00    -0.043 OA 
ENDBRANCH  36  37
ENDBRANCH  35  36
ENDBRANCH  33  35
ENDBRANCH  32  33
BRANCH  32  41
HETATM   41  C   UNL     1      -9.970   4.833  72.210  1.00  0.00    -0.234 A  
HETATM   42  C   UNL     1     -11.198   3.974  74.130  1.00  0.00     0.082 A  
HETATM   43  C   UNL     1      -9.150   2.901  73.458  1.00  0.00    -0.090 A  
HETATM   44  C   UNL     1     -11.065   4.894  73.086  1.00  0.00    -0.396 A  
HETATM   45  C   UNL     1      -9.020   3.813  72.406  1.00  0.00    -0.131 A  
HETATM   46  C   UNL     1     -10.240   2.981  74.319  1.00  0.00    -0.203 A  
ENDBRANCH  32  41
ENDBRANCH  31  32
ENDBRANCH  18  31
ENDBRANCH   6  10
ENDBRANCH   2   3
TORSDOF 11
ENDMDL
MODEL      233
REMARK 921   NORMALIZED FREE ENERGY PREDICTED BY IDOCK:   -1.45 KCAL/MOL
REMARK 922        TOTAL FREE ENERGY PREDICTED BY IDOCK:   -5.44 KCAL/MOL
REMARK 923 INTER-LIGAND FREE ENERGY PREDICTED BY IDOCK:   -7.10 KCAL/MOL
REMARK 924 INTRA-LIGAND FREE ENERGY PREDICTED BY IDOCK:    1.66 KCAL/MOL
REMARK 927      BINDING AFFINITY PREDICTED BY RF-SCORE:    0.00 PKD
ROOT
HETATM    1  C   UNL     1     -13.724   8.888  71.801  1.00  0.00    -0.422 C  
HETATM    2  O   UNL     1     -13.035   7.663  71.530  1.00  0.00    -0.336 OA 
ENDROOT
BRANCH   2   3
HETATM    3  C   UNL     1     -11.673   7.730  71.655  1.00  0.00    -0.280 A  
HETATM    4  C   UNL     1     -10.936   7.973  70.486  1.00  0.00    -0.247 A  
HETATM    5  F   UNL     1     -11.584   8.121  69.317  1.00  0.00     0.204 F  
HETATM    6  C   UNL     1      -9.539   8.079  70.521  1.00  0.00    -0.170 A  
HETATM    7  C   UNL     1      -8.875   7.905  71.743  1.00  0.00    -0.163 A  
HETATM    8  C   UNL     1     -10.995   7.541  72.864  1.00  0.00    -0.434 A  
HETATM    9  C   UNL     1      -9.603   7.634  72.905  1.00  0.00    -0.274 A  
BRANCH   6  10
HETATM   10  C   UNL     1      -8.774   8.426  69.305  1.00  0.00    -0.138 C  
HETATM   11  C   UNL     1      -9.829  10.698  69.114  1.00  0.00    -0.217 C  
HETATM   12  C   UNL     1      -8.893   9.601  68.648  1.00  0.00    -0.128 C  
HETATM   13  N   UNL     1      -8.098   9.853  67.523  1.00  0.00    -0.110 N  
HETATM   14  C   UNL     1      -6.986   9.064  67.217  1.00  0.00    -0.078 C  
HETATM   15  C   UNL     1      -7.866   7.386  68.733  1.00  0.00    -0.121 C  
HETATM   16  O   UNL     1      -6.076   9.469  66.489  1.00  0.00    -0.058 OA 
HETATM   17  O   UNL     1      -7.938   6.219  69.118  1.00  0.00    -0.106 OA 
HETATM   18  N   UNL     1      -6.961   7.807  67.783  1.00  0.00    -0.078 N  
BRANCH  13  19
HETATM   19  C   UNL     1      -8.282  11.038  66.676  1.00  0.00    -0.154 C  
BRANCH  19  20
HETATM   20  C   UNL     1      -8.787  10.810  65.255  1.00  0.00    -0.200 A  
HETATM   21  F   UNL     1     -10.920  13.599  65.234  1.00  0.00    -0.288 F  
HETATM   22  C   UNL     1     -10.934  12.269  65.524  1.00  0.00    -0.298 C  
HETATM   23  C   UNL     1      -9.907  11.494  64.721  1.00  0.00    -0.286 A  
HETATM   24  F   UNL     1      -6.991   9.303  64.821  1.00  0.00    -0.085 F  
HETATM   25  C   UNL     1     -10.128  11.462  63.321  1.00  0.00    -0.424 A  
HETATM   26  C   UNL     1      -8.015  10.036  64.366  1.00  0.00    -0.152 A  
HETATM   27  F   UNL     1     -12.200  11.844  65.248  1.00  0.00    -0.355 F  
HETATM   28  F   UNL     1     -10.821  12.180  66.873  1.00  0.00    -0.242 F  
HETATM   29  C   UNL     1      -8.271   9.987  62.996  1.00  0.00    -0.156 A  
HETATM   30  C   UNL     1      -9.312  10.729  62.465  1.00  0.00    -0.310 A  
ENDBRANCH  19  20
ENDBRANCH  13  19
BRANCH  18  31
HETATM   31  C   UNL     1      -5.932   6.863  67.329  1.00  0.00    -0.017 C  
BRANCH  31  32
HETATM   32  C   UNL     1      -6.320   6.002  66.083  1.00  0.00    -0.042 C  
BRANCH  32  33
HETATM   33  N   UNL     1      -7.760   6.075  65.715  1.00  0.00    -0.093 NA 
HETATM   34  H   UNL     1      -7.887   6.686  64.909  1.00  0.00     0.000 HD 
BRANCH  33  35
HETATM   35  C   UNL     1      -8.402   4.786  65.477  1.00  0.00    -0.120 C  
BRANCH  35  36
HETATM   36  C   UNL     1      -8.862   4.669  64.016  1.00  0.00    -0.138 C  
BRANCH  36  37
HETATM   37  C   UNL     1      -9.964   3.629  63.812  1.00  0.00    -0.182 C  
HETATM   38  O   UNL     1      -9.567   1.545  62.668  1.00  0.00    -0.087 OA 
HETATM   39  C   UNL     1      -9.423   2.230  63.669  1.00  0.00    -0.105 C  
HETATM   40  O   UNL     1      -8.803   1.772  64.777  1.00  0.00    -0.101 OA 
ENDBRANCH  36  37
ENDBRANCH  35  36
ENDBRANCH  33  35
ENDBRANCH  32  33
BRANCH  32  41
HETATM   41  C   UNL     1      -5.969   4.522  66.263  1.00  0.00    -0.027 A  
HETATM   42  C   UNL     1      -5.346   2.379  65.289  1.00  0.00    -0.008 A  
HETATM   43  C   UNL     1      -5.754   2.529  67.657  1.00  0.00    -0.019 A  
HETATM   44  C   UNL     1      -5.621   3.742  65.150  1.00  0.00    -0.010 A  
HETATM   45  C   UNL     1      -6.019   3.895  67.523  1.00  0.00    -0.024 A  
HETATM   46  C   UNL     1      -5.415   1.771  66.541  1.00  0.00    -0.013 A  
ENDBRANCH  32  41
ENDBRANCH  31  32
ENDBRANCH  18  31
ENDBRANCH   6  10
ENDBRANCH   2   3
TORSDOF 11
ENDMDL
MODEL      234
REMARK 921   NORMALIZED FREE ENERGY PREDICTED BY IDOCK:   -1.44 KCAL/MOL
REMARK 922        TOTAL FREE ENERGY PREDICTED BY IDOCK:   -5.43 KCAL/MOL
REMARK 923 INTER-LIGAND FREE ENERGY PREDICTED BY IDOCK:   -5.36 KCAL/MOL
REMARK 924 INTRA-LIGAND FREE ENERGY PREDICTED BY IDOCK:   -0.07 KCAL/MOL
REMARK 927      BINDING AFFINITY PREDICTED BY RF-SCORE:    0.00 PKD
ROOT
HETATM    1  C   UNL     1     -13.517  13.643  64.890  1.00  0.00     1.021 C  
HETATM    2  O   UNL     1     -13.107  12.303  64.598  1.00  0.00    -0.770 OA 
ENDROOT
BRANCH   2   3
HETATM    3  C   UNL     1     -11.756  12.134  64.452  1.00  0.00    -0.355 A  
HETATM    4  C   UNL     1     -10.948  12.476  65.545  1.00  0.00    -0.287 A  
HETATM    5  F   UNL     1     -11.521  12.953  66.665  1.00  0.00    -0.305 F  
HETATM    6  C   UNL     1      -9.557  12.317  65.494  1.00  0.00    -0.112 A  
HETATM    7  C   UNL     1      -8.971  11.837  64.315  1.00  0.00     0.515 A  
HETATM    8  C   UNL     1     -11.156  11.673  63.274  1.00  0.00    -0.333 A  
HETATM    9  C   UNL     1      -9.770  11.521  63.212  1.00  0.00    -0.405 A  
BRANCH   6  10
HETATM   10  C   UNL     1      -8.717  12.592  66.679  1.00  0.00    -0.084 C  
HETATM   11  C   UNL     1      -9.542  14.955  66.895  1.00  0.00    -0.256 C  
HETATM   12  C   UNL     1      -8.688  13.779  67.324  1.00  0.00    -0.219 C  
HETATM   13  N   UNL     1      -7.885  13.934  68.461  1.00  0.00    -0.138 N  
HETATM   14  C   UNL     1      -7.332  12.835  69.125  1.00  0.00     0.140 C  
HETATM   15  C   UNL     1      -7.795  11.512  67.144  1.00  0.00    -0.160 C  
HETATM   16  O   UNL     1      -6.957  12.900  70.300  1.00  0.00     0.551 OA 
HETATM   17  O   UNL     1      -7.574  10.534  66.430  1.00  0.00    -0.119 OA 
HETATM   18  N   UNL     1      -7.233  11.671  68.393  1.00  0.00    -0.081 N  
BRANCH  13  19
HETATM   19  C   UNL     1      -7.688  15.231  69.119  1.00  0.00    -0.200 C  
BRANCH  19  20
HETATM   20  C   UNL     1      -7.144  16.372  68.267  1.00  0.00    -0.143 A  
HETATM   21  F   UNL     1      -9.434  18.758  69.447  1.00  0.00    -0.214 F  
HETATM   22  C   UNL     1      -9.287  17.851  68.444  1.00  0.00    -0.288 C  
HETATM   23  C   UNL     1      -7.831  17.600  68.101  1.00  0.00    -0.257 A  
HETATM   24  F   UNL     1      -5.151  15.140  67.826  1.00  0.00    -0.113 F  
HETATM   25  C   UNL     1      -7.136  18.709  67.557  1.00  0.00    -0.212 A  
HETATM   26  C   UNL     1      -5.827  16.294  67.771  1.00  0.00    -0.139 A  
HETATM   27  F   UNL     1      -9.965  18.365  67.378  1.00  0.00    -0.294 F  
HETATM   28  F   UNL     1     -10.003  16.761  68.819  1.00  0.00    -0.220 F  
HETATM   29  C   UNL     1      -5.172  17.387  67.204  1.00  0.00    -0.160 A  
HETATM   30  C   UNL     1      -5.816  18.609  67.127  1.00  0.00    -0.158 A  
ENDBRANCH  19  20
ENDBRANCH  13  19
BRANCH  18  31
HETATM   31  C   UNL     1      -6.470  10.555  68.965  1.00  0.00    -0.054 C  
BRANCH  31  32
HETATM   32  C   UNL     1      -7.327   9.335  69.437  1.00  0.00    -0.077 C  
BRANCH  32  33
HETATM   33  N   UNL     1      -7.921   9.495  70.792  1.00  0.00    -0.298 NA 
HETATM   34  H   UNL     1      -7.637  10.386  71.199  1.00  0.00     0.000 HD 
BRANCH  33  35
HETATM   35  C   UNL     1      -9.373   9.355  70.850  1.00  0.00    -0.193 C  
BRANCH  35  36
HETATM   36  C   UNL     1      -9.811   7.994  70.289  1.00  0.00    -0.184 C  
BRANCH  36  37
HETATM   37  C   UNL     1     -10.584   7.146  71.299  1.00  0.00    -0.230 C  
HETATM   38  O   UNL     1     -12.931   7.483  71.729  1.00  0.00    -0.335 OA 
HETATM   39  C   UNL     1     -12.055   7.067  70.986  1.00  0.00    -0.368 C  
HETATM   40  O   UNL     1     -12.330   6.441  69.822  1.00  0.00     0.309 OA 
ENDBRANCH  36  37
ENDBRANCH  35  36
ENDBRANCH  33  35
ENDBRANCH  32  33
BRANCH  32  41
HETATM   41  C   UNL     1      -6.529   8.027  69.439  1.00  0.00    -0.035 A  
HETATM   42  C   UNL     1      -5.335   6.295  68.213  1.00  0.00    -0.008 A  
HETATM   43  C   UNL     1      -5.634   6.069  70.591  1.00  0.00    -0.014 A  
HETATM   44  C   UNL     1      -6.023   7.511  68.237  1.00  0.00    -0.035 A  
HETATM   45  C   UNL     1      -6.312   7.291  70.620  1.00  0.00    -0.039 A  
HETATM   46  C   UNL     1      -5.143   5.572  69.388  1.00  0.00    -0.004 A  
ENDBRANCH  32  41
ENDBRANCH  31  32
ENDBRANCH  18  31
ENDBRANCH   6  10
ENDBRANCH   2   3
TORSDOF 11
ENDMDL
MODEL      235
REMARK 921   NORMALIZED FREE ENERGY PREDICTED BY IDOCK:   -1.44 KCAL/MOL
REMARK 922        TOTAL FREE ENERGY PREDICTED BY IDOCK:   -5.42 KCAL/MOL
REMARK 923 INTER-LIGAND FREE ENERGY PREDICTED BY IDOCK:   -9.53 KCAL/MOL
REMARK 924 INTRA-LIGAND FREE ENERGY PREDICTED BY IDOCK:    4.11 KCAL/MOL
REMARK 927      BINDING AFFINITY PREDICTED BY RF-SCORE:    0.00 PKD
ROOT
HETATM    1  C   UNL     1     -10.838   7.336  66.972  1.00  0.00    -0.280 C  
HETATM    2  O   UNL     1      -9.580   7.463  66.301  1.00  0.00    -0.149 OA 
ENDROOT
BRANCH   2   3
HETATM    3  C   UNL     1      -9.347   8.692  65.744  1.00  0.00    -0.158 A  
HETATM    4  C   UNL     1      -9.851   9.808  66.428  1.00  0.00    -0.235 A  
HETATM    5  F   UNL     1     -10.534   9.628  67.573  1.00  0.00    -0.241 F  
HETATM    6  C   UNL     1      -9.644  11.107  65.944  1.00  0.00    -0.250 A  
HETATM    7  C   UNL     1      -8.946  11.280  64.740  1.00  0.00     0.046 A  
HETATM    8  C   UNL     1      -8.669   8.879  64.534  1.00  0.00    -0.120 A  
HETATM    9  C   UNL     1      -8.467  10.169  64.041  1.00  0.00    -0.185 A  
BRANCH   6  10
HETATM   10  C   UNL     1     -10.096  12.285  66.713  1.00  0.00    -0.224 C  
HETATM   11  C   UNL     1      -9.521  11.242  68.925  1.00  0.00    -0.102 C  
HETATM   12  C   UNL     1     -10.057  12.366  68.062  1.00  0.00    -0.214 C  
HETATM   13  N   UNL     1     -10.476  13.540  68.701  1.00  0.00    -0.245 N  
HETATM   14  C   UNL     1     -10.664  14.733  67.997  1.00  0.00    -0.248 C  
HETATM   15  C   UNL     1     -10.696  13.424  65.954  1.00  0.00    -0.279 C  
HETATM   16  O   UNL     1     -10.656  15.832  68.558  1.00  0.00    -0.237 OA 
HETATM   17  O   UNL     1     -11.017  13.282  64.774  1.00  0.00    -0.316 OA 
HETATM   18  N   UNL     1     -10.853  14.611  66.637  1.00  0.00    -0.306 N  
BRANCH  13  19
HETATM   19  C   UNL     1     -10.603  13.643  70.160  1.00  0.00     1.108 C  
BRANCH  19  20
HETATM   20  C   UNL     1     -12.008  13.807  70.729  1.00  0.00    -0.318 A  
HETATM   21  F   UNL     1     -12.124  10.616  72.189  1.00  0.00    -0.129 F  
HETATM   22  C   UNL     1     -12.448  11.252  71.031  1.00  0.00    -0.400 C  
HETATM   23  C   UNL     1     -12.757  12.721  71.247  1.00  0.00    -0.364 A  
HETATM   24  F   UNL     1     -11.905  16.165  70.397  1.00  0.00    -0.340 F  
HETATM   25  C   UNL     1     -13.909  12.991  72.027  1.00  0.00    -0.330 A  
HETATM   26  C   UNL     1     -12.523  15.103  70.928  1.00  0.00    -0.365 A  
HETATM   27  F   UNL     1     -13.530  10.587  70.533  1.00  0.00    -0.350 F  
HETATM   28  F   UNL     1     -11.441  10.981  70.162  1.00  0.00    -0.312 F  
HETATM   29  C   UNL     1     -13.680  15.346  71.667  1.00  0.00    -0.606 A  
HETATM   30  C   UNL     1     -14.359  14.289  72.248  1.00  0.00    -0.527 A  
ENDBRANCH  19  20
ENDBRANCH  13  19
BRANCH  18  31
HETATM   31  C   UNL     1     -11.265  15.802  65.885  1.00  0.00     0.004 C  
BRANCH  31  32
HETATM   32  C   UNL     1     -10.110  16.783  65.504  1.00  0.00    -0.095 C  
BRANCH  32  33
HETATM   33  N   UNL     1      -8.745  16.229  65.714  1.00  0.00    -0.343 NA 
HETATM   34  H   UNL     1      -8.513  15.571  64.970  1.00  0.00     0.000 HD 
BRANCH  33  35
HETATM   35  C   UNL     1      -7.688  17.227  65.850  1.00  0.00    -0.028 C  
BRANCH  35  36
HETATM   36  C   UNL     1      -6.611  16.748  66.835  1.00  0.00    -0.248 C  
BRANCH  36  37
HETATM   37  C   UNL     1      -7.168  16.402  68.217  1.00  0.00    -0.150 C  
HETATM   38  O   UNL     1      -5.882  16.701  70.232  1.00  0.00    -0.202 OA 
HETATM   39  C   UNL     1      -6.523  17.199  69.319  1.00  0.00    -0.235 C  
HETATM   40  O   UNL     1      -6.761  18.526  69.242  1.00  0.00    -0.272 OA 
ENDBRANCH  36  37
ENDBRANCH  35  36
ENDBRANCH  33  35
ENDBRANCH  32  33
BRANCH  32  41
HETATM   41  C   UNL     1     -10.189  18.106  66.272  1.00  0.00    -0.401 A  
HETATM   42  C   UNL     1      -9.596  20.460  66.465  1.00  0.00    -0.431 A  
HETATM   43  C   UNL     1     -10.844  19.405  68.233  1.00  0.00     0.036 A  
HETATM   44  C   UNL     1      -9.576  19.257  65.754  1.00  0.00     0.102 A  
HETATM   45  C   UNL     1     -10.835  18.203  67.519  1.00  0.00    -0.264 A  
HETATM   46  C   UNL     1     -10.226  20.534  67.705  1.00  0.00    -0.328 A  
ENDBRANCH  32  41
ENDBRANCH  31  32
ENDBRANCH  18  31
ENDBRANCH   6  10
ENDBRANCH   2   3
TORSDOF 11
ENDMDL
MODEL      236
REMARK 921   NORMALIZED FREE ENERGY PREDICTED BY IDOCK:   -1.42 KCAL/MOL
REMARK 922        TOTAL FREE ENERGY PREDICTED BY IDOCK:   -5.39 KCAL/MOL
REMARK 923 INTER-LIGAND FREE ENERGY PREDICTED BY IDOCK:   -8.28 KCAL/MOL
REMARK 924 INTRA-LIGAND FREE ENERGY PREDICTED BY IDOCK:    2.89 KCAL/MOL
REMARK 927      BINDING AFFINITY PREDICTED BY RF-SCORE:    0.00 PKD
ROOT
HETATM    1  C   UNL     1      -5.646  18.553  69.566  1.00  0.00    -0.224 C  
HETATM    2  O   UNL     1      -5.226  17.861  68.386  1.00  0.00    -0.148 OA 
ENDROOT
BRANCH   2   3
HETATM    3  C   UNL     1      -6.229  17.228  67.702  1.00  0.00    -0.150 A  
HETATM    4  C   UNL     1      -6.365  15.847  67.904  1.00  0.00    -0.137 A  
HETATM    5  F   UNL     1      -5.519  15.214  68.736  1.00  0.00    -0.086 F  
HETATM    6  C   UNL     1      -7.377  15.119  67.262  1.00  0.00    -0.216 A  
HETATM    7  C   UNL     1      -8.241  15.786  66.383  1.00  0.00    -0.206 A  
HETATM    8  C   UNL     1      -7.087  17.877  66.808  1.00  0.00    -0.230 A  
HETATM    9  C   UNL     1      -8.091  17.158  66.158  1.00  0.00    -0.283 A  
BRANCH   6  10
HETATM   10  C   UNL     1      -7.576  13.682  67.547  1.00  0.00    -0.180 C  
HETATM   11  C   UNL     1      -5.140  13.292  68.026  1.00  0.00    -0.108 C  
HETATM   12  C   UNL     1      -6.578  12.835  67.887  1.00  0.00    -0.118 C  
HETATM   13  N   UNL     1      -6.870  11.496  68.172  1.00  0.00    -0.065 N  
HETATM   14  C   UNL     1      -8.179  11.061  68.399  1.00  0.00    -0.137 C  
HETATM   15  C   UNL     1      -8.951  13.123  67.379  1.00  0.00    -0.201 C  
HETATM   16  O   UNL     1      -8.426  10.016  69.008  1.00  0.00    -0.127 OA 
HETATM   17  O   UNL     1      -9.820  13.775  66.800  1.00  0.00    -0.258 OA 
HETATM   18  N   UNL     1      -9.181  11.871  67.908  1.00  0.00    -0.180 N  
BRANCH  13  19
HETATM   19  C   UNL     1      -5.825  10.490  68.398  1.00  0.00    -0.043 C  
BRANCH  19  20
HETATM   20  C   UNL     1      -6.220   9.025  68.250  1.00  0.00    -0.054 A  
HETATM   21  F   UNL     1      -5.171   8.760  64.908  1.00  0.00    -0.037 F  
HETATM   22  C   UNL     1      -6.280   9.054  65.640  1.00  0.00    -0.056 C  
HETATM   23  C   UNL     1      -6.276   8.370  66.994  1.00  0.00    -0.056 A  
HETATM   24  F   UNL     1      -6.390   8.794  70.616  1.00  0.00    -0.033 F  
HETATM   25  C   UNL     1      -6.349   6.955  66.960  1.00  0.00    -0.045 A  
HETATM   26  C   UNL     1      -6.355   8.228  69.403  1.00  0.00    -0.038 A  
HETATM   27  F   UNL     1      -7.341   8.647  64.884  1.00  0.00    -0.083 F  
HETATM   28  F   UNL     1      -6.366  10.408  65.661  1.00  0.00    -0.090 F  
HETATM   29  C   UNL     1      -6.464   6.839  69.348  1.00  0.00    -0.044 A  
HETATM   30  C   UNL     1      -6.427   6.195  68.123  1.00  0.00    -0.049 A  
ENDBRANCH  19  20
ENDBRANCH  13  19
BRANCH  18  31
HETATM   31  C   UNL     1     -10.557  11.362  67.929  1.00  0.00    -0.189 C  
BRANCH  31  32
HETATM   32  C   UNL     1     -11.525  12.095  68.914  1.00  0.00    -0.297 C  
BRANCH  32  33
HETATM   33  N   UNL     1     -10.976  13.356  69.482  1.00  0.00    -0.454 NA 
HETATM   34  H   UNL     1     -10.107  13.606  69.011  1.00  0.00     0.000 HD 
BRANCH  33  35
HETATM   35  C   UNL     1     -11.897  14.489  69.474  1.00  0.00    -0.329 C  
BRANCH  35  36
HETATM   36  C   UNL     1     -11.294  15.674  68.704  1.00  0.00    -0.359 C  
BRANCH  36  37
HETATM   37  C   UNL     1     -11.023  16.891  69.589  1.00  0.00    -0.007 C  
HETATM   38  O   UNL     1      -9.099  18.307  69.271  1.00  0.00     0.014 OA 
HETATM   39  C   UNL     1     -10.202  17.944  68.892  1.00  0.00    -0.330 C  
HETATM   40  O   UNL     1     -10.821  18.500  67.828  1.00  0.00    -0.388 OA 
ENDBRANCH  36  37
ENDBRANCH  35  36
ENDBRANCH  33  35
ENDBRANCH  32  33
BRANCH  32  41
HETATM   41  C   UNL     1     -11.943  11.207  70.091  1.00  0.00    -0.449 A  
HETATM   42  C   UNL     1     -13.306  10.864  72.080  1.00  0.00    -0.394 A  
HETATM   43  C   UNL     1     -11.676   9.203  71.459  1.00  0.00    -0.433 A  
HETATM   44  C   UNL     1     -12.945  11.638  70.974  1.00  0.00    -0.227 A  
HETATM   45  C   UNL     1     -11.323   9.970  70.345  1.00  0.00    -0.392 A  
HETATM   46  C   UNL     1     -12.670   9.649  72.326  1.00  0.00    -0.362 A  
ENDBRANCH  32  41
ENDBRANCH  31  32
ENDBRANCH  18  31
ENDBRANCH   6  10
ENDBRANCH   2   3
TORSDOF 11
ENDMDL
MODEL      237
REMARK 921   NORMALIZED FREE ENERGY PREDICTED BY IDOCK:   -1.35 KCAL/MOL
REMARK 922        TOTAL FREE ENERGY PREDICTED BY IDOCK:   -5.28 KCAL/MOL
REMARK 923 INTER-LIGAND FREE ENERGY PREDICTED BY IDOCK:   -6.51 KCAL/MOL
REMARK 924 INTRA-LIGAND FREE ENERGY PREDICTED BY IDOCK:    1.23 KCAL/MOL
REMARK 927      BINDING AFFINITY PREDICTED BY RF-SCORE:    0.00 PKD
ROOT
HETATM    1  C   UNL     1     -14.125   9.994  72.171  1.00  0.00     0.246 C  
HETATM    2  O   UNL     1     -13.844   9.142  71.056  1.00  0.00    -0.197 OA 
ENDROOT
BRANCH   2   3
HETATM    3  C   UNL     1     -12.544   8.719  70.969  1.00  0.00    -0.077 A  
HETATM    4  C   UNL     1     -11.757   9.279  69.953  1.00  0.00     0.199 A  
HETATM    5  F   UNL     1     -12.302  10.183  69.119  1.00  0.00    -0.035 F  
HETATM    6  C   UNL     1     -10.411   8.922  69.800  1.00  0.00    -0.217 A  
HETATM    7  C   UNL     1      -9.860   7.965  70.664  1.00  0.00    -0.187 A  
HETATM    8  C   UNL     1     -11.986   7.751  71.812  1.00  0.00    -0.332 A  
HETATM    9  C   UNL     1     -10.648   7.383  71.661  1.00  0.00    -0.229 A  
BRANCH   6  10
HETATM   10  C   UNL     1      -9.560   9.581  68.787  1.00  0.00    -0.159 C  
HETATM   11  C   UNL     1     -10.683  11.809  69.084  1.00  0.00    -0.169 C  
HETATM   12  C   UNL     1      -9.670  10.883  68.441  1.00  0.00    -0.176 C  
HETATM   13  N   UNL     1      -8.794  11.428  67.494  1.00  0.00    -0.144 N  
HETATM   14  C   UNL     1      -7.630  10.762  67.100  1.00  0.00    -0.105 C  
HETATM   15  C   UNL     1      -8.569   8.737  68.054  1.00  0.00    -0.134 C  
HETATM   16  O   UNL     1      -6.679  11.354  66.584  1.00  0.00    -0.139 OA 
HETATM   17  O   UNL     1      -8.628   7.509  68.123  1.00  0.00    -0.123 OA 
HETATM   18  N   UNL     1      -7.604   9.402  67.328  1.00  0.00    -0.091 N  
BRANCH  13  19
HETATM   19  C   UNL     1      -8.952  12.787  66.962  1.00  0.00    -0.221 C  
BRANCH  19  20
HETATM   20  C   UNL     1     -10.219  13.084  66.167  1.00  0.00    -0.288 A  
HETATM   21  F   UNL     1     -10.362   9.932  64.625  1.00  0.00    -0.321 F  
HETATM   22  C   UNL     1      -9.860  11.180  64.418  1.00  0.00    -0.284 C  
HETATM   23  C   UNL     1     -10.676  12.253  65.115  1.00  0.00    -0.330 A  
HETATM   24  F   UNL     1     -10.677  14.980  67.538  1.00  0.00    -0.261 F  
HETATM   25  C   UNL     1     -11.999  12.417  64.633  1.00  0.00    -0.462 A  
HETATM   26  C   UNL     1     -11.079  14.111  66.602  1.00  0.00    -0.312 A  
HETATM   27  F   UNL     1      -9.859  11.359  63.066  1.00  0.00    -0.298 F  
HETATM   28  F   UNL     1      -8.549  11.117  64.762  1.00  0.00    -0.121 F  
HETATM   29  C   UNL     1     -12.365  14.281  66.089  1.00  0.00    -0.411 A  
HETATM   30  C   UNL     1     -12.841  13.410  65.125  1.00  0.00    -0.380 A  
ENDBRANCH  19  20
ENDBRANCH  13  19
BRANCH  18  31
HETATM   31  C   UNL     1      -6.505   8.622  66.745  1.00  0.00    -0.060 C  
BRANCH  31  32
HETATM   32  C   UNL     1      -5.650   7.807  67.768  1.00  0.00    -0.036 C  
BRANCH  32  33
HETATM   33  N   UNL     1      -6.131   6.417  67.995  1.00  0.00    -0.026 NA 
HETATM   34  H   UNL     1      -6.975   6.243  67.450  1.00  0.00     0.000 HD 
BRANCH  33  35
HETATM   35  C   UNL     1      -5.143   5.373  67.741  1.00  0.00    -0.004 C  
BRANCH  35  36
HETATM   36  C   UNL     1      -5.582   4.483  66.568  1.00  0.00    -0.014 C  
BRANCH  36  37
HETATM   37  C   UNL     1      -6.776   5.048  65.797  1.00  0.00    -0.053 C  
HETATM   38  O   UNL     1      -8.542   3.640  64.956  1.00  0.00    -0.107 OA 
HETATM   39  C   UNL     1      -8.002   4.180  65.909  1.00  0.00    -0.094 C  
HETATM   40  O   UNL     1      -8.492   4.092  67.165  1.00  0.00    -0.100 OA 
ENDBRANCH  36  37
ENDBRANCH  35  36
ENDBRANCH  33  35
ENDBRANCH  32  33
BRANCH  32  41
HETATM   41  C   UNL     1      -5.567   8.491  69.137  1.00  0.00    -0.035 A  
HETATM   42  C   UNL     1      -5.869   8.399  71.551  1.00  0.00    -0.039 A  
HETATM   43  C   UNL     1      -5.193  10.467  70.521  1.00  0.00    -0.062 A  
HETATM   44  C   UNL     1      -5.892   7.777  70.299  1.00  0.00    -0.023 A  
HETATM   45  C   UNL     1      -5.204   9.845  69.269  1.00  0.00    -0.035 A  
HETATM   46  C   UNL     1      -5.523   9.743  71.662  1.00  0.00    -0.059 A  
ENDBRANCH  32  41
ENDBRANCH  31  32
ENDBRANCH  18  31
ENDBRANCH   6  10
ENDBRANCH   2   3
TORSDOF 11
ENDMDL
MODEL      238
REMARK 921   NORMALIZED FREE ENERGY PREDICTED BY IDOCK:   -1.34 KCAL/MOL
REMARK 922        TOTAL FREE ENERGY PREDICTED BY IDOCK:   -5.26 KCAL/MOL
REMARK 923 INTER-LIGAND FREE ENERGY PREDICTED BY IDOCK:   -6.67 KCAL/MOL
REMARK 924 INTRA-LIGAND FREE ENERGY PREDICTED BY IDOCK:    1.41 KCAL/MOL
REMARK 927      BINDING AFFINITY PREDICTED BY RF-SCORE:    0.00 PKD
ROOT
HETATM    1  C   UNL     1     -11.119  12.240  63.281  1.00  0.00    -0.319 C  
HETATM    2  O   UNL     1     -12.133  12.086  64.279  1.00  0.00    -0.362 OA 
ENDROOT
BRANCH   2   3
HETATM    3  C   UNL     1     -11.805  12.582  65.513  1.00  0.00    -0.439 A  
HETATM    4  C   UNL     1     -11.208  11.694  66.419  1.00  0.00    -0.287 A  
HETATM    5  F   UNL     1     -10.992  10.419  66.050  1.00  0.00    -0.173 F  
HETATM    6  C   UNL     1     -10.820  12.118  67.697  1.00  0.00    -0.272 A  
HETATM    7  C   UNL     1     -11.066  13.445  68.078  1.00  0.00    -0.281 A  
HETATM    8  C   UNL     1     -12.062  13.898  65.913  1.00  0.00    -0.459 A  
HETATM    9  C   UNL     1     -11.688  14.326  67.187  1.00  0.00    -0.430 A  
BRANCH   6  10
HETATM   10  C   UNL     1     -10.108  11.205  68.617  1.00  0.00    -0.208 C  
HETATM   11  C   UNL     1     -12.236  10.285  69.584  1.00  0.00    -0.024 C  
HETATM   12  C   UNL     1     -10.726  10.373  69.483  1.00  0.00    -0.251 C  
HETATM   13  N   UNL     1      -9.966   9.519  70.291  1.00  0.00    -0.242 N  
HETATM   14  C   UNL     1      -8.611   9.283  70.040  1.00  0.00    -0.182 C  
HETATM   15  C   UNL     1      -8.614  11.261  68.634  1.00  0.00    -0.139 C  
HETATM   16  O   UNL     1      -8.029   8.284  70.473  1.00  0.00    -0.092 OA 
HETATM   17  O   UNL     1      -8.021  12.190  68.085  1.00  0.00    -0.133 OA 
HETATM   18  N   UNL     1      -7.962  10.229  69.275  1.00  0.00    -0.136 N  
BRANCH  13  19
HETATM   19  C   UNL     1     -10.560   8.703  71.357  1.00  0.00    -0.264 C  
BRANCH  19  20
HETATM   20  C   UNL     1     -10.277   7.205  71.331  1.00  0.00    -0.203 A  
HETATM   21  F   UNL     1      -9.969   7.011  67.838  1.00  0.00    -0.142 F  
HETATM   22  C   UNL     1     -10.905   6.884  68.817  1.00  0.00    -0.192 C  
HETATM   23  C   UNL     1     -10.303   6.441  70.137  1.00  0.00    -0.245 A  
HETATM   24  F   UNL     1      -9.812   7.215  73.668  1.00  0.00    -0.216 F  
HETATM   25  C   UNL     1      -9.739   5.140  70.141  1.00  0.00    -0.274 A  
HETATM   26  C   UNL     1      -9.790   6.576  72.493  1.00  0.00    -0.165 A  
HETATM   27  F   UNL     1     -11.805   5.971  68.353  1.00  0.00     0.027 F  
HETATM   28  F   UNL     1     -11.582   8.060  68.841  1.00  0.00     0.357 F  
HETATM   29  C   UNL     1      -9.273   5.280  72.485  1.00  0.00    -0.147 A  
HETATM   30  C   UNL     1      -9.216   4.570  71.298  1.00  0.00    -0.195 A  
ENDBRANCH  19  20
ENDBRANCH  13  19
BRANCH  18  31
HETATM   31  C   UNL     1      -6.501  10.145  69.160  1.00  0.00    -0.049 C  
BRANCH  31  32
HETATM   32  C   UNL     1      -5.973   9.084  68.141  1.00  0.00    -0.046 C  
BRANCH  32  33
HETATM   33  N   UNL     1      -6.888   8.830  66.995  1.00  0.00    -0.069 NA 
HETATM   34  H   UNL     1      -7.772   9.320  67.135  1.00  0.00     0.000 HD 
BRANCH  33  35
HETATM   35  C   UNL     1      -6.337   9.151  65.682  1.00  0.00    -0.067 C  
BRANCH  35  36
HETATM   36  C   UNL     1      -6.424   7.937  64.744  1.00  0.00    -0.048 C  
BRANCH  36  37
HETATM   37  C   UNL     1      -6.967   6.683  65.431  1.00  0.00    -0.056 C  
HETATM   38  O   UNL     1      -9.329   6.250  65.632  1.00  0.00     0.008 OA 
HETATM   39  C   UNL     1      -8.332   6.291  64.928  1.00  0.00    -0.076 C  
HETATM   40  O   UNL     1      -8.349   5.931  63.626  1.00  0.00    -0.088 OA 
ENDBRANCH  36  37
ENDBRANCH  35  36
ENDBRANCH  33  35
ENDBRANCH  32  33
BRANCH  32  41
HETATM   41  C   UNL     1      -5.682   7.733  68.802  1.00  0.00    -0.027 A  
HETATM   42  C   UNL     1      -5.511   5.310  68.637  1.00  0.00    -0.007 A  
HETATM   43  C   UNL     1      -5.199   6.376  70.773  1.00  0.00    -0.018 A  
HETATM   44  C   UNL     1      -5.726   6.555  68.041  1.00  0.00    -0.012 A  
HETATM   45  C   UNL     1      -5.402   7.624  70.177  1.00  0.00    -0.023 A  
HETATM   46  C   UNL     1      -5.251   5.219  70.002  1.00  0.00    -0.004 A  
ENDBRANCH  32  41
ENDBRANCH  31  32
ENDBRANCH  18  31
ENDBRANCH   6  10
ENDBRANCH   2   3
TORSDOF 11
ENDMDL
MODEL      239
REMARK 921   NORMALIZED FREE ENERGY PREDICTED BY IDOCK:   -1.30 KCAL/MOL
REMARK 922        TOTAL FREE ENERGY PREDICTED BY IDOCK:   -5.20 KCAL/MOL
REMARK 923 INTER-LIGAND FREE ENERGY PREDICTED BY IDOCK:   -6.39 KCAL/MOL
REMARK 924 INTRA-LIGAND FREE ENERGY PREDICTED BY IDOCK:    1.19 KCAL/MOL
REMARK 927      BINDING AFFINITY PREDICTED BY RF-SCORE:    0.00 PKD
ROOT
HETATM    1  C   UNL     1      -5.531   3.132  68.937  1.00  0.00    -0.013 C  
HETATM    2  O   UNL     1      -5.363   4.377  68.251  1.00  0.00    -0.010 OA 
ENDROOT
BRANCH   2   3
HETATM    3  C   UNL     1      -6.435   4.764  67.492  1.00  0.00    -0.045 A  
HETATM    4  C   UNL     1      -7.177   5.862  67.949  1.00  0.00    -0.072 A  
HETATM    5  F   UNL     1      -6.818   6.472  69.093  1.00  0.00    -0.054 F  
HETATM    6  C   UNL     1      -8.278   6.342  67.227  1.00  0.00    -0.109 A  
HETATM    7  C   UNL     1      -8.654   5.686  66.045  1.00  0.00    -0.137 A  
HETATM    8  C   UNL     1      -6.832   4.108  66.321  1.00  0.00    -0.054 A  
HETATM    9  C   UNL     1      -7.934   4.573  65.602  1.00  0.00    -0.095 A  
BRANCH   6  10
HETATM   10  C   UNL     1      -9.002   7.554  67.662  1.00  0.00    -0.127 C  
HETATM   11  C   UNL     1      -7.404   9.103  66.497  1.00  0.00    -0.089 C  
HETATM   12  C   UNL     1      -8.622   8.813  67.350  1.00  0.00    -0.126 C  
HETATM   13  N   UNL     1      -9.393   9.900  67.780  1.00  0.00    -0.140 N  
HETATM   14  C   UNL     1     -10.690   9.732  68.273  1.00  0.00    -0.233 C  
HETATM   15  C   UNL     1     -10.185   7.376  68.558  1.00  0.00    -0.183 C  
HETATM   16  O   UNL     1     -11.507  10.657  68.296  1.00  0.00    -0.306 OA 
HETATM   17  O   UNL     1     -10.396   6.290  69.098  1.00  0.00    -0.181 OA 
HETATM   18  N   UNL     1     -11.007   8.469  68.726  1.00  0.00     0.063 N  
BRANCH  13  19
HETATM   19  C   UNL     1      -8.960  11.292  67.610  1.00  0.00    -0.142 C  
BRANCH  19  20
HETATM   20  C   UNL     1      -9.980  12.279  67.053  1.00  0.00    -0.220 A  
HETATM   21  F   UNL     1     -10.724  10.374  64.198  1.00  0.00    -0.300 F  
HETATM   22  C   UNL     1      -9.889  11.367  64.609  1.00  0.00    -0.259 C  
HETATM   23  C   UNL     1     -10.486  12.194  65.732  1.00  0.00    -0.287 A  
HETATM   24  F   UNL     1     -10.114  13.386  69.160  1.00  0.00    -0.119 F  
HETATM   25  C   UNL     1     -11.638  12.944  65.387  1.00  0.00    -0.386 A  
HETATM   26  C   UNL     1     -10.593  13.201  67.924  1.00  0.00    -0.234 A  
HETATM   27  F   UNL     1      -9.651  12.131  63.504  1.00  0.00    -0.309 F  
HETATM   28  F   UNL     1      -8.702  10.768  64.881  1.00  0.00    -0.178 F  
HETATM   29  C   UNL     1     -11.705  13.958  67.554  1.00  0.00    -0.416 A  
HETATM   30  C   UNL     1     -12.251  13.806  66.292  1.00  0.00    -0.489 A  
ENDBRANCH  19  20
ENDBRANCH  13  19
BRANCH  18  31
HETATM   31  C   UNL     1     -12.274   8.289  69.446  1.00  0.00     2.146 C  
BRANCH  31  32
HETATM   32  C   UNL     1     -12.170   8.352  71.005  1.00  0.00    -0.164 C  
BRANCH  32  33
HETATM   33  N   UNL     1     -12.634   9.637  71.595  1.00  0.00    -0.373 NA 
HETATM   34  H   UNL     1     -11.966   9.967  72.291  1.00  0.00     0.000 HD 
BRANCH  33  35
HETATM   35  C   UNL     1     -12.917  10.693  70.628  1.00  0.00    -0.264 C  
BRANCH  35  36
HETATM   36  C   UNL     1     -13.120  12.041  71.338  1.00  0.00    -0.295 C  
BRANCH  36  37
HETATM   37  C   UNL     1     -13.081  13.236  70.385  1.00  0.00     0.304 C  
HETATM   38  O   UNL     1     -13.777  15.441  71.064  1.00  0.00    -0.473 OA 
HETATM   39  C   UNL     1     -12.943  14.550  71.109  1.00  0.00    -0.346 C  
HETATM   40  O   UNL     1     -11.777  14.683  71.777  1.00  0.00    -0.318 OA 
ENDBRANCH  36  37
ENDBRANCH  35  36
ENDBRANCH  33  35
ENDBRANCH  32  33
BRANCH  32  41
HETATM   41  C   UNL     1     -10.743   8.108  71.506  1.00  0.00    -0.286 A  
HETATM   42  C   UNL     1      -9.169   6.757  72.780  1.00  0.00    -0.149 A  
HETATM   43  C   UNL     1      -8.419   8.808  71.767  1.00  0.00    -0.178 A  
HETATM   44  C   UNL     1     -10.454   6.970  72.274  1.00  0.00    -0.234 A  
HETATM   45  C   UNL     1      -9.700   9.018  71.250  1.00  0.00    -0.371 A  
HETATM   46  C   UNL     1      -8.152   7.676  72.531  1.00  0.00    -0.140 A  
ENDBRANCH  32  41
ENDBRANCH  31  32
ENDBRANCH  18  31
ENDBRANCH   6  10
ENDBRANCH   2   3
TORSDOF 11
ENDMDL
MODEL      240
REMARK 921   NORMALIZED FREE ENERGY PREDICTED BY IDOCK:   -1.26 KCAL/MOL
REMARK 922        TOTAL FREE ENERGY PREDICTED BY IDOCK:   -5.13 KCAL/MOL
REMARK 923 INTER-LIGAND FREE ENERGY PREDICTED BY IDOCK:   -4.01 KCAL/MOL
REMARK 924 INTRA-LIGAND FREE ENERGY PREDICTED BY IDOCK:   -1.12 KCAL/MOL
REMARK 927      BINDING AFFINITY PREDICTED BY RF-SCORE:    0.00 PKD
ROOT
HETATM    1  C   UNL     1      -7.855  20.328  67.963  1.00  0.00    -0.152 C  
HETATM    2  O   UNL     1      -7.518  19.767  69.236  1.00  0.00    -0.316 OA 
ENDROOT
BRANCH   2   3
HETATM    3  C   UNL     1      -7.236  18.427  69.218  1.00  0.00    -0.088 A  
HETATM    4  C   UNL     1      -8.283  17.559  68.877  1.00  0.00    -0.161 A  
HETATM    5  F   UNL     1      -9.496  18.068  68.595  1.00  0.00    -0.289 F  
HETATM    6  C   UNL     1      -8.082  16.174  68.813  1.00  0.00    -0.218 A  
HETATM    7  C   UNL     1      -6.818  15.655  69.127  1.00  0.00    -0.159 A  
HETATM    8  C   UNL     1      -5.985  17.894  69.547  1.00  0.00    -0.244 A  
HETATM    9  C   UNL     1      -5.779  16.515  69.496  1.00  0.00    -0.169 A  
BRANCH   6  10
HETATM   10  C   UNL     1      -9.162  15.270  68.365  1.00  0.00    -0.194 C  
HETATM   11  C   UNL     1      -8.781  15.784  65.935  1.00  0.00     0.009 C  
HETATM   12  C   UNL     1      -9.501  15.083  67.069  1.00  0.00    -0.229 C  
HETATM   13  N   UNL     1     -10.517  14.178  66.739  1.00  0.00    -0.275 N  
HETATM   14  C   UNL     1     -11.002  13.248  67.663  1.00  0.00    -0.262 C  
HETATM   15  C   UNL     1      -9.971  14.577  69.413  1.00  0.00     0.041 C  
HETATM   16  O   UNL     1     -11.595  12.224  67.313  1.00  0.00    -0.334 OA 
HETATM   17  O   UNL     1      -9.895  14.931  70.590  1.00  0.00     0.469 OA 
HETATM   18  N   UNL     1     -10.774  13.539  68.992  1.00  0.00    -0.197 N  
BRANCH  13  19
HETATM   19  C   UNL     1     -11.038  14.039  65.374  1.00  0.00    -0.318 C  
BRANCH  19  20
HETATM   20  C   UNL     1     -10.719  12.746  64.632  1.00  0.00    -0.361 A  
HETATM   21  F   UNL     1     -13.353  13.053  62.330  1.00  0.00     1.050 F  
HETATM   22  C   UNL     1     -13.079  12.503  63.544  1.00  0.00     0.274 C  
HETATM   23  C   UNL     1     -11.611  12.156  63.702  1.00  0.00    -0.575 A  
HETATM   24  F   UNL     1      -8.557  12.663  65.632  1.00  0.00     0.352 F  
HETATM   25  C   UNL     1     -11.130  11.141  62.836  1.00  0.00     0.520 A  
HETATM   26  C   UNL     1      -9.422  12.203  64.720  1.00  0.00     0.161 A  
HETATM   27  F   UNL     1     -13.862  11.389  63.630  1.00  0.00     0.119 F  
HETATM   28  F   UNL     1     -13.587  13.358  64.466  1.00  0.00     0.446 F  
HETATM   29  C   UNL     1      -8.978  11.178  63.884  1.00  0.00     0.002 A  
HETATM   30  C   UNL     1      -9.824  10.667  62.916  1.00  0.00    -0.271 A  
ENDBRANCH  19  20
ENDBRANCH  13  19
BRANCH  18  31
HETATM   31  C   UNL     1     -11.443  12.715  70.006  1.00  0.00    -0.013 C  
BRANCH  31  32
HETATM   32  C   UNL     1     -10.801  11.311  70.253  1.00  0.00     0.532 C  
BRANCH  32  33
HETATM   33  N   UNL     1     -10.403  10.596  69.010  1.00  0.00    -0.207 NA 
HETATM   34  H   UNL     1     -10.775  11.077  68.192  1.00  0.00     0.000 HD 
BRANCH  33  35
HETATM   35  C   UNL     1      -8.968  10.377  68.857  1.00  0.00    -0.169 C  
BRANCH  35  36
HETATM   36  C   UNL     1      -8.603   8.918  69.169  1.00  0.00    -0.134 C  
BRANCH  36  37
HETATM   37  C   UNL     1      -7.105   8.704  69.389  1.00  0.00    -0.053 C  
HETATM   38  O   UNL     1      -5.628  10.507  70.004  1.00  0.00    -0.044 OA 
HETATM   39  C   UNL     1      -6.505   9.720  70.326  1.00  0.00    -0.093 C  
HETATM   40  O   UNL     1      -6.989   9.650  71.585  1.00  0.00    -0.300 OA 
ENDBRANCH  36  37
ENDBRANCH  35  36
ENDBRANCH  33  35
ENDBRANCH  32  33
BRANCH  32  41
HETATM   41  C   UNL     1     -11.725  10.377  71.041  1.00  0.00    -0.430 A  
HETATM   42  C   UNL     1     -13.751  10.043  72.351  1.00  0.00    -0.113 A  
HETATM   43  C   UNL     1     -12.222   8.208  72.047  1.00  0.00    -0.385 A  
HETATM   44  C   UNL     1     -12.920  10.868  71.587  1.00  0.00    -0.569 A  
HETATM   45  C   UNL     1     -11.395   9.028  71.273  1.00  0.00    -0.389 A  
HETATM   46  C   UNL     1     -13.401   8.715  72.584  1.00  0.00    -0.275 A  
ENDBRANCH  32  41
ENDBRANCH  31  32
ENDBRANCH  18  31
ENDBRANCH   6  10
ENDBRANCH   2   3
TORSDOF 11
ENDMDL
MODEL      241
REMARK 921   NORMALIZED FREE ENERGY PREDICTED BY IDOCK:   -1.21 KCAL/MOL
REMARK 922        TOTAL FREE ENERGY PREDICTED BY IDOCK:   -5.05 KCAL/MOL
REMARK 923 INTER-LIGAND FREE ENERGY PREDICTED BY IDOCK:   -7.60 KCAL/MOL
REMARK 924 INTRA-LIGAND FREE ENERGY PREDICTED BY IDOCK:    2.55 KCAL/MOL
REMARK 927      BINDING AFFINITY PREDICTED BY RF-SCORE:    0.00 PKD
ROOT
HETATM    1  C   UNL     1      -6.985  13.037  69.295  1.00  0.00     0.033 C  
HETATM    2  O   UNL     1      -6.039  12.591  70.273  1.00  0.00    -0.149 OA 
ENDROOT
BRANCH   2   3
HETATM    3  C   UNL     1      -6.060  11.244  70.520  1.00  0.00    -0.070 A  
HETATM    4  C   UNL     1      -7.096  10.503  69.933  1.00  0.00    -0.145 A  
HETATM    5  F   UNL     1      -8.010  11.133  69.175  1.00  0.00    -0.139 F  
HETATM    6  C   UNL     1      -7.185   9.117  70.115  1.00  0.00    -0.070 A  
HETATM    7  C   UNL     1      -6.237   8.474  70.922  1.00  0.00    -0.036 A  
HETATM    8  C   UNL     1      -5.131  10.592  71.339  1.00  0.00    -0.085 A  
HETATM    9  C   UNL     1      -5.219   9.213  71.533  1.00  0.00    -0.046 A  
BRANCH   6  10
HETATM   10  C   UNL     1      -8.224   8.326  69.421  1.00  0.00    -0.117 C  
HETATM   11  C   UNL     1      -8.895   7.105  71.512  1.00  0.00    -0.127 C  
HETATM   12  C   UNL     1      -9.004   7.405  70.031  1.00  0.00    -0.144 C  
HETATM   13  N   UNL     1      -9.986   6.729  69.296  1.00  0.00    -0.158 N  
HETATM   14  C   UNL     1     -10.389   7.166  68.031  1.00  0.00    -0.194 C  
HETATM   15  C   UNL     1      -8.368   8.508  67.945  1.00  0.00    -0.126 C  
HETATM   16  O   UNL     1     -11.474   6.842  67.541  1.00  0.00    -0.130 OA 
HETATM   17  O   UNL     1      -7.503   9.107  67.306  1.00  0.00    -0.087 OA 
HETATM   18  N   UNL     1      -9.504   7.987  67.363  1.00  0.00    -0.146 N  
BRANCH  13  19
HETATM   19  C   UNL     1     -10.762   5.615  69.853  1.00  0.00    -0.329 C  
BRANCH  19  20
HETATM   20  C   UNL     1      -9.989   4.378  70.298  1.00  0.00    -0.248 A  
HETATM   21  F   UNL     1      -8.052   4.158  67.378  1.00  0.00    -0.095 F  
HETATM   22  C   UNL     1      -9.221   3.696  67.899  1.00  0.00    -0.176 C  
HETATM   23  C   UNL     1      -9.186   3.617  69.413  1.00  0.00    -0.225 A  
HETATM   24  F   UNL     1     -10.697   4.702  72.551  1.00  0.00    -0.250 F  
HETATM   25  C   UNL     1      -8.269   2.679  69.951  1.00  0.00    -0.064 A  
HETATM   26  C   UNL     1      -9.908   4.074  71.672  1.00  0.00    -0.183 A  
HETATM   27  F   UNL     1      -9.413   2.465  67.343  1.00  0.00    -0.196 F  
HETATM   28  F   UNL     1     -10.198   4.474  67.370  1.00  0.00    -0.209 F  
HETATM   29  C   UNL     1      -9.025   3.121  72.179  1.00  0.00    -0.136 A  
HETATM   30  C   UNL     1      -8.178   2.443  71.320  1.00  0.00    -0.070 A  
ENDBRANCH  19  20
ENDBRANCH  13  19
BRANCH  18  31
HETATM   31  C   UNL     1      -9.776   8.300  65.955  1.00  0.00    -0.030 C  
BRANCH  31  32
HETATM   32  C   UNL     1     -10.208   9.775  65.671  1.00  0.00    -0.108 C  
BRANCH  32  33
HETATM   33  N   UNL     1      -9.197  10.574  64.927  1.00  0.00    -0.199 NA 
HETATM   34  H   UNL     1      -8.358  10.017  64.764  1.00  0.00     0.000 HD 
BRANCH  33  35
HETATM   35  C   UNL     1      -9.669  11.153  63.673  1.00  0.00    -0.317 C  
BRANCH  35  36
HETATM   36  C   UNL     1      -9.932  12.658  63.834  1.00  0.00    -0.121 C  
BRANCH  36  37
HETATM   37  C   UNL     1     -11.187  12.966  64.652  1.00  0.00    -0.353 C  
HETATM   38  O   UNL     1     -12.100  15.191  64.813  1.00  0.00    -0.309 OA 
HETATM   39  C   UNL     1     -11.924  14.181  64.150  1.00  0.00    -0.393 C  
HETATM   40  O   UNL     1     -12.427  14.035  62.905  1.00  0.00    -0.515 OA 
ENDBRANCH  36  37
ENDBRANCH  35  36
ENDBRANCH  33  35
ENDBRANCH  32  33
BRANCH  32  41
HETATM   41  C   UNL     1     -10.543  10.543  66.954  1.00  0.00    -0.303 A  
HETATM   42  C   UNL     1     -10.162  12.452  68.418  1.00  0.00    -0.227 A  
HETATM   43  C   UNL     1     -11.705  10.731  69.093  1.00  0.00    -0.368 A  
HETATM   44  C   UNL     1      -9.904  11.762  67.230  1.00  0.00    -0.198 A  
HETATM   45  C   UNL     1     -11.458  10.045  67.901  1.00  0.00     0.173 A  
HETATM   46  C   UNL     1     -11.058  11.936  69.351  1.00  0.00    -0.218 A  
ENDBRANCH  32  41
ENDBRANCH  31  32
ENDBRANCH  18  31
ENDBRANCH   6  10
ENDBRANCH   2   3
TORSDOF 11
ENDMDL
MODEL      242
REMARK 921   NORMALIZED FREE ENERGY PREDICTED BY IDOCK:   -1.15 KCAL/MOL
REMARK 922        TOTAL FREE ENERGY PREDICTED BY IDOCK:   -4.94 KCAL/MOL
REMARK 923 INTER-LIGAND FREE ENERGY PREDICTED BY IDOCK:   -3.05 KCAL/MOL
REMARK 924 INTRA-LIGAND FREE ENERGY PREDICTED BY IDOCK:   -1.90 KCAL/MOL
REMARK 927      BINDING AFFINITY PREDICTED BY RF-SCORE:    0.00 PKD
ROOT
HETATM    1  C   UNL     1      -7.121   4.039  69.619  1.00  0.00    -0.046 C  
HETATM    2  O   UNL     1      -6.073   4.997  69.434  1.00  0.00    -0.020 OA 
ENDROOT
BRANCH   2   3
HETATM    3  C   UNL     1      -6.353   6.253  69.901  1.00  0.00    -0.035 A  
HETATM    4  C   UNL     1      -7.169   7.065  69.099  1.00  0.00    -0.090 A  
HETATM    5  F   UNL     1      -7.626   6.588  67.927  1.00  0.00    -0.093 F  
HETATM    6  C   UNL     1      -7.525   8.358  69.505  1.00  0.00    -0.088 A  
HETATM    7  C   UNL     1      -7.027   8.849  70.721  1.00  0.00    -0.074 A  
HETATM    8  C   UNL     1      -5.848   6.764  71.102  1.00  0.00    -0.028 A  
HETATM    9  C   UNL     1      -6.190   8.054  71.509  1.00  0.00    -0.036 A  
BRANCH   6  10
HETATM   10  C   UNL     1      -8.458   9.176  68.703  1.00  0.00    -0.127 C  
HETATM   11  C   UNL     1      -6.885   9.315  66.749  1.00  0.00    -0.080 C  
HETATM   12  C   UNL     1      -8.188   9.627  67.458  1.00  0.00    -0.114 C  
HETATM   13  N   UNL     1      -9.151  10.367  66.761  1.00  0.00    -0.143 N  
HETATM   14  C   UNL     1     -10.483  10.419  67.181  1.00  0.00    -0.256 C  
HETATM   15  C   UNL     1      -9.748   9.585  69.338  1.00  0.00    -0.183 C  
HETATM   16  O   UNL     1     -11.400  10.728  66.414  1.00  0.00    -0.065 OA 
HETATM   17  O   UNL     1      -9.914   9.449  70.550  1.00  0.00    -0.230 OA 
HETATM   18  N   UNL     1     -10.716  10.099  68.502  1.00  0.00    -0.218 N  
BRANCH  13  19
HETATM   19  C   UNL     1      -8.871  11.014  65.474  1.00  0.00    -0.169 C  
BRANCH  19  20
HETATM   20  C   UNL     1      -9.109  12.517  65.380  1.00  0.00     0.490 A  
HETATM   21  F   UNL     1     -12.303  12.234  63.949  1.00  0.00    -0.472 F  
HETATM   22  C   UNL     1     -10.997  12.351  63.586  1.00  0.00    -0.470 C  
HETATM   23  C   UNL     1     -10.171  13.079  64.629  1.00  0.00    -0.324 A  
HETATM   24  F   UNL     1      -7.309  12.933  66.886  1.00  0.00    -0.091 F  
HETATM   25  C   UNL     1     -10.512  14.440  64.832  1.00  0.00    -0.448 A  
HETATM   26  C   UNL     1      -8.373  13.384  66.211  1.00  0.00     0.881 A  
HETATM   27  F   UNL     1     -11.002  13.026  62.400  1.00  0.00     1.304 F  
HETATM   28  F   UNL     1     -10.583  11.098  63.272  1.00  0.00    -0.393 F  
HETATM   29  C   UNL     1      -8.700  14.731  66.369  1.00  0.00    -0.062 A  
HETATM   30  C   UNL     1      -9.794  15.254  65.703  1.00  0.00    -0.383 A  
ENDBRANCH  19  20
ENDBRANCH  13  19
BRANCH  18  31
HETATM   31  C   UNL     1     -12.056  10.342  69.048  1.00  0.00     0.203 C  
BRANCH  31  32
HETATM   32  C   UNL     1     -12.146  11.488  70.109  1.00  0.00    -0.351 C  
BRANCH  32  33
HETATM   33  N   UNL     1     -13.491  11.641  70.728  1.00  0.00     0.677 NA 
HETATM   34  H   UNL     1     -14.109  10.892  70.418  1.00  0.00     0.000 HD 
BRANCH  33  35
HETATM   35  C   UNL     1     -13.493  11.725  72.186  1.00  0.00    -0.168 C  
BRANCH  35  36
HETATM   36  C   UNL     1     -13.058  13.123  72.650  1.00  0.00    -0.175 C  
BRANCH  36  37
HETATM   37  C   UNL     1     -14.173  14.165  72.553  1.00  0.00    -0.343 C  
HETATM   38  O   UNL     1     -14.044  16.293  73.677  1.00  0.00    -0.184 OA 
HETATM   39  C   UNL     1     -13.675  15.571  72.764  1.00  0.00    -0.553 C  
HETATM   40  O   UNL     1     -12.812  15.990  71.814  1.00  0.00    -0.444 OA 
ENDBRANCH  36  37
ENDBRANCH  35  36
ENDBRANCH  33  35
ENDBRANCH  32  33
BRANCH  32  41
HETATM   41  C   UNL     1     -11.751  12.851  69.532  1.00  0.00    -0.387 A  
HETATM   42  C   UNL     1     -10.315  14.817  69.589  1.00  0.00    -0.084 A  
HETATM   43  C   UNL     1     -12.136  14.725  68.016  1.00  0.00    -0.163 A  
HETATM   44  C   UNL     1     -10.660  13.551  70.070  1.00  0.00     0.948 A  
HETATM   45  C   UNL     1     -12.476  13.454  68.487  1.00  0.00     0.332 A  
HETATM   46  C   UNL     1     -11.053  15.406  68.565  1.00  0.00    -0.295 A  
ENDBRANCH  32  41
ENDBRANCH  31  32
ENDBRANCH  18  31
ENDBRANCH   6  10
ENDBRANCH   2   3
TORSDOF 11
ENDMDL
MODEL      243
REMARK 921   NORMALIZED FREE ENERGY PREDICTED BY IDOCK:   -1.13 KCAL/MOL
REMARK 922        TOTAL FREE ENERGY PREDICTED BY IDOCK:   -4.92 KCAL/MOL
REMARK 923 INTER-LIGAND FREE ENERGY PREDICTED BY IDOCK:   -5.31 KCAL/MOL
REMARK 924 INTRA-LIGAND FREE ENERGY PREDICTED BY IDOCK:    0.39 KCAL/MOL
REMARK 927      BINDING AFFINITY PREDICTED BY RF-SCORE:    0.00 PKD
ROOT
HETATM    1  C   UNL     1      -6.894   3.746  69.281  1.00  0.00    -0.045 C  
HETATM    2  O   UNL     1      -5.703   4.283  69.865  1.00  0.00    -0.015 OA 
ENDROOT
BRANCH   2   3
HETATM    3  C   UNL     1      -5.792   5.594  70.251  1.00  0.00    -0.024 A  
HETATM    4  C   UNL     1      -6.506   6.460  69.410  1.00  0.00    -0.040 A  
HETATM    5  F   UNL     1      -7.055   5.979  68.280  1.00  0.00    -0.070 F  
HETATM    6  C   UNL     1      -6.667   7.814  69.734  1.00  0.00    -0.039 A  
HETATM    7  C   UNL     1      -6.074   8.307  70.905  1.00  0.00    -0.033 A  
HETATM    8  C   UNL     1      -5.190   6.105  71.407  1.00  0.00    -0.018 A  
HETATM    9  C   UNL     1      -5.338   7.454  71.732  1.00  0.00    -0.036 A  
BRANCH   6  10
HETATM   10  C   UNL     1      -7.496   8.703  68.894  1.00  0.00    -0.090 C  
HETATM   11  C   UNL     1      -5.631   9.148  67.270  1.00  0.00    -0.041 C  
HETATM   12  C   UNL     1      -7.048   9.323  67.779  1.00  0.00    -0.082 C  
HETATM   13  N   UNL     1      -7.920  10.120  67.028  1.00  0.00    -0.109 N  
HETATM   14  C   UNL     1      -9.304  10.076  67.217  1.00  0.00    -0.148 C  
HETATM   15  C   UNL     1      -8.892   8.985  69.345  1.00  0.00    -0.144 C  
HETATM   16  O   UNL     1     -10.096  10.456  66.350  1.00  0.00    -0.212 OA 
HETATM   17  O   UNL     1      -9.249   8.685  70.485  1.00  0.00    -0.157 OA 
HETATM   18  N   UNL     1      -9.734   9.576  68.428  1.00  0.00    -0.152 N  
BRANCH  13  19
HETATM   19  C   UNL     1      -7.464  10.940  65.899  1.00  0.00    -0.048 C  
BRANCH  19  20
HETATM   20  C   UNL     1      -8.139  10.711  64.551  1.00  0.00     0.031 A  
HETATM   21  F   UNL     1      -7.134   7.358  64.269  1.00  0.00    -0.055 F  
HETATM   22  C   UNL     1      -6.724   8.609  63.926  1.00  0.00    -0.083 C  
HETATM   23  C   UNL     1      -7.885   9.570  63.751  1.00  0.00    -0.133 A  
HETATM   24  F   UNL     1      -9.436  12.693  64.823  1.00  0.00    -0.046 F  
HETATM   25  C   UNL     1      -8.760   9.274  62.675  1.00  0.00    -0.225 A  
HETATM   26  C   UNL     1      -9.194  11.558  64.156  1.00  0.00     0.090 A  
HETATM   27  F   UNL     1      -6.023   8.463  62.764  1.00  0.00    -0.078 F  
HETATM   28  F   UNL     1      -5.796   8.964  64.850  1.00  0.00    -0.058 F  
HETATM   29  C   UNL     1     -10.022  11.270  63.071  1.00  0.00    -0.345 A  
HETATM   30  C   UNL     1      -9.826  10.107  62.347  1.00  0.00     0.177 A  
ENDBRANCH  19  20
ENDBRANCH  13  19
BRANCH  18  31
HETATM   31  C   UNL     1     -11.157   9.704  68.764  1.00  0.00    -0.049 C  
BRANCH  31  32
HETATM   32  C   UNL     1     -11.517  10.909  69.693  1.00  0.00    -0.305 C  
BRANCH  32  33
HETATM   33  N   UNL     1     -12.912  10.884  70.211  1.00  0.00    -0.197 NA 
HETATM   34  H   UNL     1     -13.355   9.992  69.990  1.00  0.00     0.000 HD 
BRANCH  33  35
HETATM   35  C   UNL     1     -13.047  11.172  71.636  1.00  0.00    -0.424 C  
BRANCH  35  36
HETATM   36  C   UNL     1     -12.758  12.654  71.920  1.00  0.00    -0.186 C  
BRANCH  36  37
HETATM   37  C   UNL     1     -13.825  13.595  71.359  1.00  0.00    -0.043 C  
HETATM   38  O   UNL     1     -14.028  15.884  72.085  1.00  0.00    -0.381 OA 
HETATM   39  C   UNL     1     -13.421  15.044  71.439  1.00  0.00    -0.446 C  
HETATM   40  O   UNL     1     -12.346  15.351  70.681  1.00  0.00    -0.344 OA 
ENDBRANCH  36  37
ENDBRANCH  35  36
ENDBRANCH  33  35
ENDBRANCH  32  33
BRANCH  32  41
HETATM   41  C   UNL     1     -11.310  12.261  69.004  1.00  0.00    -0.333 A  
HETATM   42  C   UNL     1     -12.182  14.071  67.628  1.00  0.00    -0.235 A  
HETATM   43  C   UNL     1      -9.879  14.122  68.331  1.00  0.00    -0.231 A  
HETATM   44  C   UNL     1     -12.367  12.862  68.304  1.00  0.00     0.220 A  
HETATM   45  C   UNL     1     -10.065  12.918  69.017  1.00  0.00     0.169 A  
HETATM   46  C   UNL     1     -10.939  14.699  67.638  1.00  0.00    -0.296 A  
ENDBRANCH  32  41
ENDBRANCH  31  32
ENDBRANCH  18  31
ENDBRANCH   6  10
ENDBRANCH   2   3
TORSDOF 11
ENDMDL
MODEL      244
REMARK 921   NORMALIZED FREE ENERGY PREDICTED BY IDOCK:   -1.01 KCAL/MOL
REMARK 922        TOTAL FREE ENERGY PREDICTED BY IDOCK:   -4.71 KCAL/MOL
REMARK 923 INTER-LIGAND FREE ENERGY PREDICTED BY IDOCK:   -7.85 KCAL/MOL
REMARK 924 INTRA-LIGAND FREE ENERGY PREDICTED BY IDOCK:    3.14 KCAL/MOL
REMARK 927      BINDING AFFINITY PREDICTED BY RF-SCORE:    0.00 PKD
ROOT
HETATM    1  C   UNL     1      -8.795  15.466  69.260  1.00  0.00    -0.258 C  
HETATM    2  O   UNL     1      -7.382  15.389  69.045  1.00  0.00    -0.132 OA 
ENDROOT
BRANCH   2   3
HETATM    3  C   UNL     1      -6.798  14.226  69.471  1.00  0.00    -0.110 A  
HETATM    4  C   UNL     1      -7.402  13.025  69.073  1.00  0.00     0.057 A  
HETATM    5  F   UNL     1      -8.510  13.064  68.311  1.00  0.00    -0.151 F  
HETATM    6  C   UNL     1      -6.863  11.786  69.445  1.00  0.00    -0.067 A  
HETATM    7  C   UNL     1      -5.719  11.759  70.254  1.00  0.00    -0.155 A  
HETATM    8  C   UNL     1      -5.668  14.184  70.295  1.00  0.00    -0.136 A  
HETATM    9  C   UNL     1      -5.130  12.954  70.678  1.00  0.00    -0.116 A  
BRANCH   6  10
HETATM   10  C   UNL     1      -7.448  10.523  68.947  1.00  0.00    -0.104 C  
HETATM   11  C   UNL     1      -7.358   9.424  71.205  1.00  0.00     0.008 C  
HETATM   12  C   UNL     1      -7.674   9.440  69.723  1.00  0.00    -0.110 C  
HETATM   13  N   UNL     1      -8.265   8.298  69.168  1.00  0.00    -0.120 N  
HETATM   14  C   UNL     1      -8.892   8.328  67.919  1.00  0.00    -0.138 C  
HETATM   15  C   UNL     1      -7.740  10.419  67.486  1.00  0.00    -0.094 C  
HETATM   16  O   UNL     1      -9.725   7.481  67.584  1.00  0.00    -0.139 OA 
HETATM   17  O   UNL     1      -7.290  11.255  66.702  1.00  0.00    -0.142 OA 
HETATM   18  N   UNL     1      -8.531   9.364  67.084  1.00  0.00    -0.127 N  
BRANCH  13  19
HETATM   19  C   UNL     1      -8.400   7.038  69.910  1.00  0.00    -0.139 C  
BRANCH  19  20
HETATM   20  C   UNL     1      -8.689   7.134  71.403  1.00  0.00    -0.124 A  
HETATM   21  F   UNL     1      -5.485   6.104  72.405  1.00  0.00    -0.027 F  
HETATM   22  C   UNL     1      -6.715   5.590  72.132  1.00  0.00    -0.066 C  
HETATM   23  C   UNL     1      -7.827   6.589  72.387  1.00  0.00    -0.101 A  
HETATM   24  F   UNL     1     -10.643   8.431  70.979  1.00  0.00    -0.218 F  
HETATM   25  C   UNL     1      -7.997   6.975  73.741  1.00  0.00    -0.127 A  
HETATM   26  C   UNL     1      -9.748   7.949  71.849  1.00  0.00    -0.177 A  
HETATM   27  F   UNL     1      -6.843   4.492  72.932  1.00  0.00    -0.048 F  
HETATM   28  F   UNL     1      -6.641   5.096  70.871  1.00  0.00    -0.030 F  
HETATM   29  C   UNL     1      -9.921   8.289  73.191  1.00  0.00    -0.115 A  
HETATM   30  C   UNL     1      -9.023   7.828  74.138  1.00  0.00    -0.204 A  
ENDBRANCH  19  20
ENDBRANCH  13  19
BRANCH  18  31
HETATM   31  C   UNL     1      -8.992   9.325  65.691  1.00  0.00    -0.199 C  
BRANCH  31  32
HETATM   32  C   UNL     1      -9.977  10.469  65.283  1.00  0.00    -0.299 C  
BRANCH  32  33
HETATM   33  N   UNL     1      -9.374  11.508  64.404  1.00  0.00    -0.420 NA 
HETATM   34  H   UNL     1      -8.820  11.069  63.669  1.00  0.00     0.000 HD 
BRANCH  33  35
HETATM   35  C   UNL     1     -10.324  12.452  63.823  1.00  0.00    -0.425 C  
BRANCH  35  36
HETATM   36  C   UNL     1     -11.486  11.707  63.148  1.00  0.00    -0.125 C  
BRANCH  36  37
HETATM   37  C   UNL     1     -12.861  12.168  63.634  1.00  0.00    -0.464 C  
HETATM   38  O   UNL     1     -13.132  14.028  65.143  1.00  0.00    -0.776 OA 
HETATM   39  C   UNL     1     -12.883  13.625  64.017  1.00  0.00     0.327 C  
HETATM   40  O   UNL     1     -12.653  14.462  62.983  1.00  0.00    -0.258 OA 
ENDBRANCH  36  37
ENDBRANCH  35  36
ENDBRANCH  33  35
ENDBRANCH  32  33
BRANCH  32  41
HETATM   41  C   UNL     1     -10.573  11.188  66.498  1.00  0.00    -0.314 A  
HETATM   42  C   UNL     1     -11.876  11.108  68.553  1.00  0.00    -0.330 A  
HETATM   43  C   UNL     1     -11.065  13.227  67.747  1.00  0.00    -0.289 A  
HETATM   44  C   UNL     1     -11.284  10.462  67.465  1.00  0.00    -0.254 A  
HETATM   45  C   UNL     1     -10.463  12.582  66.664  1.00  0.00    -0.252 A  
HETATM   46  C   UNL     1     -11.770  12.489  68.693  1.00  0.00    -0.368 A  
ENDBRANCH  32  41
ENDBRANCH  31  32
ENDBRANCH  18  31
ENDBRANCH   6  10
ENDBRANCH   2   3
TORSDOF 11
ENDMDL
MODEL      245
REMARK 921   NORMALIZED FREE ENERGY PREDICTED BY IDOCK:   -0.81 KCAL/MOL
REMARK 922        TOTAL FREE ENERGY PREDICTED BY IDOCK:   -4.39 KCAL/MOL
REMARK 923 INTER-LIGAND FREE ENERGY PREDICTED BY IDOCK:   -4.06 KCAL/MOL
REMARK 924 INTRA-LIGAND FREE ENERGY PREDICTED BY IDOCK:   -0.33 KCAL/MOL
REMARK 927      BINDING AFFINITY PREDICTED BY RF-SCORE:    0.00 PKD
ROOT
HETATM    1  C   UNL     1     -12.649  15.137  63.954  1.00  0.00     0.490 C  
HETATM    2  O   UNL     1     -11.349  15.731  64.037  1.00  0.00    -0.208 OA 
ENDROOT
BRANCH   2   3
HETATM    3  C   UNL     1     -10.599  15.325  65.109  1.00  0.00    -0.430 A  
HETATM    4  C   UNL     1     -10.543  13.948  65.364  1.00  0.00    -0.335 A  
HETATM    5  F   UNL     1     -11.219  13.101  64.567  1.00  0.00    -0.314 F  
HETATM    6  C   UNL     1      -9.785  13.440  66.427  1.00  0.00    -0.282 A  
HETATM    7  C   UNL     1      -9.100  14.335  67.262  1.00  0.00    -0.221 A  
HETATM    8  C   UNL     1      -9.926  16.208  65.962  1.00  0.00    -0.373 A  
HETATM    9  C   UNL     1      -9.177  15.711  67.028  1.00  0.00    -0.239 A  
BRANCH   6  10
HETATM   10  C   UNL     1      -9.653  11.983  66.638  1.00  0.00    -0.225 C  
HETATM   11  C   UNL     1     -12.029  11.735  67.417  1.00  0.00    -0.050 C  
HETATM   12  C   UNL     1     -10.651  11.193  67.092  1.00  0.00    -0.244 C  
HETATM   13  N   UNL     1     -10.442   9.815  67.227  1.00  0.00    -0.255 N  
HETATM   14  C   UNL     1      -9.342   9.178  66.645  1.00  0.00    -0.177 C  
HETATM   15  C   UNL     1      -8.314  11.363  66.402  1.00  0.00    -0.140 C  
HETATM   16  O   UNL     1      -9.329   7.964  66.423  1.00  0.00    -0.182 OA 
HETATM   17  O   UNL     1      -7.316  12.072  66.272  1.00  0.00     0.261 OA 
HETATM   18  N   UNL     1      -8.271   9.987  66.329  1.00  0.00    -0.121 N  
BRANCH  13  19
HETATM   19  C   UNL     1     -11.426   8.924  67.854  1.00  0.00     1.234 C  
BRANCH  19  20
HETATM   20  C   UNL     1     -11.018   8.234  69.150  1.00  0.00     0.066 A  
HETATM   21  F   UNL     1     -12.770  10.446  71.241  1.00  0.00    -0.387 F  
HETATM   22  C   UNL     1     -11.538  10.278  70.687  1.00  0.00    -0.347 C  
HETATM   23  C   UNL     1     -11.217   8.819  70.425  1.00  0.00    -0.247 A  
HETATM   24  F   UNL     1     -10.319   6.300  67.944  1.00  0.00    -0.133 F  
HETATM   25  C   UNL     1     -11.099   8.007  71.581  1.00  0.00    -0.300 A  
HETATM   26  C   UNL     1     -10.600   6.889  69.113  1.00  0.00    -0.223 A  
HETATM   27  F   UNL     1     -10.657  10.828  71.571  1.00  0.00     1.086 F  
HETATM   28  F   UNL     1     -11.502  11.096  69.604  1.00  0.00    -0.263 F  
HETATM   29  C   UNL     1     -10.453   6.116  70.264  1.00  0.00    -0.288 A  
HETATM   30  C   UNL     1     -10.736   6.666  71.502  1.00  0.00    -0.263 A  
ENDBRANCH  19  20
ENDBRANCH  13  19
BRANCH  18  31
HETATM   31  C   UNL     1      -7.016   9.347  65.917  1.00  0.00    -0.090 C  
BRANCH  31  32
HETATM   32  C   UNL     1      -6.258   8.578  67.048  1.00  0.00    -0.056 C  
BRANCH  32  33
HETATM   33  N   UNL     1      -6.847   7.254  67.385  1.00  0.00    -0.074 NA 
HETATM   34  H   UNL     1      -7.073   6.740  66.533  1.00  0.00     0.000 HD 
BRANCH  33  35
HETATM   35  C   UNL     1      -6.036   6.425  68.272  1.00  0.00    -0.027 C  
BRANCH  35  36
HETATM   36  C   UNL     1      -6.919   5.707  69.304  1.00  0.00    -0.063 C  
BRANCH  36  37
HETATM   37  C   UNL     1      -7.077   4.212  69.026  1.00  0.00    -0.051 C  
HETATM   38  O   UNL     1      -9.086   3.289  68.067  1.00  0.00    -0.132 OA 
HETATM   39  C   UNL     1      -8.056   3.927  67.917  1.00  0.00    -0.088 C  
HETATM   40  O   UNL     1      -7.665   4.399  66.713  1.00  0.00    -0.092 OA 
ENDBRANCH  36  37
ENDBRANCH  35  36
ENDBRANCH  33  35
ENDBRANCH  32  33
BRANCH  32  41
HETATM   41  C   UNL     1      -6.171   9.384  68.347  1.00  0.00    -0.052 A  
HETATM   42  C   UNL     1      -7.057   9.909  70.554  1.00  0.00    -0.110 A  
HETATM   43  C   UNL     1      -5.186  11.162  69.700  1.00  0.00    -0.042 A  
HETATM   44  C   UNL     1      -7.090   9.149  69.382  1.00  0.00    -0.053 A  
HETATM   45  C   UNL     1      -5.210  10.396  68.531  1.00  0.00    -0.038 A  
HETATM   46  C   UNL     1      -6.109  10.917  70.713  1.00  0.00     0.018 A  
ENDBRANCH  32  41
ENDBRANCH  31  32
ENDBRANCH  18  31
ENDBRANCH   6  10
ENDBRANCH   2   3
TORSDOF 11
ENDMDL
MODEL      246
REMARK 921   NORMALIZED FREE ENERGY PREDICTED BY IDOCK:   -0.49 KCAL/MOL
REMARK 922        TOTAL FREE ENERGY PREDICTED BY IDOCK:   -3.87 KCAL/MOL
REMARK 923 INTER-LIGAND FREE ENERGY PREDICTED BY IDOCK:   -8.26 KCAL/MOL
REMARK 924 INTRA-LIGAND FREE ENERGY PREDICTED BY IDOCK:    4.39 KCAL/MOL
REMARK 927      BINDING AFFINITY PREDICTED BY RF-SCORE:    0.00 PKD
ROOT
HETATM    1  C   UNL     1     -14.013   7.485  72.236  1.00  0.00     0.067 C  
HETATM    2  O   UNL     1     -13.130   8.046  73.212  1.00  0.00     0.598 OA 
ENDROOT
BRANCH   2   3
HETATM    3  C   UNL     1     -11.879   8.352  72.747  1.00  0.00    -0.164 A  
HETATM    4  C   UNL     1     -11.803   9.092  71.559  1.00  0.00    -0.358 A  
HETATM    5  F   UNL     1     -12.937   9.457  70.935  1.00  0.00    -0.317 F  
HETATM    6  C   UNL     1     -10.566   9.468  71.019  1.00  0.00    -0.392 A  
HETATM    7  C   UNL     1      -9.390   9.066  71.669  1.00  0.00    -0.254 A  
HETATM    8  C   UNL     1     -10.697   7.941  73.375  1.00  0.00    -0.065 A  
HETATM    9  C   UNL     1      -9.461   8.303  72.839  1.00  0.00    -0.321 A  
BRANCH   6  10
HETATM   10  C   UNL     1     -10.490  10.326  69.818  1.00  0.00    -0.300 C  
HETATM   11  C   UNL     1     -12.297  11.871  70.630  1.00  0.00    -0.405 C  
HETATM   12  C   UNL     1     -11.268  11.413  69.617  1.00  0.00    -0.230 C  
HETATM   13  N   UNL     1     -11.099  12.186  68.461  1.00  0.00    -0.234 N  
HETATM   14  C   UNL     1      -9.973  12.050  67.645  1.00  0.00    -0.191 C  
HETATM   15  C   UNL     1      -9.545   9.924  68.733  1.00  0.00    -0.160 C  
HETATM   16  O   UNL     1      -9.615  12.940  66.868  1.00  0.00    -0.226 OA 
HETATM   17  O   UNL     1      -9.034   8.803  68.739  1.00  0.00    -0.137 OA 
HETATM   18  N   UNL     1      -9.279  10.864  67.761  1.00  0.00    -0.151 N  
BRANCH  13  19
HETATM   19  C   UNL     1     -12.005  13.284  68.106  1.00  0.00    -0.304 C  
BRANCH  19  20
HETATM   20  C   UNL     1     -11.606  14.168  66.930  1.00  0.00    -0.410 A  
HETATM   21  F   UNL     1      -9.142  15.938  68.699  1.00  0.00    -0.176 F  
HETATM   22  C   UNL     1     -10.464  16.008  68.388  1.00  0.00    -0.263 C  
HETATM   23  C   UNL     1     -10.787  15.315  67.077  1.00  0.00    -0.321 A  
HETATM   24  F   UNL     1     -12.726  12.714  65.409  1.00  0.00    -0.526 F  
HETATM   25  C   UNL     1     -10.212  15.903  65.922  1.00  0.00    -0.373 A  
HETATM   26  C   UNL     1     -11.895  13.742  65.619  1.00  0.00    -0.365 A  
HETATM   27  F   UNL     1     -10.760  17.339  68.329  1.00  0.00    -0.337 F  
HETATM   28  F   UNL     1     -11.129  15.551  69.478  1.00  0.00    -0.223 F  
HETATM   29  C   UNL     1     -11.350  14.357  64.492  1.00  0.00    -0.328 A  
HETATM   30  C   UNL     1     -10.478  15.421  64.644  1.00  0.00    -0.010 A  
ENDBRANCH  19  20
ENDBRANCH  13  19
BRANCH  18  31
HETATM   31  C   UNL     1      -8.222  10.580  66.782  1.00  0.00    -0.126 C  
BRANCH  31  32
HETATM   32  C   UNL     1      -8.520   9.398  65.803  1.00  0.00    -0.132 C  
BRANCH  32  33
HETATM   33  N   UNL     1      -8.405   8.049  66.422  1.00  0.00    -0.118 NA 
HETATM   34  H   UNL     1      -8.648   8.094  67.411  1.00  0.00     0.000 HD 
BRANCH  33  35
HETATM   35  C   UNL     1      -9.175   7.000  65.761  1.00  0.00     0.137 C  
BRANCH  35  36
HETATM   36  C   UNL     1      -9.429   5.826  66.720  1.00  0.00    -0.154 C  
BRANCH  36  37
HETATM   37  C   UNL     1      -9.891   4.555  66.007  1.00  0.00    -0.240 C  
HETATM   38  O   UNL     1      -8.561   2.546  65.973  1.00  0.00    -0.102 OA 
HETATM   39  C   UNL     1      -9.286   3.307  66.594  1.00  0.00    -0.138 C  
HETATM   40  O   UNL     1      -9.662   3.069  67.870  1.00  0.00    -0.136 OA 
ENDBRANCH  36  37
ENDBRANCH  35  36
ENDBRANCH  33  35
ENDBRANCH  32  33
BRANCH  32  41
HETATM   41  C   UNL     1      -7.608   9.415  64.572  1.00  0.00    -0.110 A  
HETATM   42  C   UNL     1      -6.494   8.216  62.769  1.00  0.00    -0.086 A  
HETATM   43  C   UNL     1      -6.091  10.573  63.050  1.00  0.00    -0.115 A  
HETATM   44  C   UNL     1      -7.362   8.229  63.864  1.00  0.00    -0.100 A  
HETATM   45  C   UNL     1      -6.967  10.591  64.139  1.00  0.00     0.125 A  
HETATM   46  C   UNL     1      -5.856   9.386  62.363  1.00  0.00    -0.089 A  
ENDBRANCH  32  41
ENDBRANCH  31  32
ENDBRANCH  18  31
ENDBRANCH   6  10
ENDBRANCH   2   3
TORSDOF 11
ENDMDL
MODEL      247
REMARK 921   NORMALIZED FREE ENERGY PREDICTED BY IDOCK:   -0.37 KCAL/MOL
REMARK 922        TOTAL FREE ENERGY PREDICTED BY IDOCK:   -3.66 KCAL/MOL
REMARK 923 INTER-LIGAND FREE ENERGY PREDICTED BY IDOCK:   -3.60 KCAL/MOL
REMARK 924 INTRA-LIGAND FREE ENERGY PREDICTED BY IDOCK:   -0.06 KCAL/MOL
REMARK 927      BINDING AFFINITY PREDICTED BY RF-SCORE:    0.00 PKD
ROOT
HETATM    1  C   UNL     1     -11.234  17.196  70.779  1.00  0.00     1.033 C  
HETATM    2  O   UNL     1     -10.267  16.282  70.253  1.00  0.00     0.002 OA 
ENDROOT
BRANCH   2   3
HETATM    3  C   UNL     1     -10.738  15.445  69.276  1.00  0.00    -0.251 A  
HETATM    4  C   UNL     1     -10.031  14.253  69.061  1.00  0.00    -0.097 A  
HETATM    5  F   UNL     1      -8.940  13.990  69.803  1.00  0.00     0.508 F  
HETATM    6  C   UNL     1     -10.451  13.328  68.097  1.00  0.00    -0.251 A  
HETATM    7  C   UNL     1     -11.579  13.622  67.318  1.00  0.00    -0.387 A  
HETATM    8  C   UNL     1     -11.850  15.735  68.478  1.00  0.00    -0.233 A  
HETATM    9  C   UNL     1     -12.269  14.823  67.509  1.00  0.00     0.013 A  
BRANCH   6  10
HETATM   10  C   UNL     1      -9.759  12.032  67.936  1.00  0.00    -0.194 C  
HETATM   11  C   UNL     1     -11.202  10.885  69.643  1.00  0.00    -0.348 C  
HETATM   12  C   UNL     1     -10.076  10.916  68.629  1.00  0.00    -0.191 C  
HETATM   13  N   UNL     1      -9.385   9.723  68.383  1.00  0.00    -0.133 N  
HETATM   14  C   UNL     1      -8.577   9.561  67.254  1.00  0.00    -0.128 C  
HETATM   15  C   UNL     1      -8.594  11.975  67.001  1.00  0.00    -0.185 C  
HETATM   16  O   UNL     1      -8.276   8.447  66.818  1.00  0.00    -0.100 OA 
HETATM   17  O   UNL     1      -8.091  13.014  66.573  1.00  0.00     0.214 OA 
HETATM   18  N   UNL     1      -8.141  10.722  66.650  1.00  0.00    -0.136 N  
BRANCH  13  19
HETATM   19  C   UNL     1      -9.572   8.518  69.201  1.00  0.00    -0.167 C  
BRANCH  19  20
HETATM   20  C   UNL     1      -9.588   7.177  68.477  1.00  0.00    -0.139 A  
HETATM   21  F   UNL     1      -8.051   5.399  71.086  1.00  0.00    -0.100 F  
HETATM   22  C   UNL     1      -7.735   6.082  69.953  1.00  0.00    -0.092 C  
HETATM   23  C   UNL     1      -8.854   6.053  68.930  1.00  0.00    -0.120 A  
HETATM   24  F   UNL     1     -11.171   8.006  66.900  1.00  0.00    -0.225 F  
HETATM   25  C   UNL     1      -9.152   4.775  68.393  1.00  0.00    -0.148 A  
HETATM   26  C   UNL     1     -10.504   6.972  67.426  1.00  0.00    -0.273 A  
HETATM   27  F   UNL     1      -6.605   5.490  69.468  1.00  0.00    -0.041 F  
HETATM   28  F   UNL     1      -7.336   7.314  70.358  1.00  0.00    -0.071 F  
HETATM   29  C   UNL     1     -10.757   5.712  66.885  1.00  0.00    -0.350 A  
HETATM   30  C   UNL     1     -10.104   4.603  67.392  1.00  0.00    -0.150 A  
ENDBRANCH  19  20
ENDBRANCH  13  19
BRANCH  18  31
HETATM   31  C   UNL     1      -7.123  10.615  65.597  1.00  0.00    -0.076 C  
BRANCH  31  32
HETATM   32  C   UNL     1      -5.711  10.148  66.079  1.00  0.00    -0.068 C  
BRANCH  32  33
HETATM   33  N   UNL     1      -5.361   8.756  65.684  1.00  0.00    -0.034 NA 
HETATM   34  H   UNL     1      -5.378   8.144  66.500  1.00  0.00     0.000 HD 
BRANCH  33  35
HETATM   35  C   UNL     1      -6.181   8.194  64.615  1.00  0.00    -0.056 C  
BRANCH  35  36
HETATM   36  C   UNL     1      -6.365   6.681  64.810  1.00  0.00    -0.038 C  
BRANCH  36  37
HETATM   37  C   UNL     1      -7.597   6.126  64.095  1.00  0.00    -0.096 C  
HETATM   38  O   UNL     1      -7.535   4.072  62.835  1.00  0.00    -0.048 OA 
HETATM   39  C   UNL     1      -7.544   4.631  63.921  1.00  0.00    -0.071 C  
HETATM   40  O   UNL     1      -7.562   3.948  65.087  1.00  0.00    -0.079 OA 
ENDBRANCH  36  37
ENDBRANCH  35  36
ENDBRANCH  33  35
ENDBRANCH  32  33
BRANCH  32  41
HETATM   41  C   UNL     1      -5.551  10.246  67.600  1.00  0.00    -0.044 A  
HETATM   42  C   UNL     1      -5.125   9.163  69.739  1.00  0.00    -0.034 A  
HETATM   43  C   UNL     1      -5.665  11.509  69.686  1.00  0.00    -0.078 A  
HETATM   44  C   UNL     1      -5.228   9.103  68.346  1.00  0.00    -0.037 A  
HETATM   45  C   UNL     1      -5.756  11.454  68.292  1.00  0.00    -0.045 A  
HETATM   46  C   UNL     1      -5.347  10.364  70.409  1.00  0.00    -0.056 A  
ENDBRANCH  32  41
ENDBRANCH  31  32
ENDBRANCH  18  31
ENDBRANCH   6  10
ENDBRANCH   2   3
TORSDOF 11
ENDMDL
MODEL      248
REMARK 921   NORMALIZED FREE ENERGY PREDICTED BY IDOCK:   -0.23 KCAL/MOL
REMARK 922        TOTAL FREE ENERGY PREDICTED BY IDOCK:   -3.44 KCAL/MOL
REMARK 923 INTER-LIGAND FREE ENERGY PREDICTED BY IDOCK:   -5.22 KCAL/MOL
REMARK 924 INTRA-LIGAND FREE ENERGY PREDICTED BY IDOCK:    1.78 KCAL/MOL
REMARK 927      BINDING AFFINITY PREDICTED BY RF-SCORE:    0.00 PKD
ROOT
HETATM    1  C   UNL     1     -12.508  16.541  69.240  1.00  0.00     1.548 C  
HETATM    2  O   UNL     1     -11.186  17.090  69.218  1.00  0.00    -0.033 OA 
ENDROOT
BRANCH   2   3
HETATM    3  C   UNL     1     -10.300  16.423  68.413  1.00  0.00    -0.282 A  
HETATM    4  C   UNL     1     -10.003  15.096  68.754  1.00  0.00    -0.229 A  
HETATM    5  F   UNL     1     -10.582  14.547  69.836  1.00  0.00    -0.200 F  
HETATM    6  C   UNL     1      -9.123  14.330  67.977  1.00  0.00    -0.191 A  
HETATM    7  C   UNL     1      -8.512  14.919  66.862  1.00  0.00    -0.255 A  
HETATM    8  C   UNL     1      -9.668  17.005  67.309  1.00  0.00    -0.253 A  
HETATM    9  C   UNL     1      -8.783  16.252  66.536  1.00  0.00    -0.327 A  
BRANCH   6  10
HETATM   10  C   UNL     1      -8.883  12.904  68.285  1.00  0.00    -0.168 C  
HETATM   11  C   UNL     1      -6.659  13.362  69.361  1.00  0.00    -0.075 C  
HETATM   12  C   UNL     1      -7.773  12.442  68.903  1.00  0.00     0.072 C  
HETATM   13  N   UNL     1      -7.651  11.076  69.184  1.00  0.00    -0.128 N  
HETATM   14  C   UNL     1      -8.745  10.210  69.111  1.00  0.00    -0.170 C  
HETATM   15  C   UNL     1      -9.898  11.911  67.821  1.00  0.00    -0.184 C  
HETATM   16  O   UNL     1      -8.762   9.125  69.699  1.00  0.00    -0.130 OA 
HETATM   17  O   UNL     1     -10.766  12.242  67.013  1.00  0.00    -0.223 OA 
HETATM   18  N   UNL     1      -9.809  10.640  68.347  1.00  0.00    -0.156 N  
BRANCH  13  19
HETATM   19  C   UNL     1      -6.415  10.485  69.712  1.00  0.00    -0.102 C  
BRANCH  19  20
HETATM   20  C   UNL     1      -6.176   9.005  69.441  1.00  0.00    -0.040 A  
HETATM   21  F   UNL     1      -7.290   7.930  72.593  1.00  0.00    -0.077 F  
HETATM   22  C   UNL     1      -6.147   8.300  71.954  1.00  0.00    -0.049 C  
HETATM   23  C   UNL     1      -6.204   8.024  70.464  1.00  0.00    -0.036 A  
HETATM   24  F   UNL     1      -5.999   9.424  67.101  1.00  0.00    -0.046 F  
HETATM   25  C   UNL     1      -6.278   6.655  70.102  1.00  0.00    -0.031 A  
HETATM   26  C   UNL     1      -6.108   8.551  68.109  1.00  0.00    -0.051 A  
HETATM   27  F   UNL     1      -5.144   7.592  72.550  1.00  0.00    -0.035 F  
HETATM   28  F   UNL     1      -5.922   9.590  72.309  1.00  0.00    -0.056 F  
HETATM   29  C   UNL     1      -6.143   7.197  67.775  1.00  0.00    -0.034 A  
HETATM   30  C   UNL     1      -6.263   6.245  68.772  1.00  0.00    -0.036 A  
ENDBRANCH  19  20
ENDBRANCH  13  19
BRANCH  18  31
HETATM   31  C   UNL     1     -10.889   9.687  68.062  1.00  0.00    -0.196 C  
BRANCH  31  32
HETATM   32  C   UNL     1     -10.574   8.636  66.948  1.00  0.00    -0.200 C  
BRANCH  32  33
HETATM   33  N   UNL     1     -10.130   7.314  67.466  1.00  0.00    -0.176 NA 
HETATM   34  H   UNL     1      -9.205   7.085  67.102  1.00  0.00     0.000 HD 
BRANCH  33  35
HETATM   35  C   UNL     1     -10.145   7.184  68.920  1.00  0.00    -0.177 C  
BRANCH  35  36
HETATM   36  C   UNL     1     -11.515   6.688  69.407  1.00  0.00    -0.288 C  
BRANCH  36  37
HETATM   37  C   UNL     1     -11.482   6.128  70.830  1.00  0.00    -0.321 C  
HETATM   38  O   UNL     1     -11.911   7.505  72.761  1.00  0.00    -0.233 OA 
HETATM   39  C   UNL     1     -12.343   6.915  71.783  1.00  0.00    -0.361 C  
HETATM   40  O   UNL     1     -13.661   6.867  71.491  1.00  0.00    -0.287 OA 
ENDBRANCH  36  37
ENDBRANCH  35  36
ENDBRANCH  33  35
ENDBRANCH  32  33
BRANCH  32  41
HETATM   41  C   UNL     1      -9.503   9.127  65.968  1.00  0.00    -0.321 A  
HETATM   42  C   UNL     1      -8.572  10.911  64.597  1.00  0.00     0.014 A  
HETATM   43  C   UNL     1      -7.583   8.717  64.517  1.00  0.00    -0.113 A  
HETATM   44  C   UNL     1      -9.511  10.459  65.528  1.00  0.00    -0.267 A  
HETATM   45  C   UNL     1      -8.515   8.265  65.456  1.00  0.00    -0.177 A  
HETATM   46  C   UNL     1      -7.611  10.040  64.089  1.00  0.00    -0.140 A  
ENDBRANCH  32  41
ENDBRANCH  31  32
ENDBRANCH  18  31
ENDBRANCH   6  10
ENDBRANCH   2   3
TORSDOF 11
ENDMDL
MODEL      249
REMARK 921   NORMALIZED FREE ENERGY PREDICTED BY IDOCK:   -0.21 KCAL/MOL
REMARK 922        TOTAL FREE ENERGY PREDICTED BY IDOCK:   -3.40 KCAL/MOL
REMARK 923 INTER-LIGAND FREE ENERGY PREDICTED BY IDOCK:   -6.83 KCAL/MOL
REMARK 924 INTRA-LIGAND FREE ENERGY PREDICTED BY IDOCK:    3.43 KCAL/MOL
REMARK 927      BINDING AFFINITY PREDICTED BY RF-SCORE:    0.00 PKD
ROOT
HETATM    1  C   UNL     1      -5.125   8.630  66.095  1.00  0.00    -0.030 C  
HETATM    2  O   UNL     1      -5.704   9.875  65.689  1.00  0.00    -0.053 OA 
ENDROOT
BRANCH   2   3
HETATM    3  C   UNL     1      -6.070  10.702  66.718  1.00  0.00    -0.074 A  
HETATM    4  C   UNL     1      -7.431  10.740  67.052  1.00  0.00    -0.114 A  
HETATM    5  F   UNL     1      -8.302   9.985  66.360  1.00  0.00    -0.121 F  
HETATM    6  C   UNL     1      -7.895  11.541  68.104  1.00  0.00    -0.128 A  
HETATM    7  C   UNL     1      -6.979  12.337  68.807  1.00  0.00    -0.098 A  
HETATM    8  C   UNL     1      -5.170  11.516  67.415  1.00  0.00    -0.061 A  
HETATM    9  C   UNL     1      -5.625  12.324  68.458  1.00  0.00    -0.054 A  
BRANCH   6  10
HETATM   10  C   UNL     1      -9.314  11.510  68.514  1.00  0.00    -0.171 C  
HETATM   11  C   UNL     1      -9.274   9.042  68.984  1.00  0.00    -0.140 C  
HETATM   12  C   UNL     1      -9.961  10.391  68.909  1.00  0.00    -0.199 C  
HETATM   13  N   UNL     1     -11.300  10.467  69.313  1.00  0.00    -0.243 N  
HETATM   14  C   UNL     1     -11.913  11.689  69.599  1.00  0.00    -0.324 C  
HETATM   15  C   UNL     1     -10.095  12.780  68.418  1.00  0.00    -0.226 C  
HETATM   16  O   UNL     1     -12.927  11.766  70.299  1.00  0.00     0.124 OA 
HETATM   17  O   UNL     1      -9.640  13.744  67.801  1.00  0.00    -0.207 OA 
HETATM   18  N   UNL     1     -11.317  12.808  69.057  1.00  0.00    -0.280 N  
BRANCH  13  19
HETATM   19  C   UNL     1     -12.105   9.275  69.606  1.00  0.00     0.845 C  
BRANCH  19  20
HETATM   20  C   UNL     1     -11.731   8.465  70.842  1.00  0.00    -0.269 A  
HETATM   21  F   UNL     1      -9.295   6.528  69.216  1.00  0.00    -0.140 F  
HETATM   22  C   UNL     1     -10.621   6.506  69.521  1.00  0.00    -0.246 C  
HETATM   23  C   UNL     1     -10.936   7.294  70.779  1.00  0.00    -0.273 A  
HETATM   24  F   UNL     1     -12.828  10.042  72.253  1.00  0.00    -0.458 F  
HETATM   25  C   UNL     1     -10.380   6.774  71.975  1.00  0.00    -0.217 A  
HETATM   26  C   UNL     1     -12.019   8.985  72.120  1.00  0.00    -0.325 A  
HETATM   27  F   UNL     1     -10.946   5.189  69.668  1.00  0.00    -0.305 F  
HETATM   28  F   UNL     1     -11.270   6.902  68.398  1.00  0.00    -0.219 F  
HETATM   29  C   UNL     1     -11.493   8.437  73.290  1.00  0.00     0.874 A  
HETATM   30  C   UNL     1     -10.643   7.347  73.216  1.00  0.00    -0.442 A  
ENDBRANCH  19  20
ENDBRANCH  13  19
BRANCH  18  31
HETATM   31  C   UNL     1     -12.032  14.087  69.144  1.00  0.00    -0.360 C  
BRANCH  31  32
HETATM   32  C   UNL     1     -11.478  15.225  68.227  1.00  0.00    -0.347 C  
BRANCH  32  33
HETATM   33  N   UNL     1     -12.025  16.575  68.532  1.00  0.00     0.153 NA 
HETATM   34  H   UNL     1     -12.128  16.694  69.540  1.00  0.00     0.000 HD 
BRANCH  33  35
HETATM   35  C   UNL     1     -11.268  17.689  67.969  1.00  0.00     0.252 C  
BRANCH  35  36
HETATM   36  C   UNL     1      -9.968  17.916  68.756  1.00  0.00    -0.377 C  
BRANCH  36  37
HETATM   37  C   UNL     1      -8.918  18.703  67.971  1.00  0.00    -0.324 C  
HETATM   38  O   UNL     1      -6.767  19.259  68.905  1.00  0.00    -0.283 OA 
HETATM   39  C   UNL     1      -7.512  18.416  68.431  1.00  0.00    -0.286 C  
HETATM   40  O   UNL     1      -7.123  17.139  68.224  1.00  0.00    -0.183 OA 
ENDBRANCH  36  37
ENDBRANCH  35  36
ENDBRANCH  33  35
ENDBRANCH  32  33
BRANCH  32  41
HETATM   41  C   UNL     1     -11.734  14.954  66.741  1.00  0.00    -0.243 A  
HETATM   42  C   UNL     1     -11.392  15.562  64.407  1.00  0.00    -0.260 A  
HETATM   43  C   UNL     1     -12.862  13.735  64.952  1.00  0.00    -0.242 A  
HETATM   44  C   UNL     1     -11.132  15.764  65.766  1.00  0.00    -0.124 A  
HETATM   45  C   UNL     1     -12.595  13.927  66.310  1.00  0.00    -0.376 A  
HETATM   46  C   UNL     1     -12.259  14.551  64.000  1.00  0.00    -0.262 A  
ENDBRANCH  32  41
ENDBRANCH  31  32
ENDBRANCH  18  31
ENDBRANCH   6  10
ENDBRANCH   2   3
TORSDOF 11
ENDMDL
MODEL      250
REMARK 921   NORMALIZED FREE ENERGY PREDICTED BY IDOCK:    0.06 KCAL/MOL
REMARK 922        TOTAL FREE ENERGY PREDICTED BY IDOCK:   -2.96 KCAL/MOL
REMARK 923 INTER-LIGAND FREE ENERGY PREDICTED BY IDOCK:   -4.75 KCAL/MOL
REMARK 924 INTRA-LIGAND FREE ENERGY PREDICTED BY IDOCK:    1.79 KCAL/MOL
REMARK 927      BINDING AFFINITY PREDICTED BY RF-SCORE:    0.00 PKD
ROOT
HETATM    1  C   UNL     1      -5.311  18.980  63.241  1.00  0.00    -0.236 C  
HETATM    2  O   UNL     1      -6.212  19.701  64.087  1.00  0.00    -0.356 OA 
ENDROOT
BRANCH   2   3
HETATM    3  C   UNL     1      -6.153  19.362  65.413  1.00  0.00    -0.230 A  
HETATM    4  C   UNL     1      -6.997  18.329  65.845  1.00  0.00    -0.277 A  
HETATM    5  F   UNL     1      -7.817  17.733  64.961  1.00  0.00     0.782 F  
HETATM    6  C   UNL     1      -6.990  17.901  67.179  1.00  0.00    -0.202 A  
HETATM    7  C   UNL     1      -6.144  18.543  68.095  1.00  0.00    -0.193 A  
HETATM    8  C   UNL     1      -5.328  20.007  66.341  1.00  0.00    -0.175 A  
HETATM    9  C   UNL     1      -5.322  19.593  67.674  1.00  0.00    -0.184 A  
BRANCH   6  10
HETATM   10  C   UNL     1      -7.813  16.752  67.612  1.00  0.00    -0.189 C  
HETATM   11  C   UNL     1      -9.953  18.064  67.521  1.00  0.00    -0.330 C  
HETATM   12  C   UNL     1      -9.153  16.804  67.781  1.00  0.00    -0.221 C  
HETATM   13  N   UNL     1      -9.852  15.652  68.161  1.00  0.00    -0.212 N  
HETATM   14  C   UNL     1      -9.268  14.384  68.097  1.00  0.00    -0.199 C  
HETATM   15  C   UNL     1      -7.108  15.478  67.950  1.00  0.00    -0.139 C  
HETATM   16  O   UNL     1      -9.945  13.352  68.055  1.00  0.00    -0.225 OA 
HETATM   17  O   UNL     1      -5.885  15.465  68.092  1.00  0.00    -0.112 OA 
HETATM   18  N   UNL     1      -7.890  14.351  68.079  1.00  0.00    -0.127 N  
BRANCH  13  19
HETATM   19  C   UNL     1     -11.278  15.672  68.508  1.00  0.00    -0.342 C  
BRANCH  19  20
HETATM   20  C   UNL     1     -11.637  15.770  69.987  1.00  0.00    -0.361 A  
HETATM   21  F   UNL     1     -11.845  12.301  70.485  1.00  0.00    -0.402 F  
HETATM   22  C   UNL     1     -12.630  13.363  70.156  1.00  0.00    -0.077 C  
HETATM   23  C   UNL     1     -12.111  14.665  70.735  1.00  0.00    -0.387 A  
HETATM   24  F   UNL     1     -10.937  18.048  70.042  1.00  0.00     0.455 F  
HETATM   25  C   UNL     1     -12.131  14.750  72.150  1.00  0.00    -0.378 A  
HETATM   26  C   UNL     1     -11.316  16.944  70.696  1.00  0.00     0.575 A  
HETATM   27  F   UNL     1     -13.872  13.068  70.637  1.00  0.00     0.494 F  
HETATM   28  F   UNL     1     -12.760  13.326  68.806  1.00  0.00    -0.004 F  
HETATM   29  C   UNL     1     -11.378  17.021  72.088  1.00  0.00     0.824 A  
HETATM   30  C   UNL     1     -11.754  15.910  72.821  1.00  0.00    -0.497 A  
ENDBRANCH  19  20
ENDBRANCH  13  19
BRANCH  18  31
HETATM   31  C   UNL     1      -7.225  13.051  68.228  1.00  0.00    -0.113 C  
BRANCH  31  32
HETATM   32  C   UNL     1      -8.181  11.815  68.279  1.00  0.00    -0.157 C  
BRANCH  32  33
HETATM   33  N   UNL     1      -7.694  10.702  69.138  1.00  0.00    -0.128 NA 
HETATM   34  H   UNL     1      -8.391  10.472  69.846  1.00  0.00     0.000 HD 
BRANCH  33  35
HETATM   35  C   UNL     1      -7.292   9.497  68.418  1.00  0.00    -0.076 C  
BRANCH  35  36
HETATM   36  C   UNL     1      -5.763   9.430  68.281  1.00  0.00    -0.037 C  
BRANCH  36  37
HETATM   37  C   UNL     1      -5.129   8.327  69.130  1.00  0.00    -0.027 C  
HETATM   38  O   UNL     1      -6.339   7.203  70.884  1.00  0.00    -0.036 OA 
HETATM   39  C   UNL     1      -6.147   7.368  69.689  1.00  0.00    -0.030 C  
HETATM   40  O   UNL     1      -6.801   6.658  68.745  1.00  0.00    -0.064 OA 
ENDBRANCH  36  37
ENDBRANCH  35  36
ENDBRANCH  33  35
ENDBRANCH  32  33
BRANCH  32  41
HETATM   41  C   UNL     1      -8.458  11.232  66.889  1.00  0.00    -0.152 A  
HETATM   42  C   UNL     1      -7.627  10.454  64.736  1.00  0.00    -0.058 A  
HETATM   43  C   UNL     1     -10.001  10.532  65.131  1.00  0.00    -0.375 A  
HETATM   44  C   UNL     1      -7.391  10.941  66.025  1.00  0.00    -0.081 A  
HETATM   45  C   UNL     1      -9.768  11.008  66.425  1.00  0.00    -0.235 A  
HETATM   46  C   UNL     1      -8.930  10.253  64.287  1.00  0.00    -0.261 A  
ENDBRANCH  32  41
ENDBRANCH  31  32
ENDBRANCH  18  31
ENDBRANCH   6  10
ENDBRANCH   2   3
TORSDOF 11
ENDMDL
MODEL      251
REMARK 921   NORMALIZED FREE ENERGY PREDICTED BY IDOCK:    0.14 KCAL/MOL
REMARK 922        TOTAL FREE ENERGY PREDICTED BY IDOCK:   -2.83 KCAL/MOL
REMARK 923 INTER-LIGAND FREE ENERGY PREDICTED BY IDOCK:   -5.41 KCAL/MOL
REMARK 924 INTRA-LIGAND FREE ENERGY PREDICTED BY IDOCK:    2.58 KCAL/MOL
REMARK 927      BINDING AFFINITY PREDICTED BY RF-SCORE:    0.00 PKD
ROOT
HETATM    1  C   UNL     1      -9.642  13.831  65.114  1.00  0.00     0.232 C  
HETATM    2  O   UNL     1     -10.912  14.229  65.640  1.00  0.00    -0.295 OA 
ENDROOT
BRANCH   2   3
HETATM    3  C   UNL     1     -11.132  13.870  66.944  1.00  0.00    -0.301 A  
HETATM    4  C   UNL     1     -10.394  12.787  67.441  1.00  0.00    -0.222 A  
HETATM    5  F   UNL     1      -9.525  12.154  66.633  1.00  0.00    -0.198 F  
HETATM    6  C   UNL     1     -10.538  12.362  68.769  1.00  0.00    -0.213 A  
HETATM    7  C   UNL     1     -11.460  13.019  69.596  1.00  0.00    -0.253 A  
HETATM    8  C   UNL     1     -12.063  14.504  67.775  1.00  0.00    -0.269 A  
HETATM    9  C   UNL     1     -12.219  14.081  69.096  1.00  0.00    -0.299 A  
BRANCH   6  10
HETATM   10  C   UNL     1      -9.693  11.280  69.316  1.00  0.00     0.110 C  
HETATM   11  C   UNL     1     -11.601  10.226  70.565  1.00  0.00    -0.424 C  
HETATM   12  C   UNL     1     -10.150  10.308  70.136  1.00  0.00    -0.042 C  
HETATM   13  N   UNL     1      -9.280   9.303  70.577  1.00  0.00    -0.243 N  
HETATM   14  C   UNL     1      -8.032   9.098  69.981  1.00  0.00    -0.113 C  
HETATM   15  C   UNL     1      -8.233  11.307  68.997  1.00  0.00    -0.021 C  
HETATM   16  O   UNL     1      -7.428   8.026  70.077  1.00  0.00    -0.071 OA 
HETATM   17  O   UNL     1      -7.724  12.314  68.505  1.00  0.00    -0.125 OA 
HETATM   18  N   UNL     1      -7.517  10.162  69.272  1.00  0.00    -0.099 N  
BRANCH  13  19
HETATM   19  C   UNL     1      -9.667   8.308  71.584  1.00  0.00    -0.197 C  
BRANCH  19  20
HETATM   20  C   UNL     1      -9.465   6.839  71.231  1.00  0.00    -0.166 A  
HETATM   21  F   UNL     1     -10.461   7.189  67.881  1.00  0.00    -0.198 F  
HETATM   22  C   UNL     1     -10.978   6.892  69.104  1.00  0.00    -0.199 C  
HETATM   23  C   UNL     1      -9.950   6.267  70.029  1.00  0.00    -0.208 A  
HETATM   24  F   UNL     1      -8.176   6.503  73.208  1.00  0.00    -0.114 F  
HETATM   25  C   UNL     1      -9.469   4.994  69.629  1.00  0.00    -0.207 A  
HETATM   26  C   UNL     1      -8.607   6.052  72.024  1.00  0.00    -0.136 A  
HETATM   27  F   UNL     1     -12.016   6.038  68.870  1.00  0.00    -0.004 F  
HETATM   28  F   UNL     1     -11.559   8.033  69.551  1.00  0.00     0.063 F  
HETATM   29  C   UNL     1      -8.174   4.785  71.631  1.00  0.00    -0.109 A  
HETATM   30  C   UNL     1      -8.579   4.267  70.414  1.00  0.00    -0.105 A  
ENDBRANCH  19  20
ENDBRANCH  13  19
BRANCH  18  31
HETATM   31  C   UNL     1      -6.126  10.079  68.808  1.00  0.00    -0.040 C  
BRANCH  31  32
HETATM   32  C   UNL     1      -5.929   9.408  67.410  1.00  0.00    -0.049 C  
BRANCH  32  33
HETATM   33  N   UNL     1      -6.971   9.764  66.410  1.00  0.00    -0.091 NA 
HETATM   34  H   UNL     1      -7.617  10.448  66.802  1.00  0.00     0.000 HD 
BRANCH  33  35
HETATM   35  C   UNL     1      -6.459  10.235  65.126  1.00  0.00    -0.119 C  
BRANCH  35  36
HETATM   36  C   UNL     1      -7.580  10.282  64.077  1.00  0.00    -0.083 C  
BRANCH  36  37
HETATM   37  C   UNL     1      -8.705   9.283  64.352  1.00  0.00    -0.211 C  
HETATM   38  O   UNL     1     -10.642   9.860  65.665  1.00  0.00    -0.039 OA 
HETATM   39  C   UNL     1     -10.027   9.955  64.613  1.00  0.00    -0.002 C  
HETATM   40  O   UNL     1     -10.509  10.638  63.552  1.00  0.00    -0.185 OA 
ENDBRANCH  36  37
ENDBRANCH  35  36
ENDBRANCH  33  35
ENDBRANCH  32  33
BRANCH  32  41
HETATM   41  C   UNL     1      -5.883   7.879  67.497  1.00  0.00    -0.038 A  
HETATM   42  C   UNL     1      -5.269   5.864  68.718  1.00  0.00    -0.004 A  
HETATM   43  C   UNL     1      -6.211   5.669  66.511  1.00  0.00    -0.034 A  
HETATM   44  C   UNL     1      -5.363   7.256  68.641  1.00  0.00    -0.021 A  
HETATM   45  C   UNL     1      -6.317   7.061  66.436  1.00  0.00    -0.050 A  
HETATM   46  C   UNL     1      -5.688   5.070  67.653  1.00  0.00    -0.017 A  
ENDBRANCH  32  41
ENDBRANCH  31  32
ENDBRANCH  18  31
ENDBRANCH   6  10
ENDBRANCH   2   3
TORSDOF 11
ENDMDL
MODEL      252
REMARK 921   NORMALIZED FREE ENERGY PREDICTED BY IDOCK:    0.17 KCAL/MOL
REMARK 922        TOTAL FREE ENERGY PREDICTED BY IDOCK:   -2.77 KCAL/MOL
REMARK 923 INTER-LIGAND FREE ENERGY PREDICTED BY IDOCK:   -4.00 KCAL/MOL
REMARK 924 INTRA-LIGAND FREE ENERGY PREDICTED BY IDOCK:    1.23 KCAL/MOL
REMARK 927      BINDING AFFINITY PREDICTED BY RF-SCORE:    0.00 PKD
ROOT
HETATM    1  C   UNL     1     -10.964  12.450  63.196  1.00  0.00    -0.063 C  
HETATM    2  O   UNL     1     -10.532  11.099  63.006  1.00  0.00    -0.261 OA 
ENDROOT
BRANCH   2   3
HETATM    3  C   UNL     1      -9.256  10.838  63.427  1.00  0.00    -0.268 A  
HETATM    4  C   UNL     1      -8.998  10.966  64.800  1.00  0.00    -0.140 A  
HETATM    5  F   UNL     1      -9.992  11.338  65.626  1.00  0.00    -0.237 F  
HETATM    6  C   UNL     1      -7.726  10.700  65.324  1.00  0.00    -0.021 A  
HETATM    7  C   UNL     1      -6.694  10.331  64.450  1.00  0.00    -0.066 A  
HETATM    8  C   UNL     1      -8.211  10.487  62.564  1.00  0.00    -0.212 A  
HETATM    9  C   UNL     1      -6.939  10.230  63.078  1.00  0.00    -0.121 A  
BRANCH   6  10
HETATM   10  C   UNL     1      -7.481  10.747  66.781  1.00  0.00    -0.129 C  
HETATM   11  C   UNL     1      -7.342  13.255  66.824  1.00  0.00     0.775 C  
HETATM   12  C   UNL     1      -7.297  11.890  67.479  1.00  0.00    -0.132 C  
HETATM   13  N   UNL     1      -7.105  11.835  68.865  1.00  0.00    -0.111 N  
HETATM   14  C   UNL     1      -7.379  10.678  69.600  1.00  0.00    -0.130 C  
HETATM   15  C   UNL     1      -7.360   9.447  67.509  1.00  0.00    -0.084 C  
HETATM   16  O   UNL     1      -7.584  10.708  70.817  1.00  0.00     0.425 OA 
HETATM   17  O   UNL     1      -7.231   8.395  66.883  1.00  0.00    -0.077 OA 
HETATM   18  N   UNL     1      -7.412   9.500  68.885  1.00  0.00    -0.073 N  
BRANCH  13  19
HETATM   19  C   UNL     1      -6.749  13.016  69.661  1.00  0.00     0.088 C  
BRANCH  19  20
HETATM   20  C   UNL     1      -7.340  14.354  69.229  1.00  0.00    -0.088 A  
HETATM   21  F   UNL     1     -10.627  13.560  70.178  1.00  0.00     0.331 F  
HETATM   22  C   UNL     1      -9.803  13.499  69.097  1.00  0.00     0.332 C  
HETATM   23  C   UNL     1      -8.735  14.577  69.124  1.00  0.00     0.032 A  
HETATM   24  F   UNL     1      -5.164  15.321  69.119  1.00  0.00    -0.094 F  
HETATM   25  C   UNL     1      -9.213  15.907  69.018  1.00  0.00    -0.242 A  
HETATM   26  C   UNL     1      -6.494  15.473  69.107  1.00  0.00    -0.128 A  
HETATM   27  F   UNL     1     -10.613  13.633  68.007  1.00  0.00    -0.230 F  
HETATM   28  F   UNL     1      -9.352  12.221  69.042  1.00  0.00    -0.026 F  
HETATM   29  C   UNL     1      -6.982  16.772  68.966  1.00  0.00    -0.218 A  
HETATM   30  C   UNL     1      -8.348  16.995  68.954  1.00  0.00    -0.196 A  
ENDBRANCH  19  20
ENDBRANCH  13  19
BRANCH  18  31
HETATM   31  C   UNL     1      -7.482   8.237  69.632  1.00  0.00    -0.081 C  
BRANCH  31  32
HETATM   32  C   UNL     1      -8.917   7.638  69.796  1.00  0.00    -0.140 C  
BRANCH  32  33
HETATM   33  N   UNL     1      -9.289   6.650  68.748  1.00  0.00    -0.132 NA 
HETATM   34  H   UNL     1      -9.158   7.053  67.820  1.00  0.00     0.000 HD 
BRANCH  33  35
HETATM   35  C   UNL     1      -8.600   5.365  68.839  1.00  0.00    -0.099 C  
BRANCH  35  36
HETATM   36  C   UNL     1      -7.247   5.421  68.113  1.00  0.00    -0.071 C  
BRANCH  36  37
HETATM   37  C   UNL     1      -7.289   4.805  66.713  1.00  0.00    -0.082 C  
HETATM   38  O   UNL     1      -9.199   3.578  65.907  1.00  0.00    -0.150 OA 
HETATM   39  C   UNL     1      -8.692   4.653  66.187  1.00  0.00    -0.114 C  
HETATM   40  O   UNL     1      -9.332   5.827  65.999  1.00  0.00    -0.161 OA 
ENDBRANCH  36  37
ENDBRANCH  35  36
ENDBRANCH  33  35
ENDBRANCH  32  33
BRANCH  32  41
HETATM   41  C   UNL     1     -10.003   8.719  69.811  1.00  0.00    -0.193 A  
HETATM   42  C   UNL     1     -11.491  10.180  71.068  1.00  0.00    -0.436 A  
HETATM   43  C   UNL     1     -11.621  10.142  68.664  1.00  0.00    -0.009 A  
HETATM   44  C   UNL     1     -10.467   9.230  71.033  1.00  0.00    -0.384 A  
HETATM   45  C   UNL     1     -10.589   9.200  68.625  1.00  0.00    -0.207 A  
HETATM   46  C   UNL     1     -12.071  10.634  69.885  1.00  0.00    -0.372 A  
ENDBRANCH  32  41
ENDBRANCH  31  32
ENDBRANCH  18  31
ENDBRANCH   6  10
ENDBRANCH   2   3
TORSDOF 11
ENDMDL
MODEL      253
REMARK 921   NORMALIZED FREE ENERGY PREDICTED BY IDOCK:    0.21 KCAL/MOL
REMARK 922        TOTAL FREE ENERGY PREDICTED BY IDOCK:   -2.72 KCAL/MOL
REMARK 923 INTER-LIGAND FREE ENERGY PREDICTED BY IDOCK:   -4.10 KCAL/MOL
REMARK 924 INTRA-LIGAND FREE ENERGY PREDICTED BY IDOCK:    1.38 KCAL/MOL
REMARK 927      BINDING AFFINITY PREDICTED BY RF-SCORE:    0.00 PKD
ROOT
HETATM    1  C   UNL     1      -6.724  20.102  68.281  1.00  0.00    -0.300 C  
HETATM    2  O   UNL     1      -6.689  19.503  69.580  1.00  0.00    -0.321 OA 
ENDROOT
BRANCH   2   3
HETATM    3  C   UNL     1      -6.713  18.134  69.583  1.00  0.00    -0.007 A  
HETATM    4  C   UNL     1      -7.860  17.514  69.068  1.00  0.00    -0.118 A  
HETATM    5  F   UNL     1      -8.870  18.273  68.608  1.00  0.00    -0.303 F  
HETATM    6  C   UNL     1      -7.964  16.118  69.012  1.00  0.00    -0.236 A  
HETATM    7  C   UNL     1      -6.912  15.337  69.511  1.00  0.00    -0.191 A  
HETATM    8  C   UNL     1      -5.678  17.342  70.096  1.00  0.00    -0.231 A  
HETATM    9  C   UNL     1      -5.779  15.951  70.053  1.00  0.00    -0.160 A  
BRANCH   6  10
HETATM   10  C   UNL     1      -9.134  15.468  68.384  1.00  0.00    -0.190 C  
HETATM   11  C   UNL     1      -8.494  16.220  66.074  1.00  0.00    -0.185 C  
HETATM   12  C   UNL     1      -9.398  15.507  67.059  1.00  0.00    -0.224 C  
HETATM   13  N   UNL     1     -10.514  14.830  66.552  1.00  0.00    -0.285 N  
HETATM   14  C   UNL     1     -11.206  13.882  67.310  1.00  0.00    -0.312 C  
HETATM   15  C   UNL     1     -10.117  14.788  69.280  1.00  0.00    -0.157 C  
HETATM   16  O   UNL     1     -11.922  13.022  66.789  1.00  0.00    -0.391 OA 
HETATM   17  O   UNL     1     -10.078  14.970  70.498  1.00  0.00     0.075 OA 
HETATM   18  N   UNL     1     -11.038  13.958  68.676  1.00  0.00    -0.254 N  
BRANCH  13  19
HETATM   19  C   UNL     1     -10.945  14.955  65.154  1.00  0.00    -0.399 C  
BRANCH  19  20
HETATM   20  C   UNL     1     -11.327  13.673  64.423  1.00  0.00    -0.394 A  
HETATM   21  F   UNL     1      -9.146  11.615  66.251  1.00  0.00    -0.196 F  
HETATM   22  C   UNL     1      -9.181  12.355  65.109  1.00  0.00     0.441 C  
HETATM   23  C   UNL     1     -10.583  12.473  64.541  1.00  0.00    -0.363 A  
HETATM   24  F   UNL     1     -13.278  14.716  63.537  1.00  0.00     0.752 F  
HETATM   25  C   UNL     1     -11.158  11.259  64.087  1.00  0.00    -0.306 A  
HETATM   26  C   UNL     1     -12.563  13.605  63.751  1.00  0.00    -0.038 A  
HETATM   27  F   UNL     1      -8.344  11.725  64.235  1.00  0.00     0.602 F  
HETATM   28  F   UNL     1      -8.562  13.525  65.404  1.00  0.00     1.028 F  
HETATM   29  C   UNL     1     -13.096  12.407  63.277  1.00  0.00     0.199 A  
HETATM   30  C   UNL     1     -12.407  11.223  63.475  1.00  0.00     0.459 A  
ENDBRANCH  19  20
ENDBRANCH  13  19
BRANCH  18  31
HETATM   31  C   UNL     1     -11.901  13.132  69.529  1.00  0.00    -0.322 C  
BRANCH  31  32
HETATM   32  C   UNL     1     -11.233  11.837  70.098  1.00  0.00     0.212 C  
BRANCH  32  33
HETATM   33  N   UNL     1     -10.649  10.945  69.059  1.00  0.00    -0.205 NA 
HETATM   34  H   UNL     1     -10.462  11.472  68.206  1.00  0.00     0.000 HD 
BRANCH  33  35
HETATM   35  C   UNL     1      -9.454  10.217  69.473  1.00  0.00    -0.214 C  
BRANCH  35  36
HETATM   36  C   UNL     1      -8.743   9.602  68.257  1.00  0.00    -0.120 C  
BRANCH  36  37
HETATM   37  C   UNL     1      -7.229   9.489  68.437  1.00  0.00    -0.075 C  
HETATM   38  O   UNL     1      -5.674  10.441  66.862  1.00  0.00    -0.045 OA 
HETATM   39  C   UNL     1      -6.479  10.609  67.765  1.00  0.00    -0.060 C  
HETATM   40  O   UNL     1      -6.736  11.826  68.289  1.00  0.00    -0.060 OA 
ENDBRANCH  36  37
ENDBRANCH  35  36
ENDBRANCH  33  35
ENDBRANCH  32  33
BRANCH  32  41
HETATM   41  C   UNL     1     -12.206  10.995  70.929  1.00  0.00    -0.471 A  
HETATM   42  C   UNL     1     -13.048   8.810  71.597  1.00  0.00    -0.394 A  
HETATM   43  C   UNL     1     -14.123  10.798  72.427  1.00  0.00     0.771 A  
HETATM   44  C   UNL     1     -12.138   9.594  70.883  1.00  0.00    -0.383 A  
HETATM   45  C   UNL     1     -13.207  11.585  71.724  1.00  0.00    -0.456 A  
HETATM   46  C   UNL     1     -14.042   9.410  72.366  1.00  0.00    -0.271 A  
ENDBRANCH  32  41
ENDBRANCH  31  32
ENDBRANCH  18  31
ENDBRANCH   6  10
ENDBRANCH   2   3
TORSDOF 11
ENDMDL
MODEL      254
REMARK 921   NORMALIZED FREE ENERGY PREDICTED BY IDOCK:    0.22 KCAL/MOL
REMARK 922        TOTAL FREE ENERGY PREDICTED BY IDOCK:   -2.70 KCAL/MOL
REMARK 923 INTER-LIGAND FREE ENERGY PREDICTED BY IDOCK:   -5.66 KCAL/MOL
REMARK 924 INTRA-LIGAND FREE ENERGY PREDICTED BY IDOCK:    2.96 KCAL/MOL
REMARK 927      BINDING AFFINITY PREDICTED BY RF-SCORE:    0.00 PKD
ROOT
HETATM    1  C   UNL     1     -13.587   6.159  70.904  1.00  0.00     2.497 C  
HETATM    2  O   UNL     1     -13.269   6.667  72.204  1.00  0.00    -0.144 OA 
ENDROOT
BRANCH   2   3
HETATM    3  C   UNL     1     -12.064   7.311  72.291  1.00  0.00    -0.191 A  
HETATM    4  C   UNL     1     -11.728   8.181  71.243  1.00  0.00    -0.279 A  
HETATM    5  F   UNL     1     -12.583   8.338  70.216  1.00  0.00     0.248 F  
HETATM    6  C   UNL     1     -10.525   8.898  71.256  1.00  0.00    -0.357 A  
HETATM    7  C   UNL     1      -9.634   8.712  72.323  1.00  0.00    -0.348 A  
HETATM    8  C   UNL     1     -11.157   7.121  73.339  1.00  0.00    -0.164 A  
HETATM    9  C   UNL     1      -9.952   7.824  73.355  1.00  0.00    -0.348 A  
BRANCH   6  10
HETATM   10  C   UNL     1     -10.216   9.883  70.198  1.00  0.00    -0.326 C  
HETATM   11  C   UNL     1     -12.414  11.071  70.460  1.00  0.00    -0.432 C  
HETATM   12  C   UNL     1     -11.057  10.869  69.816  1.00  0.00    -0.262 C  
HETATM   13  N   UNL     1     -10.662  11.777  68.827  1.00  0.00    -0.217 N  
HETATM   14  C   UNL     1      -9.329  11.885  68.418  1.00  0.00    -0.184 C  
HETATM   15  C   UNL     1      -8.924   9.732  69.462  1.00  0.00    -0.204 C  
HETATM   16  O   UNL     1      -8.896  12.894  67.855  1.00  0.00    -0.171 OA 
HETATM   17  O   UNL     1      -8.266   8.697  69.569  1.00  0.00    -0.110 OA 
HETATM   18  N   UNL     1      -8.523  10.799  68.686  1.00  0.00    -0.136 N  
BRANCH  13  19
HETATM   19  C   UNL     1     -11.577  12.774  68.258  1.00  0.00    -0.334 C  
BRANCH  19  20
HETATM   20  C   UNL     1     -11.013  14.163  67.979  1.00  0.00    -0.269 A  
HETATM   21  F   UNL     1     -11.997  14.224  64.609  1.00  0.00    -0.367 F  
HETATM   22  C   UNL     1     -10.935  13.877  65.386  1.00  0.00    -0.316 C  
HETATM   23  C   UNL     1     -10.871  14.683  66.669  1.00  0.00    -0.312 A  
HETATM   24  F   UNL     1     -10.836  14.600  70.316  1.00  0.00    -0.229 F  
HETATM   25  C   UNL     1     -10.633  16.071  66.502  1.00  0.00    -0.284 A  
HETATM   26  C   UNL     1     -10.794  15.046  69.055  1.00  0.00    -0.242 A  
HETATM   27  F   UNL     1      -9.829  14.084  64.615  1.00  0.00    -0.354 F  
HETATM   28  F   UNL     1     -11.008  12.531  65.537  1.00  0.00    -0.291 F  
HETATM   29  C   UNL     1     -10.524  16.402  68.870  1.00  0.00    -0.285 A  
HETATM   30  C   UNL     1     -10.476  16.925  67.590  1.00  0.00    -0.332 A  
ENDBRANCH  19  20
ENDBRANCH  13  19
BRANCH  18  31
HETATM   31  C   UNL     1      -7.181  10.768  68.094  1.00  0.00    -0.083 C  
BRANCH  31  32
HETATM   32  C   UNL     1      -7.034   9.874  66.820  1.00  0.00    -0.089 C  
BRANCH  32  33
HETATM   33  N   UNL     1      -8.322   9.555  66.147  1.00  0.00    -0.114 NA 
HETATM   34  H   UNL     1      -8.191   9.515  65.137  1.00  0.00     0.000 HD 
BRANCH  33  35
HETATM   35  C   UNL     1      -8.980   8.341  66.619  1.00  0.00    -0.150 C  
BRANCH  35  36
HETATM   36  C   UNL     1      -9.195   7.354  65.461  1.00  0.00     0.264 C  
BRANCH  36  37
HETATM   37  C   UNL     1      -8.907   5.902  65.844  1.00  0.00    -0.154 C  
HETATM   38  O   UNL     1      -9.972   4.836  67.725  1.00  0.00    -0.157 OA 
HETATM   39  C   UNL     1     -10.052   5.258  66.582  1.00  0.00    -0.228 C  
HETATM   40  O   UNL     1     -11.176   5.138  65.842  1.00  0.00    -0.031 OA 
ENDBRANCH  36  37
ENDBRANCH  35  36
ENDBRANCH  33  35
ENDBRANCH  32  33
BRANCH  32  41
HETATM   41  C   UNL     1      -6.332   8.545  67.117  1.00  0.00    -0.057 A  
HETATM   42  C   UNL     1      -5.290   6.497  66.311  1.00  0.00    -0.014 A  
HETATM   43  C   UNL     1      -5.555   6.838  68.680  1.00  0.00    -0.017 A  
HETATM   44  C   UNL     1      -5.889   7.734  66.061  1.00  0.00    -0.037 A  
HETATM   45  C   UNL     1      -6.144   8.082  68.433  1.00  0.00    -0.045 A  
HETATM   46  C   UNL     1      -5.126   6.046  67.619  1.00  0.00    -0.004 A  
ENDBRANCH  32  41
ENDBRANCH  31  32
ENDBRANCH  18  31
ENDBRANCH   6  10
ENDBRANCH   2   3
TORSDOF 11
ENDMDL
MODEL      255
REMARK 921   NORMALIZED FREE ENERGY PREDICTED BY IDOCK:    0.32 KCAL/MOL
REMARK 922        TOTAL FREE ENERGY PREDICTED BY IDOCK:   -2.53 KCAL/MOL
REMARK 923 INTER-LIGAND FREE ENERGY PREDICTED BY IDOCK:   -6.03 KCAL/MOL
REMARK 924 INTRA-LIGAND FREE ENERGY PREDICTED BY IDOCK:    3.50 KCAL/MOL
REMARK 927      BINDING AFFINITY PREDICTED BY RF-SCORE:    0.00 PKD
ROOT
HETATM    1  C   UNL     1      -7.014  13.610  69.532  1.00  0.00     0.090 C  
HETATM    2  O   UNL     1      -6.004  13.051  70.378  1.00  0.00    -0.163 OA 
ENDROOT
BRANCH   2   3
HETATM    3  C   UNL     1      -6.035  11.686  70.487  1.00  0.00    -0.078 A  
HETATM    4  C   UNL     1      -7.062  11.015  69.808  1.00  0.00    -0.047 A  
HETATM    5  F   UNL     1      -7.958  11.725  69.099  1.00  0.00    -0.079 F  
HETATM    6  C   UNL     1      -7.161   9.618  69.846  1.00  0.00    -0.106 A  
HETATM    7  C   UNL     1      -6.231   8.891  70.602  1.00  0.00    -0.042 A  
HETATM    8  C   UNL     1      -5.126  10.950  71.254  1.00  0.00    -0.094 A  
HETATM    9  C   UNL     1      -5.223   9.558  71.304  1.00  0.00    -0.054 A  
BRANCH   6  10
HETATM   10  C   UNL     1      -8.188   8.908  69.055  1.00  0.00    -0.116 C  
HETATM   11  C   UNL     1      -8.099   6.861  70.509  1.00  0.00    -0.115 C  
HETATM   12  C   UNL     1      -8.623   7.658  69.332  1.00  0.00    -0.136 C  
HETATM   13  N   UNL     1      -9.627   7.080  68.545  1.00  0.00    -0.137 N  
HETATM   14  C   UNL     1     -10.400   7.842  67.664  1.00  0.00    -0.239 C  
HETATM   15  C   UNL     1      -8.725   9.589  67.838  1.00  0.00    -0.119 C  
HETATM   16  O   UNL     1     -11.501   7.458  67.260  1.00  0.00     0.243 OA 
HETATM   17  O   UNL     1      -8.161  10.586  67.385  1.00  0.00    -0.117 OA 
HETATM   18  N   UNL     1      -9.863   9.052  67.277  1.00  0.00    -0.181 N  
BRANCH  13  19
HETATM   19  C   UNL     1     -10.037   5.679  68.692  1.00  0.00    -0.183 C  
BRANCH  19  20
HETATM   20  C   UNL     1      -9.060   4.610  68.217  1.00  0.00    -0.151 A  
HETATM   21  F   UNL     1      -9.925   2.277  70.695  1.00  0.00    -0.170 F  
HETATM   22  C   UNL     1      -9.039   3.284  70.465  1.00  0.00    -0.122 C  
HETATM   23  C   UNL     1      -8.742   3.465  68.989  1.00  0.00    -0.142 A  
HETATM   24  F   UNL     1      -8.787   5.734  66.133  1.00  0.00    -0.126 F  
HETATM   25  C   UNL     1      -8.075   2.379  68.367  1.00  0.00    -0.068 A  
HETATM   26  C   UNL     1      -8.589   4.648  66.890  1.00  0.00    -0.104 A  
HETATM   27  F   UNL     1      -7.913   2.951  71.160  1.00  0.00    -0.050 F  
HETATM   28  F   UNL     1      -9.536   4.372  71.106  1.00  0.00    -0.170 F  
HETATM   29  C   UNL     1      -7.901   3.585  66.306  1.00  0.00    -0.088 A  
HETATM   30  C   UNL     1      -7.672   2.431  67.036  1.00  0.00    -0.070 A  
ENDBRANCH  19  20
ENDBRANCH  13  19
BRANCH  18  31
HETATM   31  C   UNL     1     -10.527   9.790  66.196  1.00  0.00    -0.058 C  
BRANCH  31  32
HETATM   32  C   UNL     1     -10.670  11.329  66.430  1.00  0.00    -0.267 C  
BRANCH  32  33
HETATM   33  N   UNL     1     -11.539  11.693  67.582  1.00  0.00    -0.508 NA 
HETATM   34  H   UNL     1     -12.521  11.659  67.308  1.00  0.00     0.000 HD 
BRANCH  33  35
HETATM   35  C   UNL     1     -11.326  10.900  68.789  1.00  0.00    -0.292 C  
BRANCH  35  36
HETATM   36  C   UNL     1     -11.878  11.629  70.023  1.00  0.00    -0.435 C  
BRANCH  36  37
HETATM   37  C   UNL     1     -12.587  12.940  69.682  1.00  0.00     0.279 C  
HETATM   38  O   UNL     1     -12.030  15.021  70.761  1.00  0.00    -0.275 OA 
HETATM   39  C   UNL     1     -11.735  14.151  69.957  1.00  0.00    -0.291 C  
HETATM   40  O   UNL     1     -10.626  14.220  69.189  1.00  0.00    -0.236 OA 
ENDBRANCH  36  37
ENDBRANCH  35  36
ENDBRANCH  33  35
ENDBRANCH  32  33
BRANCH  32  41
HETATM   41  C   UNL     1     -11.215  12.059  65.198  1.00  0.00    -0.368 A  
HETATM   42  C   UNL     1     -11.998  14.115  64.153  1.00  0.00    -0.421 A  
HETATM   43  C   UNL     1     -12.078  12.051  62.914  1.00  0.00     0.159 A  
HETATM   44  C   UNL     1     -11.456  13.441  65.250  1.00  0.00    -0.318 A  
HETATM   45  C   UNL     1     -11.524  11.377  64.006  1.00  0.00    -0.217 A  
HETATM   46  C   UNL     1     -12.313  13.421  62.987  1.00  0.00     0.156 A  
ENDBRANCH  32  41
ENDBRANCH  31  32
ENDBRANCH  18  31
ENDBRANCH   6  10
ENDBRANCH   2   3
TORSDOF 11
ENDMDL
MODEL      256
REMARK 921   NORMALIZED FREE ENERGY PREDICTED BY IDOCK:    0.39 KCAL/MOL
REMARK 922        TOTAL FREE ENERGY PREDICTED BY IDOCK:   -2.42 KCAL/MOL
REMARK 923 INTER-LIGAND FREE ENERGY PREDICTED BY IDOCK:   -3.97 KCAL/MOL
REMARK 924 INTRA-LIGAND FREE ENERGY PREDICTED BY IDOCK:    1.55 KCAL/MOL
REMARK 927      BINDING AFFINITY PREDICTED BY RF-SCORE:    0.00 PKD
ROOT
HETATM    1  C   UNL     1      -5.862  12.131  66.439  1.00  0.00     0.764 C  
HETATM    2  O   UNL     1      -6.294  11.583  67.689  1.00  0.00    -0.056 OA 
ENDROOT
BRANCH   2   3
HETATM    3  C   UNL     1      -7.551  11.041  67.676  1.00  0.00    -0.104 A  
HETATM    4  C   UNL     1      -7.654   9.675  67.374  1.00  0.00    -0.095 A  
HETATM    5  F   UNL     1      -6.538   8.972  67.110  1.00  0.00    -0.058 F  
HETATM    6  C   UNL     1      -8.898   9.030  67.358  1.00  0.00    -0.125 A  
HETATM    7  C   UNL     1     -10.055   9.778  67.617  1.00  0.00    -0.236 A  
HETATM    8  C   UNL     1      -8.716  11.779  67.914  1.00  0.00    -0.164 A  
HETATM    9  C   UNL     1      -9.959  11.146  67.890  1.00  0.00    -0.189 A  
BRANCH   6  10
HETATM   10  C   UNL     1      -8.994   7.573  67.131  1.00  0.00    -0.136 C  
HETATM   11  C   UNL     1      -8.630   7.788  64.654  1.00  0.00     0.155 C  
HETATM   12  C   UNL     1      -8.884   6.989  65.916  1.00  0.00    -0.103 C  
HETATM   13  N   UNL     1      -8.955   5.595  65.805  1.00  0.00    -0.156 N  
HETATM   14  C   UNL     1      -8.849   4.762  66.923  1.00  0.00    -0.110 C  
HETATM   15  C   UNL     1      -9.302   6.703  68.306  1.00  0.00    -0.119 C  
HETATM   16  O   UNL     1      -8.531   3.574  66.826  1.00  0.00    -0.102 OA 
HETATM   17  O   UNL     1      -9.693   7.203  69.362  1.00  0.00    -0.159 OA 
HETATM   18  N   UNL     1      -9.115   5.348  68.142  1.00  0.00    -0.108 N  
BRANCH  13  19
HETATM   19  C   UNL     1      -8.995   4.907  64.509  1.00  0.00    -0.096 C  
BRANCH  19  20
HETATM   20  C   UNL     1      -7.914   3.869  64.234  1.00  0.00    -0.086 A  
HETATM   21  F   UNL     1      -5.235   5.998  65.023  1.00  0.00    -0.012 F  
HETATM   22  C   UNL     1      -5.980   5.600  63.957  1.00  0.00    -0.025 C  
HETATM   23  C   UNL     1      -6.540   4.201  64.133  1.00  0.00    -0.043 A  
HETATM   24  F   UNL     1      -9.531   2.118  64.281  1.00  0.00    -0.120 F  
HETATM   25  C   UNL     1      -5.575   3.164  64.182  1.00  0.00    -0.010 A  
HETATM   26  C   UNL     1      -8.249   2.501  64.265  1.00  0.00    -0.082 A  
HETATM   27  F   UNL     1      -5.148   5.667  62.878  1.00  0.00    -0.011 F  
HETATM   28  F   UNL     1      -6.895   6.582  63.754  1.00  0.00    -0.040 F  
HETATM   29  C   UNL     1      -7.286   1.491  64.275  1.00  0.00    -0.051 A  
HETATM   30  C   UNL     1      -5.942   1.824  64.267  1.00  0.00    -0.013 A  
ENDBRANCH  19  20
ENDBRANCH  13  19
BRANCH  18  31
HETATM   31  C   UNL     1      -9.228   4.478  69.319  1.00  0.00    -0.133 C  
BRANCH  31  32
HETATM   32  C   UNL     1      -9.103   5.203  70.699  1.00  0.00    -0.141 C  
BRANCH  32  33
HETATM   33  N   UNL     1      -7.704   5.520  71.097  1.00  0.00    -0.101 NA 
HETATM   34  H   UNL     1      -7.695   6.277  71.780  1.00  0.00     0.000 HD 
BRANCH  33  35
HETATM   35  C   UNL     1      -6.932   4.385  71.594  1.00  0.00    -0.038 C  
BRANCH  35  36
HETATM   36  C   UNL     1      -6.092   4.791  72.814  1.00  0.00    -0.025 C  
BRANCH  36  37
HETATM   37  C   UNL     1      -5.914   6.304  72.947  1.00  0.00    -0.042 C  
HETATM   38  O   UNL     1      -7.688   7.854  72.439  1.00  0.00    -0.093 OA 
HETATM   39  C   UNL     1      -7.215   7.022  73.197  1.00  0.00    -0.073 C  
HETATM   40  O   UNL     1      -7.795   6.701  74.373  1.00  0.00    -0.107 OA 
ENDBRANCH  36  37
ENDBRANCH  35  36
ENDBRANCH  33  35
ENDBRANCH  32  33
BRANCH  32  41
HETATM   41  C   UNL     1      -9.732   4.398  71.841  1.00  0.00    -0.233 A  
HETATM   42  C   UNL     1     -10.319   2.245  72.816  1.00  0.00    -0.237 A  
HETATM   43  C   UNL     1     -10.997   4.272  73.925  1.00  0.00    -0.304 A  
HETATM   44  C   UNL     1      -9.708   2.996  71.808  1.00  0.00    -0.231 A  
HETATM   45  C   UNL     1     -10.377   5.025  72.924  1.00  0.00    -0.238 A  
HETATM   46  C   UNL     1     -10.967   2.882  73.872  1.00  0.00    -0.282 A  
ENDBRANCH  32  41
ENDBRANCH  31  32
ENDBRANCH  18  31
ENDBRANCH   6  10
ENDBRANCH   2   3
TORSDOF 11
ENDMDL
MODEL      257
REMARK 921   NORMALIZED FREE ENERGY PREDICTED BY IDOCK:    0.62 KCAL/MOL
REMARK 922        TOTAL FREE ENERGY PREDICTED BY IDOCK:   -2.04 KCAL/MOL
REMARK 923 INTER-LIGAND FREE ENERGY PREDICTED BY IDOCK:   -4.92 KCAL/MOL
REMARK 924 INTRA-LIGAND FREE ENERGY PREDICTED BY IDOCK:    2.88 KCAL/MOL
REMARK 927      BINDING AFFINITY PREDICTED BY RF-SCORE:    0.00 PKD
ROOT
HETATM    1  C   UNL     1     -10.753   4.427  62.603  1.00  0.00     0.155 C  
HETATM    2  O   UNL     1     -10.230   3.103  62.755  1.00  0.00    -0.112 OA 
ENDROOT
BRANCH   2   3
HETATM    3  C   UNL     1      -8.966   3.040  63.277  1.00  0.00    -0.091 A  
HETATM    4  C   UNL     1      -8.510   4.164  63.982  1.00  0.00    -0.103 A  
HETATM    5  F   UNL     1      -9.314   5.235  64.108  1.00  0.00     0.016 F  
HETATM    6  C   UNL     1      -7.237   4.182  64.568  1.00  0.00    -0.066 A  
HETATM    7  C   UNL     1      -6.402   3.066  64.414  1.00  0.00    -0.023 A  
HETATM    8  C   UNL     1      -8.114   1.941  63.115  1.00  0.00    -0.061 A  
HETATM    9  C   UNL     1      -6.842   1.956  63.687  1.00  0.00    -0.031 A  
BRANCH   6  10
HETATM   10  C   UNL     1      -6.795   5.329  65.388  1.00  0.00    -0.060 C  
HETATM   11  C   UNL     1      -7.486   7.016  63.659  1.00  0.00    -0.096 C  
HETATM   12  C   UNL     1      -6.891   6.619  64.995  1.00  0.00    -0.050 C  
HETATM   13  N   UNL     1      -6.477   7.642  65.857  1.00  0.00    -0.042 N  
HETATM   14  C   UNL     1      -6.234   7.407  67.213  1.00  0.00    -0.051 C  
HETATM   15  C   UNL     1      -6.140   5.038  66.699  1.00  0.00    -0.031 C  
HETATM   16  O   UNL     1      -6.244   8.316  68.048  1.00  0.00    -0.049 OA 
HETATM   17  O   UNL     1      -5.771   3.894  66.967  1.00  0.00    -0.021 OA 
HETATM   18  N   UNL     1      -5.989   6.097  67.567  1.00  0.00    -0.017 N  
BRANCH  13  19
HETATM   19  C   UNL     1      -6.410   9.048  65.440  1.00  0.00    -0.064 C  
BRANCH  19  20
HETATM   20  C   UNL     1      -7.496   9.549  64.495  1.00  0.00    -0.114 A  
HETATM   21  F   UNL     1      -9.751  10.411  67.046  1.00  0.00    -0.183 F  
HETATM   22  C   UNL     1      -9.434   9.366  66.234  1.00  0.00    -0.214 C  
HETATM   23  C   UNL     1      -8.820   9.819  64.923  1.00  0.00    -0.230 A  
HETATM   24  F   UNL     1      -5.936   9.647  62.696  1.00  0.00    -0.094 F  
HETATM   25  C   UNL     1      -9.679  10.562  64.075  1.00  0.00    -0.383 A  
HETATM   26  C   UNL     1      -7.144   9.942  63.189  1.00  0.00    -0.126 A  
HETATM   27  F   UNL     1     -10.602   8.692  66.026  1.00  0.00    -0.142 F  
HETATM   28  F   UNL     1      -8.676   8.527  66.984  1.00  0.00    -0.119 F  
HETATM   29  C   UNL     1      -8.017  10.640  62.353  1.00  0.00    -0.217 A  
HETATM   30  C   UNL     1      -9.279  10.981  62.809  1.00  0.00    -0.374 A  
ENDBRANCH  19  20
ENDBRANCH  13  19
BRANCH  18  31
HETATM   31  C   UNL     1      -5.521   5.824  68.931  1.00  0.00    -0.011 C  
BRANCH  31  32
HETATM   32  C   UNL     1      -6.647   5.646  70.000  1.00  0.00    -0.043 C  
BRANCH  32  33
HETATM   33  N   UNL     1      -7.995   6.082  69.544  1.00  0.00    -0.105 NA 
HETATM   34  H   UNL     1      -8.368   5.419  68.865  1.00  0.00     0.000 HD 
BRANCH  33  35
HETATM   35  C   UNL     1      -8.965   6.308  70.612  1.00  0.00    -0.144 C  
BRANCH  35  36
HETATM   36  C   UNL     1     -10.127   5.308  70.511  1.00  0.00    -0.315 C  
BRANCH  36  37
HETATM   37  C   UNL     1     -10.751   4.971  71.866  1.00  0.00    -0.181 C  
HETATM   38  O   UNL     1     -10.960   6.604  73.625  1.00  0.00    -0.204 OA 
HETATM   39  C   UNL     1     -11.345   6.176  72.548  1.00  0.00    -0.286 C  
HETATM   40  O   UNL     1     -12.388   6.718  71.883  1.00  0.00    -0.339 OA 
ENDBRANCH  36  37
ENDBRANCH  35  36
ENDBRANCH  33  35
ENDBRANCH  32  33
BRANCH  32  41
HETATM   41  C   UNL     1      -6.342   6.395  71.301  1.00  0.00    -0.049 A  
HETATM   42  C   UNL     1      -5.803   8.474  72.449  1.00  0.00    -0.066 A  
HETATM   43  C   UNL     1      -5.887   6.419  73.700  1.00  0.00    -0.058 A  
HETATM   44  C   UNL     1      -6.131   7.782  71.280  1.00  0.00    -0.035 A  
HETATM   45  C   UNL     1      -6.226   5.726  72.534  1.00  0.00    -0.048 A  
HETATM   46  C   UNL     1      -5.677   7.794  73.658  1.00  0.00    -0.049 A  
ENDBRANCH  32  41
ENDBRANCH  31  32
ENDBRANCH  18  31
ENDBRANCH   6  10
ENDBRANCH   2   3
TORSDOF 11
ENDMDL
MODEL      258
REMARK 921   NORMALIZED FREE ENERGY PREDICTED BY IDOCK:    0.74 KCAL/MOL
REMARK 922        TOTAL FREE ENERGY PREDICTED BY IDOCK:   -1.84 KCAL/MOL
REMARK 923 INTER-LIGAND FREE ENERGY PREDICTED BY IDOCK:   -4.40 KCAL/MOL
REMARK 924 INTRA-LIGAND FREE ENERGY PREDICTED BY IDOCK:    2.56 KCAL/MOL
REMARK 927      BINDING AFFINITY PREDICTED BY RF-SCORE:    0.00 PKD
ROOT
HETATM    1  C   UNL     1      -7.011  13.591  69.520  1.00  0.00     0.116 C  
HETATM    2  O   UNL     1      -6.001  13.200  70.455  1.00  0.00    -0.162 OA 
ENDROOT
BRANCH   2   3
HETATM    3  C   UNL     1      -6.017  11.874  70.799  1.00  0.00     0.130 A  
HETATM    4  C   UNL     1      -7.007  11.075  70.211  1.00  0.00     0.350 A  
HETATM    5  F   UNL     1      -7.885  11.632  69.358  1.00  0.00    -0.025 F  
HETATM    6  C   UNL     1      -7.088   9.703  70.487  1.00  0.00    -0.137 A  
HETATM    7  C   UNL     1      -6.178   9.138  71.392  1.00  0.00    -0.078 A  
HETATM    8  C   UNL     1      -5.128  11.300  71.715  1.00  0.00     0.048 A  
HETATM    9  C   UNL     1      -5.208   9.937  72.003  1.00  0.00    -0.044 A  
BRANCH   6  10
HETATM   10  C   UNL     1      -8.074   8.846  69.796  1.00  0.00    -0.109 C  
HETATM   11  C   UNL     1      -8.266   7.258  71.733  1.00  0.00    -0.105 C  
HETATM   12  C   UNL     1      -8.614   7.731  70.337  1.00  0.00    -0.137 C  
HETATM   13  N   UNL     1      -9.569   7.002  69.617  1.00  0.00    -0.151 N  
HETATM   14  C   UNL     1     -10.197   7.529  68.485  1.00  0.00    -0.197 C  
HETATM   15  C   UNL     1      -8.438   9.197  68.390  1.00  0.00    -0.128 C  
HETATM   16  O   UNL     1     -11.274   7.091  68.071  1.00  0.00    -0.078 OA 
HETATM   17  O   UNL     1      -7.768  10.018  67.762  1.00  0.00    -0.090 OA 
HETATM   18  N   UNL     1      -9.546   8.572  67.861  1.00  0.00    -0.149 N  
BRANCH  13  19
HETATM   19  C   UNL     1     -10.082   5.705  70.076  1.00  0.00    -0.228 C  
BRANCH  19  20
HETATM   20  C   UNL     1      -9.067   4.590  70.300  1.00  0.00    -0.159 A  
HETATM   21  F   UNL     1     -10.582   3.377  73.226  1.00  0.00    -0.207 F  
HETATM   22  C   UNL     1      -9.625   4.259  72.828  1.00  0.00    -0.128 C  
HETATM   23  C   UNL     1      -8.986   3.860  71.511  1.00  0.00    -0.156 A  
HETATM   24  F   UNL     1      -8.271   4.817  68.064  1.00  0.00    -0.093 F  
HETATM   25  C   UNL     1      -8.240   2.655  71.540  1.00  0.00    -0.068 A  
HETATM   26  C   UNL     1      -8.300   4.129  69.212  1.00  0.00    -0.069 A  
HETATM   27  F   UNL     1      -8.706   4.288  73.836  1.00  0.00    -0.096 F  
HETATM   28  F   UNL     1     -10.211   5.482  72.855  1.00  0.00    -0.185 F  
HETATM   29  C   UNL     1      -7.541   2.960  69.271  1.00  0.00    -0.047 A  
HETATM   30  C   UNL     1      -7.536   2.201  70.428  1.00  0.00    -0.039 A  
ENDBRANCH  19  20
ENDBRANCH  13  19
BRANCH  18  31
HETATM   31  C   UNL     1     -10.047   9.020  66.556  1.00  0.00    -0.283 C  
BRANCH  31  32
HETATM   32  C   UNL     1     -10.428  10.534  66.472  1.00  0.00    -0.212 C  
BRANCH  32  33
HETATM   33  N   UNL     1     -11.763  10.860  67.043  1.00  0.00    -0.203 NA 
HETATM   34  H   UNL     1     -12.499  10.416  66.494  1.00  0.00     0.000 HD 
BRANCH  33  35
HETATM   35  C   UNL     1     -11.925  10.535  68.457  1.00  0.00     0.236 C  
BRANCH  35  36
HETATM   36  C   UNL     1     -11.508  11.722  69.339  1.00  0.00    -0.371 C  
BRANCH  36  37
HETATM   37  C   UNL     1     -11.789  11.497  70.825  1.00  0.00    -0.175 C  
HETATM   38  O   UNL     1     -13.543  10.033  71.592  1.00  0.00    -0.311 OA 
HETATM   39  C   UNL     1     -12.434  10.163  71.098  1.00  0.00    -0.387 C  
HETATM   40  O   UNL     1     -11.647   9.108  70.797  1.00  0.00    -0.276 OA 
ENDBRANCH  36  37
ENDBRANCH  35  36
ENDBRANCH  33  35
ENDBRANCH  32  33
BRANCH  32  41
HETATM   41  C   UNL     1     -10.404  11.063  65.034  1.00  0.00    -0.360 A  
HETATM   42  C   UNL     1      -9.530  10.935  62.765  1.00  0.00    -0.359 A  
HETATM   43  C   UNL     1     -11.061  12.700  63.346  1.00  0.00    -0.354 A  
HETATM   44  C   UNL     1      -9.601  10.437  64.069  1.00  0.00    -0.376 A  
HETATM   45  C   UNL     1     -11.143  12.197  64.648  1.00  0.00    -0.366 A  
HETATM   46  C   UNL     1     -10.256  12.068  62.404  1.00  0.00     1.817 A  
ENDBRANCH  32  41
ENDBRANCH  31  32
ENDBRANCH  18  31
ENDBRANCH   6  10
ENDBRANCH   2   3
TORSDOF 11
ENDMDL
MODEL      259
REMARK 921   NORMALIZED FREE ENERGY PREDICTED BY IDOCK:    0.77 KCAL/MOL
REMARK 922        TOTAL FREE ENERGY PREDICTED BY IDOCK:   -1.79 KCAL/MOL
REMARK 923 INTER-LIGAND FREE ENERGY PREDICTED BY IDOCK:   -0.18 KCAL/MOL
REMARK 924 INTRA-LIGAND FREE ENERGY PREDICTED BY IDOCK:   -1.62 KCAL/MOL
REMARK 927      BINDING AFFINITY PREDICTED BY RF-SCORE:    0.00 PKD
ROOT
HETATM    1  C   UNL     1     -10.851  12.659  63.079  1.00  0.00     0.582 C  
HETATM    2  O   UNL     1     -10.315  11.340  62.930  1.00  0.00    -0.237 OA 
ENDROOT
BRANCH   2   3
HETATM    3  C   UNL     1      -9.008  11.204  63.317  1.00  0.00    -0.131 A  
HETATM    4  C   UNL     1      -8.724  11.375  64.679  1.00  0.00     0.367 A  
HETATM    5  F   UNL     1      -9.724  11.667  65.530  1.00  0.00    -0.226 F  
HETATM    6  C   UNL     1      -7.419  11.234  65.169  1.00  0.00     0.764 A  
HETATM    7  C   UNL     1      -6.383  10.947  64.269  1.00  0.00     0.476 A  
HETATM    8  C   UNL     1      -7.961  10.937  62.427  1.00  0.00    -0.200 A  
HETATM    9  C   UNL     1      -6.657  10.804  62.905  1.00  0.00     0.075 A  
BRANCH   6  10
HETATM   10  C   UNL     1      -7.137  11.324  66.617  1.00  0.00    -0.127 C  
HETATM   11  C   UNL     1      -7.308  13.831  66.641  1.00  0.00     1.376 C  
HETATM   12  C   UNL     1      -7.075  12.487  67.302  1.00  0.00    -0.112 C  
HETATM   13  N   UNL     1      -6.836  12.470  68.682  1.00  0.00    -0.083 N  
HETATM   14  C   UNL     1      -6.942  11.295  69.432  1.00  0.00    -0.109 C  
HETATM   15  C   UNL     1      -6.835  10.057  67.348  1.00  0.00    -0.082 C  
HETATM   16  O   UNL     1      -7.113  11.311  70.654  1.00  0.00     0.412 OA 
HETATM   17  O   UNL     1      -6.596   9.022  66.724  1.00  0.00    -0.063 OA 
HETATM   18  N   UNL     1      -6.851  10.115  68.725  1.00  0.00    -0.060 N  
BRANCH  13  19
HETATM   19  C   UNL     1      -6.605  13.694  69.459  1.00  0.00    -0.069 C  
BRANCH  19  20
HETATM   20  C   UNL     1      -7.733  14.717  69.505  1.00  0.00    -0.068 A  
HETATM   21  F   UNL     1      -5.733  17.427  68.510  1.00  0.00    -0.144 F  
HETATM   22  C   UNL     1      -6.166  16.800  69.638  1.00  0.00    -0.228 C  
HETATM   23  C   UNL     1      -7.504  16.114  69.438  1.00  0.00    -0.181 A  
HETATM   24  F   UNL     1      -9.360  12.975  69.555  1.00  0.00     0.592 F  
HETATM   25  C   UNL     1      -8.598  16.979  69.180  1.00  0.00    -0.024 A  
HETATM   26  C   UNL     1      -9.068  14.274  69.421  1.00  0.00     0.415 A  
HETATM   27  F   UNL     1      -6.246  17.771  70.593  1.00  0.00    -0.006 F  
HETATM   28  F   UNL     1      -5.145  16.001  70.037  1.00  0.00    -0.112 F  
HETATM   29  C   UNL     1     -10.136  15.145  69.203  1.00  0.00    -0.245 A  
HETATM   30  C   UNL     1      -9.898  16.499  69.049  1.00  0.00    -0.266 A  
ENDBRANCH  19  20
ENDBRANCH  13  19
BRANCH  18  31
HETATM   31  C   UNL     1      -6.742   8.861  69.480  1.00  0.00    -0.047 C  
BRANCH  31  32
HETATM   32  C   UNL     1      -8.062   8.030  69.587  1.00  0.00    -0.119 C  
BRANCH  32  33
HETATM   33  N   UNL     1      -8.267   7.065  68.472  1.00  0.00    -0.123 NA 
HETATM   34  H   UNL     1      -8.074   7.514  67.578  1.00  0.00     0.000 HD 
BRANCH  33  35
HETATM   35  C   UNL     1      -7.511   5.822  68.585  1.00  0.00    -0.085 C  
BRANCH  35  36
HETATM   36  C   UNL     1      -8.225   4.834  69.521  1.00  0.00    -0.076 C  
BRANCH  36  37
HETATM   37  C   UNL     1      -7.312   4.267  70.608  1.00  0.00    -0.048 C  
HETATM   38  O   UNL     1      -7.815   4.496  72.954  1.00  0.00    -0.085 OA 
HETATM   39  C   UNL     1      -8.052   3.958  71.884  1.00  0.00    -0.075 C  
HETATM   40  O   UNL     1      -8.977   2.982  71.753  1.00  0.00    -0.083 OA 
ENDBRANCH  36  37
ENDBRANCH  35  36
ENDBRANCH  33  35
ENDBRANCH  32  33
BRANCH  32  41
HETATM   41  C   UNL     1      -9.308   8.918  69.658  1.00  0.00    -0.163 A  
HETATM   42  C   UNL     1     -11.083   9.943  70.973  1.00  0.00    -0.401 A  
HETATM   43  C   UNL     1     -11.068  10.225  68.582  1.00  0.00    -0.290 A  
HETATM   44  C   UNL     1      -9.918   9.175  70.895  1.00  0.00    -0.357 A  
HETATM   45  C   UNL     1      -9.896   9.467  68.502  1.00  0.00    -0.171 A  
HETATM   46  C   UNL     1     -11.660  10.465  69.818  1.00  0.00    -0.339 A  
ENDBRANCH  32  41
ENDBRANCH  31  32
ENDBRANCH  18  31
ENDBRANCH   6  10
ENDBRANCH   2   3
TORSDOF 11
ENDMDL
MODEL      260
REMARK 921   NORMALIZED FREE ENERGY PREDICTED BY IDOCK:    0.92 KCAL/MOL
REMARK 922        TOTAL FREE ENERGY PREDICTED BY IDOCK:   -1.55 KCAL/MOL
REMARK 923 INTER-LIGAND FREE ENERGY PREDICTED BY IDOCK:   -3.78 KCAL/MOL
REMARK 924 INTRA-LIGAND FREE ENERGY PREDICTED BY IDOCK:    2.23 KCAL/MOL
REMARK 927      BINDING AFFINITY PREDICTED BY RF-SCORE:    0.00 PKD
ROOT
HETATM    1  C   UNL     1      -7.406  13.348  69.502  1.00  0.00     0.404 C  
HETATM    2  O   UNL     1      -6.326  12.891  70.322  1.00  0.00    -0.049 OA 
ENDROOT
BRANCH   2   3
HETATM    3  C   UNL     1      -6.226  11.529  70.435  1.00  0.00    -0.018 A  
HETATM    4  C   UNL     1      -7.270  10.766  69.894  1.00  0.00    -0.050 A  
HETATM    5  F   UNL     1      -8.307  11.389  69.305  1.00  0.00    -0.076 F  
HETATM    6  C   UNL     1      -7.244   9.366  69.945  1.00  0.00    -0.083 A  
HETATM    7  C   UNL     1      -6.167   8.729  70.578  1.00  0.00    -0.037 A  
HETATM    8  C   UNL     1      -5.167  10.881  71.080  1.00  0.00    -0.093 A  
HETATM    9  C   UNL     1      -5.138   9.487  71.144  1.00  0.00    -0.042 A  
BRANCH   6  10
HETATM   10  C   UNL     1      -8.300   8.562  69.293  1.00  0.00    -0.120 C  
HETATM   11  C   UNL     1      -9.217   7.729  71.479  1.00  0.00    -0.164 C  
HETATM   12  C   UNL     1      -9.198   7.809  69.966  1.00  0.00    -0.153 C  
HETATM   13  N   UNL     1     -10.185   7.108  69.262  1.00  0.00    -0.184 N  
HETATM   14  C   UNL     1     -10.460   7.377  67.918  1.00  0.00    -0.205 C  
HETATM   15  C   UNL     1      -8.327   8.529  67.800  1.00  0.00    -0.130 C  
HETATM   16  O   UNL     1     -11.534   7.068  67.395  1.00  0.00    -0.047 OA 
HETATM   17  O   UNL     1      -7.371   8.955  67.152  1.00  0.00    -0.082 OA 
HETATM   18  N   UNL     1      -9.463   8.016  67.211  1.00  0.00    -0.149 N  
BRANCH  13  19
HETATM   19  C   UNL     1     -11.093   6.155  69.911  1.00  0.00    -0.410 C  
BRANCH  19  20
HETATM   20  C   UNL     1     -10.522   5.302  71.039  1.00  0.00    -0.274 A  
HETATM   21  F   UNL     1     -13.303   5.680  73.149  1.00  0.00     0.464 F  
HETATM   22  C   UNL     1     -12.099   6.257  72.886  1.00  0.00     0.411 C  
HETATM   23  C   UNL     1     -11.092   5.265  72.335  1.00  0.00    -0.260 A  
HETATM   24  F   UNL     1      -8.872   4.402  69.572  1.00  0.00    -0.096 F  
HETATM   25  C   UNL     1     -10.702   4.236  73.229  1.00  0.00    -0.299 A  
HETATM   26  C   UNL     1      -9.506   4.370  70.750  1.00  0.00    -0.173 A  
HETATM   27  F   UNL     1     -11.675   6.785  74.071  1.00  0.00     0.893 F  
HETATM   28  F   UNL     1     -12.363   7.331  72.100  1.00  0.00    -0.309 F  
HETATM   29  C   UNL     1      -9.109   3.387  71.657  1.00  0.00    -0.171 A  
HETATM   30  C   UNL     1      -9.732   3.297  72.890  1.00  0.00    -0.179 A  
ENDBRANCH  19  20
ENDBRANCH  13  19
BRANCH  18  31
HETATM   31  C   UNL     1      -9.610   8.131  65.755  1.00  0.00     0.181 C  
BRANCH  31  32
HETATM   32  C   UNL     1     -10.100   9.525  65.243  1.00  0.00     0.199 C  
BRANCH  32  33
HETATM   33  N   UNL     1      -9.175  10.180  64.279  1.00  0.00    -0.245 NA 
HETATM   34  H   UNL     1      -8.441   9.530  63.998  1.00  0.00     0.000 HD 
BRANCH  33  35
HETATM   35  C   UNL     1      -9.817  10.754  63.100  1.00  0.00    -0.334 C  
BRANCH  35  36
HETATM   36  C   UNL     1      -9.487  12.249  62.975  1.00  0.00     0.829 C  
BRANCH  36  37
HETATM   37  C   UNL     1     -10.352  13.135  63.874  1.00  0.00    -0.018 C  
HETATM   38  O   UNL     1     -12.428  14.094  63.115  1.00  0.00    -0.678 OA 
HETATM   39  C   UNL     1     -11.807  13.110  63.486  1.00  0.00    -0.476 C  
HETATM   40  O   UNL     1     -12.389  11.900  63.636  1.00  0.00    -0.505 OA 
ENDBRANCH  36  37
ENDBRANCH  35  36
ENDBRANCH  33  35
ENDBRANCH  32  33
BRANCH  32  41
HETATM   41  C   UNL     1     -10.345  10.515  66.386  1.00  0.00    -0.283 A  
HETATM   42  C   UNL     1      -9.646  12.476  67.650  1.00  0.00    -0.190 A  
HETATM   43  C   UNL     1     -11.587  11.240  68.359  1.00  0.00    -0.378 A  
HETATM   44  C   UNL     1      -9.467  11.591  66.583  1.00  0.00    -0.208 A  
HETATM   45  C   UNL     1     -11.417  10.361  67.286  1.00  0.00     0.271 A  
HETATM   46  C   UNL     1     -10.703  12.299  68.540  1.00  0.00    -0.261 A  
ENDBRANCH  32  41
ENDBRANCH  31  32
ENDBRANCH  18  31
ENDBRANCH   6  10
ENDBRANCH   2   3
TORSDOF 11
ENDMDL
MODEL      261
REMARK 921   NORMALIZED FREE ENERGY PREDICTED BY IDOCK:    0.99 KCAL/MOL
REMARK 922        TOTAL FREE ENERGY PREDICTED BY IDOCK:   -1.43 KCAL/MOL
REMARK 923 INTER-LIGAND FREE ENERGY PREDICTED BY IDOCK:   -4.62 KCAL/MOL
REMARK 924 INTRA-LIGAND FREE ENERGY PREDICTED BY IDOCK:    3.20 KCAL/MOL
REMARK 927      BINDING AFFINITY PREDICTED BY RF-SCORE:    0.00 PKD
ROOT
HETATM    1  C   UNL     1     -13.026  16.082  63.912  1.00  0.00     2.134 C  
HETATM    2  O   UNL     1     -13.214  14.665  63.976  1.00  0.00     0.091 OA 
ENDROOT
BRANCH   2   3
HETATM    3  C   UNL     1     -12.062  13.937  64.113  1.00  0.00    -0.425 A  
HETATM    4  C   UNL     1     -11.236  14.250  65.202  1.00  0.00    -0.345 A  
HETATM    5  F   UNL     1     -11.598  15.234  66.044  1.00  0.00    -0.294 F  
HETATM    6  C   UNL     1     -10.047  13.545  65.434  1.00  0.00    -0.279 A  
HETATM    7  C   UNL     1      -9.672  12.533  64.539  1.00  0.00     0.037 A  
HETATM    8  C   UNL     1     -11.665  12.938  63.217  1.00  0.00    -0.408 A  
HETATM    9  C   UNL     1     -10.478  12.238  63.436  1.00  0.00    -0.408 A  
BRANCH   6  10
HETATM   10  C   UNL     1      -9.226  13.814  66.633  1.00  0.00    -0.238 C  
HETATM   11  C   UNL     1      -9.869  16.242  66.706  1.00  0.00    -0.254 C  
HETATM   12  C   UNL     1      -9.124  15.027  67.221  1.00  0.00    -0.201 C  
HETATM   13  N   UNL     1      -8.347  15.177  68.376  1.00  0.00    -0.148 N  
HETATM   14  C   UNL     1      -7.903  14.075  69.112  1.00  0.00     0.106 C  
HETATM   15  C   UNL     1      -8.406  12.692  67.182  1.00  0.00    -0.172 C  
HETATM   16  O   UNL     1      -7.562  14.170  70.294  1.00  0.00     0.617 OA 
HETATM   17  O   UNL     1      -8.240  11.665  66.524  1.00  0.00    -0.164 OA 
HETATM   18  N   UNL     1      -7.873  12.870  68.441  1.00  0.00    -0.137 N  
BRANCH  13  19
HETATM   19  C   UNL     1      -8.070  16.488  68.977  1.00  0.00    -0.214 C  
BRANCH  19  20
HETATM   20  C   UNL     1      -7.868  17.663  68.028  1.00  0.00    -0.235 A  
HETATM   21  F   UNL     1     -10.001  19.838  69.775  1.00  0.00    -0.442 F  
HETATM   22  C   UNL     1     -10.028  18.935  68.758  1.00  0.00    -0.408 C  
HETATM   23  C   UNL     1      -8.688  18.819  68.055  1.00  0.00    -0.324 A  
HETATM   24  F   UNL     1      -5.945  16.619  67.084  1.00  0.00    -0.140 F  
HETATM   25  C   UNL     1      -8.261  19.982  67.366  1.00  0.00    -0.373 A  
HETATM   26  C   UNL     1      -6.719  17.703  67.215  1.00  0.00    -0.161 A  
HETATM   27  F   UNL     1     -10.998  19.370  67.903  1.00  0.00    -0.482 F  
HETATM   28  F   UNL     1     -10.519  17.788  69.289  1.00  0.00    -0.360 F  
HETATM   29  C   UNL     1      -6.334  18.846  66.514  1.00  0.00    -0.208 A  
HETATM   30  C   UNL     1      -7.089  20.001  66.615  1.00  0.00    -0.268 A  
ENDBRANCH  19  20
ENDBRANCH  13  19
BRANCH  18  31
HETATM   31  C   UNL     1      -7.219  11.730  69.092  1.00  0.00    -0.043 C  
BRANCH  31  32
HETATM   32  C   UNL     1      -8.186  10.636  69.652  1.00  0.00     0.064 C  
BRANCH  32  33
HETATM   33  N   UNL     1      -7.720   9.240  69.434  1.00  0.00    -0.078 NA 
HETATM   34  H   UNL     1      -7.046   9.209  68.669  1.00  0.00     0.000 HD 
BRANCH  33  35
HETATM   35  C   UNL     1      -7.170   8.582  70.616  1.00  0.00    -0.052 C  
BRANCH  35  36
HETATM   36  C   UNL     1      -7.454   7.072  70.579  1.00  0.00    -0.088 C  
BRANCH  36  37
HETATM   37  C   UNL     1      -7.609   6.522  69.161  1.00  0.00    -0.100 C  
HETATM   38  O   UNL     1      -5.916   6.829  67.473  1.00  0.00    -0.022 OA 
HETATM   39  C   UNL     1      -6.285   6.263  68.491  1.00  0.00    -0.032 C  
HETATM   40  O   UNL     1      -5.553   5.299  69.090  1.00  0.00    -0.007 OA 
ENDBRANCH  36  37
ENDBRANCH  35  36
ENDBRANCH  33  35
ENDBRANCH  32  33
BRANCH  32  41
HETATM   41  C   UNL     1      -9.595  10.745  69.061  1.00  0.00    -0.193 A  
HETATM   42  C   UNL     1     -11.259   9.992  67.449  1.00  0.00    -0.004 A  
HETATM   43  C   UNL     1     -11.768  11.846  68.898  1.00  0.00    -0.381 A  
HETATM   44  C   UNL     1      -9.994   9.876  68.034  1.00  0.00    -0.179 A  
HETATM   45  C   UNL     1     -10.509  11.725  69.493  1.00  0.00     0.244 A  
HETATM   46  C   UNL     1     -12.144  10.978  67.878  1.00  0.00     0.356 A  
ENDBRANCH  32  41
ENDBRANCH  31  32
ENDBRANCH  18  31
ENDBRANCH   6  10
ENDBRANCH   2   3
TORSDOF 11
ENDMDL
MODEL      262
REMARK 921   NORMALIZED FREE ENERGY PREDICTED BY IDOCK:    1.05 KCAL/MOL
REMARK 922        TOTAL FREE ENERGY PREDICTED BY IDOCK:   -1.33 KCAL/MOL
REMARK 923 INTER-LIGAND FREE ENERGY PREDICTED BY IDOCK:   -4.48 KCAL/MOL
REMARK 924 INTRA-LIGAND FREE ENERGY PREDICTED BY IDOCK:    3.15 KCAL/MOL
REMARK 927      BINDING AFFINITY PREDICTED BY RF-SCORE:    0.00 PKD
ROOT
HETATM    1  C   UNL     1     -10.715   5.466  66.673  1.00  0.00    -0.236 C  
HETATM    2  O   UNL     1     -10.983   6.781  66.175  1.00  0.00     0.582 OA 
ENDROOT
BRANCH   2   3
HETATM    3  C   UNL     1      -9.882   7.464  65.732  1.00  0.00     0.721 A  
HETATM    4  C   UNL     1      -9.826   8.837  66.013  1.00  0.00    -0.164 A  
HETATM    5  F   UNL     1     -10.837   9.414  66.687  1.00  0.00    -0.243 F  
HETATM    6  C   UNL     1      -8.728   9.612  65.616  1.00  0.00    -0.163 A  
HETATM    7  C   UNL     1      -7.689   9.002  64.899  1.00  0.00    -0.111 A  
HETATM    8  C   UNL     1      -8.847   6.872  64.999  1.00  0.00     0.310 A  
HETATM    9  C   UNL     1      -7.755   7.640  64.591  1.00  0.00    -0.121 A  
BRANCH   6  10
HETATM   10  C   UNL     1      -8.628  11.037  65.994  1.00  0.00    -0.173 C  
HETATM   11  C   UNL     1     -11.095  11.431  65.722  1.00  0.00    -0.217 C  
HETATM   12  C   UNL     1      -9.683  11.881  66.042  1.00  0.00    -0.237 C  
HETATM   13  N   UNL     1      -9.495  13.208  66.446  1.00  0.00    -0.248 N  
HETATM   14  C   UNL     1      -8.319  13.626  67.074  1.00  0.00    -0.082 C  
HETATM   15  C   UNL     1      -7.269  11.591  66.271  1.00  0.00     0.147 C  
HETATM   16  O   UNL     1      -8.271  14.649  67.763  1.00  0.00    -0.141 OA 
HETATM   17  O   UNL     1      -6.263  10.950  65.964  1.00  0.00    -0.132 OA 
HETATM   18  N   UNL     1      -7.213  12.823  66.885  1.00  0.00     0.143 N  
BRANCH  13  19
HETATM   19  C   UNL     1     -10.562  14.214  66.375  1.00  0.00    -0.280 C  
BRANCH  19  20
HETATM   20  C   UNL     1     -10.856  15.012  67.640  1.00  0.00    -0.291 A  
HETATM   21  F   UNL     1     -10.593  12.260  69.807  1.00  0.00     0.081 F  
HETATM   22  C   UNL     1     -11.522  12.940  69.082  1.00  0.00    -0.306 C  
HETATM   23  C   UNL     1     -11.147  14.397  68.883  1.00  0.00    -0.277 A  
HETATM   24  F   UNL     1     -10.453  17.059  66.488  1.00  0.00    -0.300 F  
HETATM   25  C   UNL     1     -11.107  15.180  70.064  1.00  0.00    -0.297 A  
HETATM   26  C   UNL     1     -10.654  16.406  67.639  1.00  0.00    -0.313 A  
HETATM   27  F   UNL     1     -12.691  12.821  69.776  1.00  0.00    -0.074 F  
HETATM   28  F   UNL     1     -11.714  12.219  67.950  1.00  0.00    -0.337 F  
HETATM   29  C   UNL     1     -10.656  17.167  68.808  1.00  0.00    -0.336 A  
HETATM   30  C   UNL     1     -10.850  16.547  70.030  1.00  0.00    -0.258 A  
ENDBRANCH  19  20
ENDBRANCH  13  19
BRANCH  18  31
HETATM   31  C   UNL     1      -5.909  13.321  67.341  1.00  0.00     0.063 C  
BRANCH  31  32
HETATM   32  C   UNL     1      -5.783  13.545  68.883  1.00  0.00    -0.074 C  
BRANCH  32  33
HETATM   33  N   UNL     1      -6.916  12.993  69.674  1.00  0.00    -0.330 NA 
HETATM   34  H   UNL     1      -7.799  13.380  69.342  1.00  0.00     0.000 HD 
BRANCH  33  35
HETATM   35  C   UNL     1      -6.988  11.536  69.715  1.00  0.00     0.088 C  
BRANCH  35  36
HETATM   36  C   UNL     1      -5.721  10.946  70.353  1.00  0.00    -0.117 C  
BRANCH  36  37
HETATM   37  C   UNL     1      -5.992   9.689  71.181  1.00  0.00    -0.072 C  
HETATM   38  O   UNL     1      -7.509   7.969  70.443  1.00  0.00    -0.072 OA 
HETATM   39  C   UNL     1      -6.425   8.520  70.335  1.00  0.00    -0.036 C  
HETATM   40  O   UNL     1      -5.477   8.092  69.473  1.00  0.00    -0.026 OA 
ENDBRANCH  36  37
ENDBRANCH  35  36
ENDBRANCH  33  35
ENDBRANCH  32  33
BRANCH  32  41
HETATM   41  C   UNL     1      -5.648  15.027  69.249  1.00  0.00    -0.094 A  
HETATM   42  C   UNL     1      -5.196  17.323  68.575  1.00  0.00    -0.137 A  
HETATM   43  C   UNL     1      -5.574  16.824  70.900  1.00  0.00     0.104 A  
HETATM   44  C   UNL     1      -5.370  15.974  68.252  1.00  0.00    -0.107 A  
HETATM   45  C   UNL     1      -5.760  15.476  70.578  1.00  0.00    -0.096 A  
HETATM   46  C   UNL     1      -5.294  17.748  69.898  1.00  0.00    -0.220 A  
ENDBRANCH  32  41
ENDBRANCH  31  32
ENDBRANCH  18  31
ENDBRANCH   6  10
ENDBRANCH   2   3
TORSDOF 11
ENDMDL
MODEL      263
REMARK 921   NORMALIZED FREE ENERGY PREDICTED BY IDOCK:    1.34 KCAL/MOL
REMARK 922        TOTAL FREE ENERGY PREDICTED BY IDOCK:   -0.86 KCAL/MOL
REMARK 923 INTER-LIGAND FREE ENERGY PREDICTED BY IDOCK:   -0.91 KCAL/MOL
REMARK 924 INTRA-LIGAND FREE ENERGY PREDICTED BY IDOCK:    0.05 KCAL/MOL
REMARK 927      BINDING AFFINITY PREDICTED BY RF-SCORE:    0.00 PKD
ROOT
HETATM    1  C   UNL     1     -13.965  13.246  65.198  1.00  0.00     3.265 C  
HETATM    2  O   UNL     1     -13.585  11.926  64.798  1.00  0.00     0.351 OA 
ENDROOT
BRANCH   2   3
HETATM    3  C   UNL     1     -12.247  11.760  64.557  1.00  0.00    -0.016 A  
HETATM    4  C   UNL     1     -11.379  11.917  65.646  1.00  0.00    -0.284 A  
HETATM    5  F   UNL     1     -11.884  12.223  66.854  1.00  0.00    -0.406 F  
HETATM    6  C   UNL     1      -9.996  11.747  65.498  1.00  0.00    -0.273 A  
HETATM    7  C   UNL     1      -9.480  11.446  64.230  1.00  0.00    -0.153 A  
HETATM    8  C   UNL     1     -11.717  11.479  63.292  1.00  0.00    -0.107 A  
HETATM    9  C   UNL     1     -10.340  11.317  63.135  1.00  0.00    -0.338 A  
BRANCH   6  10
HETATM   10  C   UNL     1      -9.092  11.822  66.665  1.00  0.00    -0.194 C  
HETATM   11  C   UNL     1      -9.792  14.166  67.239  1.00  0.00    -0.238 C  
HETATM   12  C   UNL     1      -8.978  12.907  67.462  1.00  0.00    -0.193 C  
HETATM   13  N   UNL     1      -8.119  12.871  68.568  1.00  0.00    -0.120 N  
HETATM   14  C   UNL     1      -7.590  11.671  69.050  1.00  0.00    -0.027 C  
HETATM   15  C   UNL     1      -8.203  10.651  66.934  1.00  0.00    -0.123 C  
HETATM   16  O   UNL     1      -7.162  11.559  70.202  1.00  0.00     0.229 OA 
HETATM   17  O   UNL     1      -8.061   9.772  66.085  1.00  0.00    -0.108 OA 
HETATM   18  N   UNL     1      -7.580  10.614  68.163  1.00  0.00    -0.090 N  
BRANCH  13  19
HETATM   19  C   UNL     1      -7.831  14.058  69.384  1.00  0.00     0.308 C  
BRANCH  19  20
HETATM   20  C   UNL     1      -7.224  15.263  68.675  1.00  0.00    -0.121 A  
HETATM   21  F   UNL     1      -9.406  17.603  70.123  1.00  0.00     0.935 F  
HETATM   22  C   UNL     1      -9.294  16.815  69.019  1.00  0.00    -0.212 C  
HETATM   23  C   UNL     1      -7.849  16.535  68.654  1.00  0.00    -0.226 A  
HETATM   24  F   UNL     1      -5.289  13.995  68.098  1.00  0.00    -0.089 F  
HETATM   25  C   UNL     1      -7.095  17.665  68.249  1.00  0.00    -0.223 A  
HETATM   26  C   UNL     1      -5.908  15.179  68.179  1.00  0.00    -0.133 A  
HETATM   27  F   UNL     1      -9.936  17.485  68.019  1.00  0.00    -0.264 F  
HETATM   28  F   UNL     1     -10.065  15.725  69.260  1.00  0.00    -0.195 F  
HETATM   29  C   UNL     1      -5.195  16.298  67.748  1.00  0.00    -0.142 A  
HETATM   30  C   UNL     1      -5.778  17.551  67.814  1.00  0.00    -0.146 A  
ENDBRANCH  19  20
ENDBRANCH  13  19
BRANCH  18  31
HETATM   31  C   UNL     1      -6.847   9.399  68.541  1.00  0.00    -0.062 C  
BRANCH  31  32
HETATM   32  C   UNL     1      -7.740   8.163  68.886  1.00  0.00    -0.103 C  
BRANCH  32  33
HETATM   33  N   UNL     1      -8.161   7.365  67.703  1.00  0.00    -0.117 NA 
HETATM   34  H   UNL     1      -8.786   7.914  67.112  1.00  0.00     0.000 HD 
BRANCH  33  35
HETATM   35  C   UNL     1      -7.067   6.818  66.906  1.00  0.00    -0.075 C  
BRANCH  35  36
HETATM   36  C   UNL     1      -6.252   5.805  67.724  1.00  0.00    -0.030 C  
BRANCH  36  37
HETATM   37  C   UNL     1      -7.124   4.848  68.539  1.00  0.00    -0.057 C  
HETATM   38  O   UNL     1      -8.258   2.974  67.534  1.00  0.00    -0.079 OA 
HETATM   39  C   UNL     1      -7.214   3.477  67.921  1.00  0.00    -0.051 C  
HETATM   40  O   UNL     1      -6.035   2.820  67.881  1.00  0.00    -0.023 OA 
ENDBRANCH  36  37
ENDBRANCH  35  36
ENDBRANCH  33  35
ENDBRANCH  32  33
BRANCH  32  41
HETATM   41  C   UNL     1      -9.009   8.553  69.650  1.00  0.00    -0.145 A  
HETATM   42  C   UNL     1     -10.059   9.460  71.652  1.00  0.00    -0.063 A  
HETATM   43  C   UNL     1     -11.440   8.613  69.870  1.00  0.00     0.144 A  
HETATM   44  C   UNL     1      -8.911   9.142  70.920  1.00  0.00    -0.298 A  
HETATM   45  C   UNL     1     -10.294   8.305  69.131  1.00  0.00    -0.225 A  
HETATM   46  C   UNL     1     -11.322   9.193  71.130  1.00  0.00    -0.392 A  
ENDBRANCH  32  41
ENDBRANCH  31  32
ENDBRANCH  18  31
ENDBRANCH   6  10
ENDBRANCH   2   3
TORSDOF 11
ENDMDL
MODEL      264
REMARK 921   NORMALIZED FREE ENERGY PREDICTED BY IDOCK:    1.44 KCAL/MOL
REMARK 922        TOTAL FREE ENERGY PREDICTED BY IDOCK:   -0.69 KCAL/MOL
REMARK 923 INTER-LIGAND FREE ENERGY PREDICTED BY IDOCK:   -4.45 KCAL/MOL
REMARK 924 INTRA-LIGAND FREE ENERGY PREDICTED BY IDOCK:    3.76 KCAL/MOL
REMARK 927      BINDING AFFINITY PREDICTED BY RF-SCORE:    0.00 PKD
ROOT
HETATM    1  C   UNL     1      -5.259  17.941  65.239  1.00  0.00    -0.035 C  
HETATM    2  O   UNL     1      -6.000  19.035  65.789  1.00  0.00    -0.167 OA 
ENDROOT
BRANCH   2   3
HETATM    3  C   UNL     1      -7.292  18.739  66.132  1.00  0.00    -0.262 A  
HETATM    4  C   UNL     1      -7.546  17.445  66.607  1.00  0.00    -0.256 A  
HETATM    5  F   UNL     1      -6.533  16.565  66.698  1.00  0.00    -0.219 F  
HETATM    6  C   UNL     1      -8.834  17.059  67.001  1.00  0.00    -0.242 A  
HETATM    7  C   UNL     1      -9.885  17.979  66.885  1.00  0.00    -0.330 A  
HETATM    8  C   UNL     1      -8.354  19.642  66.003  1.00  0.00    -0.294 A  
HETATM    9  C   UNL     1      -9.642  19.262  66.384  1.00  0.00    -0.425 A  
BRANCH   6  10
HETATM   10  C   UNL     1      -9.081  15.725  67.588  1.00  0.00    -0.193 C  
HETATM   11  C   UNL     1     -10.041  16.674  69.706  1.00  0.00     0.042 C  
HETATM   12  C   UNL     1      -9.619  15.526  68.812  1.00  0.00    -0.208 C  
HETATM   13  N   UNL     1      -9.848  14.223  69.269  1.00  0.00     0.022 N  
HETATM   14  C   UNL     1      -9.810  13.124  68.406  1.00  0.00    -0.206 C  
HETATM   15  C   UNL     1      -8.644  14.528  66.807  1.00  0.00    -0.131 C  
HETATM   16  O   UNL     1     -10.363  12.055  68.681  1.00  0.00    -0.216 OA 
HETATM   17  O   UNL     1      -7.899  14.660  65.835  1.00  0.00     1.718 OA 
HETATM   18  N   UNL     1      -9.123  13.305  67.224  1.00  0.00    -0.212 N  
BRANCH  13  19
HETATM   19  C   UNL     1     -10.284  13.931  70.640  1.00  0.00     2.679 C  
BRANCH  19  20
HETATM   20  C   UNL     1     -11.776  14.034  70.935  1.00  0.00    -0.136 A  
HETATM   21  F   UNL     1     -12.043  10.810  72.301  1.00  0.00     0.113 F  
HETATM   22  C   UNL     1     -12.166  11.459  71.111  1.00  0.00    -0.224 C  
HETATM   23  C   UNL     1     -12.567  12.911  71.286  1.00  0.00    -0.352 A  
HETATM   24  F   UNL     1     -11.704  16.401  70.663  1.00  0.00    -0.372 F  
HETATM   25  C   UNL     1     -13.856  13.123  71.838  1.00  0.00    -0.252 A  
HETATM   26  C   UNL     1     -12.369  15.306  71.052  1.00  0.00    -0.367 A  
HETATM   27  F   UNL     1     -13.108  10.767  70.408  1.00  0.00    -0.359 F  
HETATM   28  F   UNL     1     -11.004  11.242  70.445  1.00  0.00    -0.199 F  
HETATM   29  C   UNL     1     -13.654  15.493  71.562  1.00  0.00    -0.571 A  
HETATM   30  C   UNL     1     -14.389  14.400  71.988  1.00  0.00    -0.636 A  
ENDBRANCH  19  20
ENDBRANCH  13  19
BRANCH  18  31
HETATM   31  C   UNL     1      -8.870  12.130  66.382  1.00  0.00    -0.100 C  
BRANCH  31  32
HETATM   32  C   UNL     1     -10.119  11.233  66.096  1.00  0.00    -0.236 C  
BRANCH  32  33
HETATM   33  N   UNL     1      -9.789   9.850  65.656  1.00  0.00    -0.286 NA 
HETATM   34  H   UNL     1      -9.226   9.876  64.806  1.00  0.00     0.000 HD 
BRANCH  33  35
HETATM   35  C   UNL     1      -9.138   9.020  66.665  1.00  0.00    -0.160 C  
BRANCH  35  36
HETATM   36  C   UNL     1     -10.084   8.758  67.847  1.00  0.00    -0.257 C  
BRANCH  36  37
HETATM   37  C   UNL     1      -9.523   7.758  68.858  1.00  0.00    -0.150 C  
HETATM   38  O   UNL     1      -7.245   7.861  69.637  1.00  0.00    -0.067 OA 
HETATM   39  C   UNL     1      -8.376   8.321  69.656  1.00  0.00    -0.123 C  
HETATM   40  O   UNL     1      -8.723   9.359  70.447  1.00  0.00    -0.208 OA 
ENDBRANCH  36  37
ENDBRANCH  35  36
ENDBRANCH  33  35
ENDBRANCH  32  33
BRANCH  32  41
HETATM   41  C   UNL     1     -11.045  11.841  65.037  1.00  0.00    -0.343 A  
HETATM   42  C   UNL     1     -13.002  13.178  64.480  1.00  0.00    -0.046 A  
HETATM   43  C   UNL     1     -11.768  12.093  62.719  1.00  0.00     0.523 A  
HETATM   44  C   UNL     1     -12.118  12.655  65.428  1.00  0.00    -0.516 A  
HETATM   45  C   UNL     1     -10.876  11.578  63.664  1.00  0.00    -0.488 A  
HETATM   46  C   UNL     1     -12.830  12.895  63.127  1.00  0.00     0.299 A  
ENDBRANCH  32  41
ENDBRANCH  31  32
ENDBRANCH  18  31
ENDBRANCH   6  10
ENDBRANCH   2   3
TORSDOF 11
ENDMDL
MODEL      265
REMARK 921   NORMALIZED FREE ENERGY PREDICTED BY IDOCK:    1.57 KCAL/MOL
REMARK 922        TOTAL FREE ENERGY PREDICTED BY IDOCK:   -0.48 KCAL/MOL
REMARK 923 INTER-LIGAND FREE ENERGY PREDICTED BY IDOCK:   -7.01 KCAL/MOL
REMARK 924 INTRA-LIGAND FREE ENERGY PREDICTED BY IDOCK:    6.53 KCAL/MOL
REMARK 927      BINDING AFFINITY PREDICTED BY RF-SCORE:    0.00 PKD
ROOT
HETATM    1  C   UNL     1     -13.349  13.184  65.695  1.00  0.00     1.142 C  
HETATM    2  O   UNL     1     -12.648  13.293  64.452  1.00  0.00    -0.609 OA 
ENDROOT
BRANCH   2   3
HETATM    3  C   UNL     1     -11.520  12.521  64.359  1.00  0.00    -0.349 A  
HETATM    4  C   UNL     1     -10.676  12.487  65.477  1.00  0.00    -0.271 A  
HETATM    5  F   UNL     1     -10.997  13.203  66.570  1.00  0.00    -0.276 F  
HETATM    6  C   UNL     1      -9.510  11.708  65.480  1.00  0.00    -0.215 A  
HETATM    7  C   UNL     1      -9.176  10.981  64.329  1.00  0.00    -0.171 A  
HETATM    8  C   UNL     1     -11.165  11.805  63.210  1.00  0.00    -0.357 A  
HETATM    9  C   UNL     1     -10.001  11.036  63.201  1.00  0.00    -0.382 A  
BRANCH   6  10
HETATM   10  C   UNL     1      -8.671  11.601  66.692  1.00  0.00    -0.187 C  
HETATM   11  C   UNL     1      -8.695   9.089  66.662  1.00  0.00    -0.140 C  
HETATM   12  C   UNL     1      -8.296  10.428  67.248  1.00  0.00    -0.122 C  
HETATM   13  N   UNL     1      -7.469  10.427  68.379  1.00  0.00    -0.088 N  
HETATM   14  C   UNL     1      -6.782  11.573  68.788  1.00  0.00    -0.079 C  
HETATM   15  C   UNL     1      -8.274  12.868  67.379  1.00  0.00    -0.187 C  
HETATM   16  O   UNL     1      -5.787  11.515  69.516  1.00  0.00    -0.061 OA 
HETATM   17  O   UNL     1      -8.822  13.931  67.085  1.00  0.00    -0.209 OA 
HETATM   18  N   UNL     1      -7.277  12.774  68.326  1.00  0.00    -0.104 N  
BRANCH  13  19
HETATM   19  C   UNL     1      -7.149   9.202  69.122  1.00  0.00    -0.062 C  
BRANCH  19  20
HETATM   20  C   UNL     1      -7.604   7.879  68.518  1.00  0.00    -0.105 A  
HETATM   21  F   UNL     1     -10.957   8.228  69.502  1.00  0.00    -0.233 F  
HETATM   22  C   UNL     1      -9.784   7.699  69.944  1.00  0.00    -0.175 C  
HETATM   23  C   UNL     1      -8.866   7.300  68.804  1.00  0.00    -0.127 A  
HETATM   24  F   UNL     1      -5.605   7.737  67.229  1.00  0.00    -0.030 F  
HETATM   25  C   UNL     1      -9.340   6.244  67.984  1.00  0.00    -0.114 A  
HETATM   26  C   UNL     1      -6.837   7.288  67.495  1.00  0.00    -0.074 A  
HETATM   27  F   UNL     1     -10.127   6.619  70.704  1.00  0.00    -0.188 F  
HETATM   28  F   UNL     1      -9.277   8.598  70.824  1.00  0.00    -0.153 F  
HETATM   29  C   UNL     1      -7.305   6.225  66.723  1.00  0.00    -0.079 A  
HETATM   30  C   UNL     1      -8.575   5.721  66.946  1.00  0.00    -0.111 A  
ENDBRANCH  19  20
ENDBRANCH  13  19
BRANCH  18  31
HETATM   31  C   UNL     1      -6.730  14.013  68.891  1.00  0.00    -0.105 C  
BRANCH  31  32
HETATM   32  C   UNL     1      -6.878  15.281  67.988  1.00  0.00    -0.140 C  
BRANCH  32  33
HETATM   33  N   UNL     1      -5.813  16.301  68.190  1.00  0.00    -0.101 NA 
HETATM   34  H   UNL     1      -4.997  15.876  68.631  1.00  0.00     0.000 HD 
BRANCH  33  35
HETATM   35  C   UNL     1      -5.415  17.024  66.985  1.00  0.00    -0.165 C  
BRANCH  35  36
HETATM   36  C   UNL     1      -5.279  18.527  67.274  1.00  0.00    -0.138 C  
BRANCH  36  37
HETATM   37  C   UNL     1      -6.414  19.080  68.136  1.00  0.00    -0.242 C  
HETATM   38  O   UNL     1      -7.212  21.343  67.911  1.00  0.00    -0.176 OA 
HETATM   39  C   UNL     1      -7.157  20.206  67.466  1.00  0.00    -0.276 C  
HETATM   40  O   UNL     1      -7.810  19.835  66.345  1.00  0.00    -0.282 OA 
ENDBRANCH  36  37
ENDBRANCH  35  36
ENDBRANCH  33  35
ENDBRANCH  32  33
BRANCH  32  41
HETATM   41  C   UNL     1      -8.226  15.983  68.181  1.00  0.00    -0.152 A  
HETATM   42  C   UNL     1     -10.006  17.389  67.295  1.00  0.00    -0.302 A  
HETATM   43  C   UNL     1     -10.103  16.660  69.588  1.00  0.00    -0.068 A  
HETATM   44  C   UNL     1      -8.801  16.702  67.122  1.00  0.00    -0.209 A  
HETATM   45  C   UNL     1      -8.904  15.963  69.415  1.00  0.00    -0.203 A  
HETATM   46  C   UNL     1     -10.655  17.371  68.527  1.00  0.00    -0.340 A  
ENDBRANCH  32  41
ENDBRANCH  31  32
ENDBRANCH  18  31
ENDBRANCH   6  10
ENDBRANCH   2   3
TORSDOF 11
ENDMDL
MODEL      266
REMARK 921   NORMALIZED FREE ENERGY PREDICTED BY IDOCK:    1.70 KCAL/MOL
REMARK 922        TOTAL FREE ENERGY PREDICTED BY IDOCK:   -0.27 KCAL/MOL
REMARK 923 INTER-LIGAND FREE ENERGY PREDICTED BY IDOCK:   -1.56 KCAL/MOL
REMARK 924 INTRA-LIGAND FREE ENERGY PREDICTED BY IDOCK:    1.29 KCAL/MOL
REMARK 927      BINDING AFFINITY PREDICTED BY RF-SCORE:    0.00 PKD
ROOT
HETATM    1  C   UNL     1      -8.824  18.852  67.131  1.00  0.00    -0.284 C  
HETATM    2  O   UNL     1      -9.502  19.232  68.332  1.00  0.00    -0.336 OA 
ENDROOT
BRANCH   2   3
HETATM    3  C   UNL     1     -10.011  18.190  69.060  1.00  0.00    -0.280 A  
HETATM    4  C   UNL     1     -10.029  16.930  68.444  1.00  0.00    -0.275 A  
HETATM    5  F   UNL     1      -9.562  16.803  67.189  1.00  0.00    -0.224 F  
HETATM    6  C   UNL     1     -10.513  15.802  69.119  1.00  0.00    -0.240 A  
HETATM    7  C   UNL     1     -11.013  15.951  70.420  1.00  0.00    -0.361 A  
HETATM    8  C   UNL     1     -10.531  18.327  70.352  1.00  0.00     1.742 A  
HETATM    9  C   UNL     1     -11.024  17.210  71.028  1.00  0.00     1.092 A  
BRANCH   6  10
HETATM   10  C   UNL     1     -10.445  14.460  68.502  1.00  0.00    -0.254 C  
HETATM   11  C   UNL     1     -12.760  13.839  69.254  1.00  0.00     0.501 C  
HETATM   12  C   UNL     1     -11.446  13.554  68.556  1.00  0.00    -0.310 C  
HETATM   13  N   UNL     1     -11.303  12.320  67.910  1.00  0.00    -0.276 N  
HETATM   14  C   UNL     1     -10.291  12.093  66.973  1.00  0.00    -0.211 C  
HETATM   15  C   UNL     1      -9.166  14.062  67.840  1.00  0.00    -0.195 C  
HETATM   16  O   UNL     1     -10.364  11.191  66.135  1.00  0.00    -0.237 OA 
HETATM   17  O   UNL     1      -8.144  14.726  68.013  1.00  0.00    -0.126 OA 
HETATM   18  N   UNL     1      -9.206  12.942  67.037  1.00  0.00    -0.220 N  
BRANCH  13  19
HETATM   19  C   UNL     1     -12.281  11.234  68.054  1.00  0.00     0.422 C  
BRANCH  19  20
HETATM   20  C   UNL     1     -12.010  10.187  69.128  1.00  0.00     0.166 A  
HETATM   21  F   UNL     1      -9.425   8.597  67.362  1.00  0.00    -0.151 F  
HETATM   22  C   UNL     1     -10.772   8.526  67.539  1.00  0.00    -0.141 C  
HETATM   23  C   UNL     1     -11.202   9.045  68.898  1.00  0.00     0.253 A  
HETATM   24  F   UNL     1     -13.240  11.456  70.728  1.00  0.00    -0.253 F  
HETATM   25  C   UNL     1     -10.749   8.288  70.008  1.00  0.00    -0.239 A  
HETATM   26  C   UNL     1     -12.413  10.439  70.454  1.00  0.00    -0.268 A  
HETATM   27  F   UNL     1     -11.097   7.210  67.387  1.00  0.00    -0.335 F  
HETATM   28  F   UNL     1     -11.323   9.148  66.467  1.00  0.00     0.260 F  
HETATM   29  C   UNL     1     -11.987   9.660  71.530  1.00  0.00    -0.485 A  
HETATM   30  C   UNL     1     -11.125   8.600  71.312  1.00  0.00    -0.336 A  
ENDBRANCH  19  20
ENDBRANCH  13  19
BRANCH  18  31
HETATM   31  C   UNL     1      -8.026  12.621  66.225  1.00  0.00     0.858 C  
BRANCH  31  32
HETATM   32  C   UNL     1      -6.687  12.481  67.021  1.00  0.00     0.061 C  
BRANCH  32  33
HETATM   33  N   UNL     1      -5.542  11.991  66.206  1.00  0.00    -0.445 NA 
HETATM   34  H   UNL     1      -4.834  11.572  66.810  1.00  0.00     0.000 HD 
BRANCH  33  35
HETATM   35  C   UNL     1      -5.899  11.069  65.133  1.00  0.00     0.211 C  
BRANCH  35  36
HETATM   36  C   UNL     1      -5.226   9.703  65.343  1.00  0.00    -0.040 C  
BRANCH  36  37
HETATM   37  C   UNL     1      -5.354   8.776  64.133  1.00  0.00    -0.056 C  
HETATM   38  O   UNL     1      -6.224   6.537  64.319  1.00  0.00    -0.035 OA 
HETATM   39  C   UNL     1      -6.433   7.740  64.308  1.00  0.00    -0.056 C  
HETATM   40  O   UNL     1      -7.676   8.260  64.398  1.00  0.00    -0.109 OA 
ENDBRANCH  36  37
ENDBRANCH  35  36
ENDBRANCH  33  35
ENDBRANCH  32  33
BRANCH  32  41
HETATM   41  C   UNL     1      -6.820  11.550  68.230  1.00  0.00    -0.066 A  
HETATM   42  C   UNL     1      -6.389  11.090  70.582  1.00  0.00     0.131 A  
HETATM   43  C   UNL     1      -7.461   9.415  69.225  1.00  0.00    -0.076 A  
HETATM   44  C   UNL     1      -6.320  11.946  69.479  1.00  0.00    -0.122 A  
HETATM   45  C   UNL     1      -7.403  10.273  68.124  1.00  0.00    -0.085 A  
HETATM   46  C   UNL     1      -6.955   9.824  70.455  1.00  0.00    -0.131 A  
ENDBRANCH  32  41
ENDBRANCH  31  32
ENDBRANCH  18  31
ENDBRANCH   6  10
ENDBRANCH   2   3
TORSDOF 11
ENDMDL
MODEL      267
REMARK 921   NORMALIZED FREE ENERGY PREDICTED BY IDOCK:    1.82 KCAL/MOL
REMARK 922        TOTAL FREE ENERGY PREDICTED BY IDOCK:   -0.07 KCAL/MOL
REMARK 923 INTER-LIGAND FREE ENERGY PREDICTED BY IDOCK:   -5.70 KCAL/MOL
REMARK 924 INTRA-LIGAND FREE ENERGY PREDICTED BY IDOCK:    5.63 KCAL/MOL
REMARK 927      BINDING AFFINITY PREDICTED BY RF-SCORE:    0.00 PKD
ROOT
HETATM    1  C   UNL     1      -5.275  17.720  65.081  1.00  0.00     0.162 C  
HETATM    2  O   UNL     1      -5.990  18.914  65.417  1.00  0.00    -0.192 OA 
ENDROOT
BRANCH   2   3
HETATM    3  C   UNL     1      -7.251  18.709  65.910  1.00  0.00    -0.232 A  
HETATM    4  C   UNL     1      -7.525  17.448  66.458  1.00  0.00    -0.280 A  
HETATM    5  F   UNL     1      -6.561  16.510  66.471  1.00  0.00    -0.232 F  
HETATM    6  C   UNL     1      -8.782  17.155  67.004  1.00  0.00    -0.244 A  
HETATM    7  C   UNL     1      -9.784  18.135  66.969  1.00  0.00    -0.307 A  
HETATM    8  C   UNL     1      -8.266  19.671  65.864  1.00  0.00    -0.213 A  
HETATM    9  C   UNL     1      -9.524  19.384  66.397  1.00  0.00    -0.432 A  
BRANCH   6  10
HETATM   10  C   UNL     1      -9.039  15.857  67.664  1.00  0.00    -0.200 C  
HETATM   11  C   UNL     1     -10.057  16.928  69.696  1.00  0.00     0.018 C  
HETATM   12  C   UNL     1      -9.608  15.730  68.883  1.00  0.00    -0.229 C  
HETATM   13  N   UNL     1      -9.844  14.455  69.412  1.00  0.00     0.057 N  
HETATM   14  C   UNL     1      -9.780  13.307  68.618  1.00  0.00    -0.069 C  
HETATM   15  C   UNL     1      -8.578  14.618  66.967  1.00  0.00    -0.224 C  
HETATM   16  O   UNL     1     -10.337  12.254  68.942  1.00  0.00    -0.172 OA 
HETATM   17  O   UNL     1      -7.808  14.695  66.009  1.00  0.00     1.305 OA 
HETATM   18  N   UNL     1      -9.064  13.420  67.445  1.00  0.00    -0.205 N  
BRANCH  13  19
HETATM   19  C   UNL     1     -10.315  14.245  70.786  1.00  0.00     1.756 C  
BRANCH  19  20
HETATM   20  C   UNL     1     -11.801  14.455  71.056  1.00  0.00    -0.334 A  
HETATM   21  F   UNL     1     -12.357  11.207  72.269  1.00  0.00    -0.034 F  
HETATM   22  C   UNL     1     -12.400  11.915  71.108  1.00  0.00    -0.198 C  
HETATM   23  C   UNL     1     -12.687  13.386  71.340  1.00  0.00    -0.411 A  
HETATM   24  F   UNL     1     -11.533  16.818  70.893  1.00  0.00    -0.339 F  
HETATM   25  C   UNL     1     -13.967  13.678  71.875  1.00  0.00    -0.410 A  
HETATM   26  C   UNL     1     -12.292  15.765  71.218  1.00  0.00    -0.438 A  
HETATM   27  F   UNL     1     -13.377  11.333  70.355  1.00  0.00    -0.047 F  
HETATM   28  F   UNL     1     -11.244  11.634  70.456  1.00  0.00    -0.179 F  
HETATM   29  C   UNL     1     -13.570  16.033  71.711  1.00  0.00     0.196 A  
HETATM   30  C   UNL     1     -14.399  14.986  72.072  1.00  0.00    -0.666 A  
ENDBRANCH  19  20
ENDBRANCH  13  19
BRANCH  18  31
HETATM   31  C   UNL     1      -8.785  12.197  66.682  1.00  0.00    -0.153 C  
BRANCH  31  32
HETATM   32  C   UNL     1     -10.034  11.313  66.360  1.00  0.00    -0.215 C  
BRANCH  32  33
HETATM   33  N   UNL     1      -9.705   9.920  65.953  1.00  0.00    -0.242 NA 
HETATM   34  H   UNL     1      -9.496   9.884  64.956  1.00  0.00     0.000 HD 
BRANCH  33  35
HETATM   35  C   UNL     1      -8.631   9.291  66.716  1.00  0.00    -0.127 C  
BRANCH  35  36
HETATM   36  C   UNL     1      -7.705   8.488  65.791  1.00  0.00    -0.098 C  
BRANCH  36  37
HETATM   37  C   UNL     1      -8.184   8.455  64.339  1.00  0.00    -0.141 C  
HETATM   38  O   UNL     1      -7.377  10.011  62.685  1.00  0.00    -0.120 OA 
HETATM   39  C   UNL     1      -7.173   9.028  63.381  1.00  0.00    -0.092 C  
HETATM   40  O   UNL     1      -6.024   8.321  63.315  1.00  0.00    -0.071 OA 
ENDBRANCH  36  37
ENDBRANCH  35  36
ENDBRANCH  33  35
ENDBRANCH  32  33
BRANCH  32  41
HETATM   41  C   UNL     1     -10.909  11.917  65.257  1.00  0.00    -0.347 A  
HETATM   42  C   UNL     1     -12.565  13.559  64.555  1.00  0.00    -0.262 A  
HETATM   43  C   UNL     1     -11.805  11.897  62.986  1.00  0.00    -0.060 A  
HETATM   44  C   UNL     1     -11.723  13.025  65.535  1.00  0.00    -0.408 A  
HETATM   45  C   UNL     1     -10.954  11.369  63.961  1.00  0.00    -0.428 A  
HETATM   46  C   UNL     1     -12.609  12.994  63.283  1.00  0.00    -0.149 A  
ENDBRANCH  32  41
ENDBRANCH  31  32
ENDBRANCH  18  31
ENDBRANCH   6  10
ENDBRANCH   2   3
TORSDOF 11
ENDMDL
MODEL      268
REMARK 921   NORMALIZED FREE ENERGY PREDICTED BY IDOCK:    2.26 KCAL/MOL
REMARK 922        TOTAL FREE ENERGY PREDICTED BY IDOCK:    0.65 KCAL/MOL
REMARK 923 INTER-LIGAND FREE ENERGY PREDICTED BY IDOCK:   -1.81 KCAL/MOL
REMARK 924 INTRA-LIGAND FREE ENERGY PREDICTED BY IDOCK:    2.46 KCAL/MOL
REMARK 927      BINDING AFFINITY PREDICTED BY RF-SCORE:    0.00 PKD
ROOT
HETATM    1  C   UNL     1      -8.555  19.831  68.425  1.00  0.00    -0.251 C  
HETATM    2  O   UNL     1      -7.238  19.510  68.886  1.00  0.00    -0.340 OA 
ENDROOT
BRANCH   2   3
HETATM    3  C   UNL     1      -7.074  18.216  69.302  1.00  0.00    -0.119 A  
HETATM    4  C   UNL     1      -7.964  17.262  68.786  1.00  0.00    -0.250 A  
HETATM    5  F   UNL     1      -8.924  17.651  67.929  1.00  0.00    -0.233 F  
HETATM    6  C   UNL     1      -7.859  15.910  69.140  1.00  0.00    -0.227 A  
HETATM    7  C   UNL     1      -6.864  15.520  70.048  1.00  0.00    -0.020 A  
HETATM    8  C   UNL     1      -6.099  17.815  70.222  1.00  0.00     0.086 A  
HETATM    9  C   UNL     1      -5.994  16.472  70.587  1.00  0.00     0.289 A  
BRANCH   6  10
HETATM   10  C   UNL     1      -8.738  14.894  68.524  1.00  0.00    -0.172 C  
HETATM   11  C   UNL     1      -7.608  15.061  66.287  1.00  0.00     1.659 C  
HETATM   12  C   UNL     1      -8.648  14.500  67.235  1.00  0.00    -0.215 C  
HETATM   13  N   UNL     1      -9.505  13.503  66.750  1.00  0.00    -0.263 N  
HETATM   14  C   UNL     1     -10.255  12.697  67.611  1.00  0.00    -0.217 C  
HETATM   15  C   UNL     1      -9.835  14.323  69.363  1.00  0.00     0.231 C  
HETATM   16  O   UNL     1     -10.704  11.602  67.258  1.00  0.00    -0.217 OA 
HETATM   17  O   UNL     1     -10.138  14.851  70.433  1.00  0.00     0.115 OA 
HETATM   18  N   UNL     1     -10.461  13.193  68.881  1.00  0.00    -0.153 N  
BRANCH  13  19
HETATM   19  C   UNL     1      -9.566  13.135  65.330  1.00  0.00     0.110 C  
BRANCH  19  20
HETATM   20  C   UNL     1      -9.223  11.696  64.965  1.00  0.00     0.031 A  
HETATM   21  F   UNL     1      -7.103  11.177  67.717  1.00  0.00    -0.078 F  
HETATM   22  C   UNL     1      -7.058  11.587  66.420  1.00  0.00     0.064 C  
HETATM   23  C   UNL     1      -8.168  10.979  65.584  1.00  0.00    -0.026 A  
HETATM   24  F   UNL     1     -11.056  11.606  63.445  1.00  0.00    -0.424 F  
HETATM   25  C   UNL     1      -8.103   9.573  65.419  1.00  0.00    -0.125 A  
HETATM   26  C   UNL     1     -10.089  10.974  64.120  1.00  0.00    -0.344 A  
HETATM   27  F   UNL     1      -5.830  11.215  65.957  1.00  0.00    -0.124 F  
HETATM   28  F   UNL     1      -7.021  12.943  66.458  1.00  0.00     0.305 F  
HETATM   29  C   UNL     1      -9.986   9.595  63.941  1.00  0.00     0.966 A  
HETATM   30  C   UNL     1      -9.011   8.885  64.618  1.00  0.00    -0.042 A  
ENDBRANCH  19  20
ENDBRANCH  13  19
BRANCH  18  31
HETATM   31  C   UNL     1     -11.414  12.495  69.752  1.00  0.00    -0.141 C  
BRANCH  31  32
HETATM   32  C   UNL     1     -10.883  11.173  70.397  1.00  0.00     0.598 C  
BRANCH  32  33
HETATM   33  N   UNL     1     -10.106  10.310  69.466  1.00  0.00    -0.232 NA 
HETATM   34  H   UNL     1      -9.998  10.772  68.564  1.00  0.00     0.000 HD 
BRANCH  33  35
HETATM   35  C   UNL     1      -8.805   9.876  69.968  1.00  0.00    -0.160 C  
BRANCH  35  36
HETATM   36  C   UNL     1      -8.202   8.799  69.054  1.00  0.00    -0.117 C  
BRANCH  36  37
HETATM   37  C   UNL     1      -8.936   7.460  69.134  1.00  0.00    -0.135 C  
HETATM   38  O   UNL     1      -7.774   5.377  69.477  1.00  0.00    -0.075 OA 
HETATM   39  C   UNL     1      -8.183   6.432  69.937  1.00  0.00    -0.126 C  
HETATM   40  O   UNL     1      -8.044   6.756  71.240  1.00  0.00    -0.109 OA 
ENDBRANCH  36  37
ENDBRANCH  35  36
ENDBRANCH  33  35
ENDBRANCH  32  33
BRANCH  32  41
HETATM   41  C   UNL     1     -12.009  10.315  70.983  1.00  0.00    -0.483 A  
HETATM   42  C   UNL     1     -12.715   8.438  72.365  1.00  0.00    -0.346 A  
HETATM   43  C   UNL     1     -14.365   9.695  71.140  1.00  0.00     0.440 A  
HETATM   44  C   UNL     1     -11.706   9.262  71.858  1.00  0.00    -0.420 A  
HETATM   45  C   UNL     1     -13.358  10.526  70.642  1.00  0.00     0.000 A  
HETATM   46  C   UNL     1     -14.044   8.652  72.004  1.00  0.00    -0.523 A  
ENDBRANCH  32  41
ENDBRANCH  31  32
ENDBRANCH  18  31
ENDBRANCH   6  10
ENDBRANCH   2   3
TORSDOF 11
ENDMDL
MODEL      269
REMARK 921   NORMALIZED FREE ENERGY PREDICTED BY IDOCK:    2.53 KCAL/MOL
REMARK 922        TOTAL FREE ENERGY PREDICTED BY IDOCK:    1.11 KCAL/MOL
REMARK 923 INTER-LIGAND FREE ENERGY PREDICTED BY IDOCK:   -3.99 KCAL/MOL
REMARK 924 INTRA-LIGAND FREE ENERGY PREDICTED BY IDOCK:    5.10 KCAL/MOL
REMARK 927      BINDING AFFINITY PREDICTED BY RF-SCORE:    0.00 PKD
ROOT
HETATM    1  C   UNL     1      -7.028  11.552  62.330  1.00  0.00     0.685 C  
HETATM    2  O   UNL     1      -7.979  11.065  63.283  1.00  0.00     0.120 OA 
ENDROOT
BRANCH   2   3
HETATM    3  C   UNL     1      -7.748   9.791  63.727  1.00  0.00    -0.135 A  
HETATM    4  C   UNL     1      -8.073   9.511  65.062  1.00  0.00    -0.125 A  
HETATM    5  F   UNL     1      -8.580  10.487  65.836  1.00  0.00    -0.141 F  
HETATM    6  C   UNL     1      -7.889   8.229  65.597  1.00  0.00    -0.104 A  
HETATM    7  C   UNL     1      -7.343   7.225  64.785  1.00  0.00    -0.081 A  
HETATM    8  C   UNL     1      -7.185   8.784  62.934  1.00  0.00    -0.093 A  
HETATM    9  C   UNL     1      -6.991   7.507  63.462  1.00  0.00    -0.060 A  
BRANCH   6  10
HETATM   10  C   UNL     1      -8.318   7.914  66.976  1.00  0.00    -0.117 C  
HETATM   11  C   UNL     1      -7.657   5.498  66.783  1.00  0.00    -0.088 C  
HETATM   12  C   UNL     1      -8.229   6.684  67.531  1.00  0.00    -0.122 C  
HETATM   13  N   UNL     1      -8.629   6.490  68.859  1.00  0.00    -0.124 N  
HETATM   14  C   UNL     1      -8.848   7.564  69.726  1.00  0.00    -0.141 C  
HETATM   15  C   UNL     1      -8.951   9.006  67.776  1.00  0.00    -0.127 C  
HETATM   16  O   UNL     1      -8.825   7.432  70.953  1.00  0.00    -0.146 OA 
HETATM   17  O   UNL     1      -9.314  10.046  67.227  1.00  0.00    -0.146 OA 
HETATM   18  N   UNL     1      -9.087   8.785  69.130  1.00  0.00    -0.141 N  
BRANCH  13  19
HETATM   19  C   UNL     1      -8.703   5.159  69.475  1.00  0.00    -0.099 C  
BRANCH  19  20
HETATM   20  C   UNL     1      -7.581   4.767  70.429  1.00  0.00    -0.054 A  
HETATM   21  F   UNL     1      -9.395   2.203  72.001  1.00  0.00    -0.113 F  
HETATM   22  C   UNL     1      -9.129   3.532  72.129  1.00  0.00    -0.107 C  
HETATM   23  C   UNL     1      -7.784   3.910  71.540  1.00  0.00    -0.061 A  
HETATM   24  F   UNL     1      -5.996   5.971  69.118  1.00  0.00    -0.019 F  
HETATM   25  C   UNL     1      -6.657   3.351  72.192  1.00  0.00    -0.015 A  
HETATM   26  C   UNL     1      -6.252   5.105  70.106  1.00  0.00    -0.022 A  
HETATM   27  F   UNL     1      -9.173   3.790  73.468  1.00  0.00    -0.097 F  
HETATM   28  F   UNL     1     -10.205   4.179  71.614  1.00  0.00    -0.249 F  
HETATM   29  C   UNL     1      -5.156   4.574  70.784  1.00  0.00     0.000 A  
HETATM   30  C   UNL     1      -5.356   3.667  71.810  1.00  0.00     0.000 A  
ENDBRANCH  19  20
ENDBRANCH  13  19
BRANCH  18  31
HETATM   31  C   UNL     1      -9.532   9.896  69.979  1.00  0.00    -0.202 C  
BRANCH  31  32
HETATM   32  C   UNL     1     -10.844  10.608  69.513  1.00  0.00    -0.259 C  
BRANCH  32  33
HETATM   33  N   UNL     1     -10.642  12.000  69.025  1.00  0.00    -0.389 NA 
HETATM   34  H   UNL     1     -10.518  12.635  69.814  1.00  0.00     0.000 HD 
BRANCH  33  35
HETATM   35  C   UNL     1      -9.552  12.166  68.068  1.00  0.00    -0.204 C  
BRANCH  35  36
HETATM   36  C   UNL     1      -9.477  13.620  67.577  1.00  0.00    -0.222 C  
BRANCH  36  37
HETATM   37  C   UNL     1      -9.464  14.641  68.715  1.00  0.00    -0.199 C  
HETATM   38  O   UNL     1     -10.627  16.746  68.565  1.00  0.00    -0.313 OA 
HETATM   39  C   UNL     1     -10.677  15.534  68.708  1.00  0.00    -0.249 C  
HETATM   40  O   UNL     1     -11.836  14.878  68.931  1.00  0.00    -0.311 OA 
ENDBRANCH  36  37
ENDBRANCH  35  36
ENDBRANCH  33  35
ENDBRANCH  32  33
BRANCH  32  41
HETATM   41  C   UNL     1     -11.905  10.660  70.616  1.00  0.00    -0.463 A  
HETATM   42  C   UNL     1     -12.952   9.652  72.571  1.00  0.00    -0.232 A  
HETATM   43  C   UNL     1     -13.865  11.682  71.654  1.00  0.00     0.692 A  
HETATM   44  C   UNL     1     -11.960   9.647  71.585  1.00  0.00    -0.470 A  
HETATM   45  C   UNL     1     -12.867  11.686  70.674  1.00  0.00    -0.124 A  
HETATM   46  C   UNL     1     -13.906  10.666  72.603  1.00  0.00     0.871 A  
ENDBRANCH  32  41
ENDBRANCH  31  32
ENDBRANCH  18  31
ENDBRANCH   6  10
ENDBRANCH   2   3
TORSDOF 11
ENDMDL
MODEL      270
REMARK 921   NORMALIZED FREE ENERGY PREDICTED BY IDOCK:    2.54 KCAL/MOL
REMARK 922        TOTAL FREE ENERGY PREDICTED BY IDOCK:    1.12 KCAL/MOL
REMARK 923 INTER-LIGAND FREE ENERGY PREDICTED BY IDOCK:   -4.32 KCAL/MOL
REMARK 924 INTRA-LIGAND FREE ENERGY PREDICTED BY IDOCK:    5.44 KCAL/MOL
REMARK 927      BINDING AFFINITY PREDICTED BY RF-SCORE:    0.00 PKD
ROOT
HETATM    1  C   UNL     1      -5.365  11.087  67.307  1.00  0.00    -0.047 C  
HETATM    2  O   UNL     1      -5.799  10.584  68.575  1.00  0.00    -0.041 OA 
ENDROOT
BRANCH   2   3
HETATM    3  C   UNL     1      -7.108  10.185  68.619  1.00  0.00    -0.074 A  
HETATM    4  C   UNL     1      -7.399   8.897  68.146  1.00  0.00    -0.084 A  
HETATM    5  F   UNL     1      -6.402   8.127  67.673  1.00  0.00    -0.047 F  
HETATM    6  C   UNL     1      -8.707   8.396  68.170  1.00  0.00    -0.143 A  
HETATM    7  C   UNL     1      -9.740   9.216  68.648  1.00  0.00    -0.164 A  
HETATM    8  C   UNL     1      -8.151  10.998  69.075  1.00  0.00    -0.105 A  
HETATM    9  C   UNL     1      -9.458  10.511  69.094  1.00  0.00    -0.205 A  
BRANCH   6  10
HETATM   10  C   UNL     1      -8.996   7.007  67.757  1.00  0.00    -0.121 C  
HETATM   11  C   UNL     1      -8.846   7.550  65.309  1.00  0.00     0.125 C  
HETATM   12  C   UNL     1      -9.071   6.602  66.470  1.00  0.00    -0.149 C  
HETATM   13  N   UNL     1      -9.317   5.255  66.177  1.00  0.00    -0.153 N  
HETATM   14  C   UNL     1      -9.204   4.259  67.151  1.00  0.00    -0.150 C  
HETATM   15  C   UNL     1      -9.292   6.009  68.829  1.00  0.00    -0.122 C  
HETATM   16  O   UNL     1      -9.040   3.071  66.857  1.00  0.00    -0.152 OA 
HETATM   17  O   UNL     1      -9.519   6.383  69.980  1.00  0.00    -0.155 OA 
HETATM   18  N   UNL     1      -9.282   4.681  68.461  1.00  0.00    -0.121 N  
BRANCH  13  19
HETATM   19  C   UNL     1      -9.561   4.775  64.811  1.00  0.00     0.028 C  
BRANCH  19  20
HETATM   20  C   UNL     1      -8.601   3.730  64.255  1.00  0.00    -0.098 A  
HETATM   21  F   UNL     1      -5.906   4.665  66.303  1.00  0.00    -0.019 F  
HETATM   22  C   UNL     1      -6.434   4.930  65.077  1.00  0.00    -0.036 C  
HETATM   23  C   UNL     1      -7.209   3.753  64.516  1.00  0.00    -0.066 A  
HETATM   24  F   UNL     1     -10.414   2.539  63.266  1.00  0.00    -0.131 F  
HETATM   25  C   UNL     1      -6.436   2.600  64.228  1.00  0.00    -0.027 A  
HETATM   26  C   UNL     1      -9.122   2.590  63.611  1.00  0.00    -0.094 A  
HETATM   27  F   UNL     1      -5.374   5.250  64.280  1.00  0.00    -0.009 F  
HETATM   28  F   UNL     1      -7.130   6.086  65.212  1.00  0.00    -0.057 F  
HETATM   29  C   UNL     1      -8.338   1.479  63.301  1.00  0.00    -0.065 A  
HETATM   30  C   UNL     1      -6.996   1.469  63.640  1.00  0.00    -0.031 A  
ENDBRANCH  19  20
ENDBRANCH  13  19
BRANCH  18  31
HETATM   31  C   UNL     1      -9.385   3.662  69.513  1.00  0.00    -0.176 C  
BRANCH  31  32
HETATM   32  C   UNL     1      -9.219   4.192  70.974  1.00  0.00    -0.135 C  
BRANCH  32  33
HETATM   33  N   UNL     1     -10.183   5.263  71.347  1.00  0.00    -0.205 NA 
HETATM   34  H   UNL     1     -10.525   5.736  70.511  1.00  0.00     0.000 HD 
BRANCH  33  35
HETATM   35  C   UNL     1     -11.305   4.824  72.172  1.00  0.00     0.352 C  
BRANCH  35  36
HETATM   36  C   UNL     1     -12.191   6.015  72.563  1.00  0.00    -0.044 C  
BRANCH  36  37
HETATM   37  C   UNL     1     -11.401   7.303  72.800  1.00  0.00    -0.318 C  
HETATM   38  O   UNL     1     -11.725   9.274  71.452  1.00  0.00    -0.306 OA 
HETATM   39  C   UNL     1     -12.136   8.530  72.329  1.00  0.00    -0.387 C  
HETATM   40  O   UNL     1     -13.279   8.772  73.006  1.00  0.00    -0.292 OA 
ENDBRANCH  36  37
ENDBRANCH  35  36
ENDBRANCH  33  35
ENDBRANCH  32  33
BRANCH  32  41
HETATM   41  C   UNL     1      -7.810   4.731  71.244  1.00  0.00    -0.088 A  
HETATM   42  C   UNL     1      -5.416   4.658  70.806  1.00  0.00    -0.011 A  
HETATM   43  C   UNL     1      -6.267   6.153  72.491  1.00  0.00    -0.053 A  
HETATM   44  C   UNL     1      -6.714   4.213  70.538  1.00  0.00    -0.033 A  
HETATM   45  C   UNL     1      -7.567   5.718  72.217  1.00  0.00    -0.101 A  
HETATM   46  C   UNL     1      -5.191   5.624  71.783  1.00  0.00    -0.013 A  
ENDBRANCH  32  41
ENDBRANCH  31  32
ENDBRANCH  18  31
ENDBRANCH   6  10
ENDBRANCH   2   3
TORSDOF 11
ENDMDL
MODEL      271
REMARK 921   NORMALIZED FREE ENERGY PREDICTED BY IDOCK:    2.66 KCAL/MOL
REMARK 922        TOTAL FREE ENERGY PREDICTED BY IDOCK:    1.32 KCAL/MOL
REMARK 923 INTER-LIGAND FREE ENERGY PREDICTED BY IDOCK:   -2.91 KCAL/MOL
REMARK 924 INTRA-LIGAND FREE ENERGY PREDICTED BY IDOCK:    4.23 KCAL/MOL
REMARK 927      BINDING AFFINITY PREDICTED BY RF-SCORE:    0.00 PKD
ROOT
HETATM    1  C   UNL     1      -5.836  16.452  66.199  1.00  0.00     1.475 C  
HETATM    2  O   UNL     1      -6.411  16.702  67.486  1.00  0.00    -0.134 OA 
ENDROOT
BRANCH   2   3
HETATM    3  C   UNL     1      -6.205  15.712  68.410  1.00  0.00    -0.102 A  
HETATM    4  C   UNL     1      -6.855  14.489  68.191  1.00  0.00    -0.126 A  
HETATM    5  F   UNL     1      -7.642  14.344  67.110  1.00  0.00    -0.199 F  
HETATM    6  C   UNL     1      -6.687  13.413  69.072  1.00  0.00    -0.108 A  
HETATM    7  C   UNL     1      -5.878  13.582  70.205  1.00  0.00    -0.156 A  
HETATM    8  C   UNL     1      -5.416  15.873  69.555  1.00  0.00    -0.116 A  
HETATM    9  C   UNL     1      -5.251  14.809  70.443  1.00  0.00    -0.114 A  
BRANCH   6  10
HETATM   10  C   UNL     1      -7.299  12.097  68.790  1.00  0.00    -0.090 C  
HETATM   11  C   UNL     1      -5.167  10.847  69.241  1.00  0.00    -0.041 C  
HETATM   12  C   UNL     1      -6.629  10.925  68.853  1.00  0.00    -0.056 C  
HETATM   13  N   UNL     1      -7.305   9.724  68.602  1.00  0.00    -0.073 N  
HETATM   14  C   UNL     1      -8.700   9.658  68.570  1.00  0.00    -0.120 C  
HETATM   15  C   UNL     1      -8.724  12.074  68.341  1.00  0.00    -0.147 C  
HETATM   16  O   UNL     1      -9.310   8.597  68.731  1.00  0.00    -0.142 OA 
HETATM   17  O   UNL     1      -9.282  13.115  67.993  1.00  0.00    -0.197 OA 
HETATM   18  N   UNL     1      -9.358  10.850  68.353  1.00  0.00    -0.165 N  
BRANCH  13  19
HETATM   19  C   UNL     1      -6.611   8.433  68.504  1.00  0.00    -0.059 C  
BRANCH  19  20
HETATM   20  C   UNL     1      -7.219   7.254  69.253  1.00  0.00    -0.081 A  
HETATM   21  F   UNL     1      -7.462   5.184  66.426  1.00  0.00    -0.080 F  
HETATM   22  C   UNL     1      -8.193   6.093  67.128  1.00  0.00    -0.106 C  
HETATM   23  C   UNL     1      -7.800   6.143  68.592  1.00  0.00    -0.101 A  
HETATM   24  F   UNL     1      -6.572   8.200  71.343  1.00  0.00    -0.039 F  
HETATM   25  C   UNL     1      -8.063   4.963  69.332  1.00  0.00    -0.078 A  
HETATM   26  C   UNL     1      -7.041   7.158  70.647  1.00  0.00    -0.066 A  
HETATM   27  F   UNL     1      -9.496   5.714  66.979  1.00  0.00    -0.120 F  
HETATM   28  F   UNL     1      -8.090   7.261  66.447  1.00  0.00    -0.104 F  
HETATM   29  C   UNL     1      -7.342   6.000  71.365  1.00  0.00    -0.084 A  
HETATM   30  C   UNL     1      -7.824   4.886  70.701  1.00  0.00    -0.070 A  
ENDBRANCH  19  20
ENDBRANCH  13  19
BRANCH  18  31
HETATM   31  C   UNL     1     -10.803  10.808  68.097  1.00  0.00    -0.236 C  
BRANCH  31  32
HETATM   32  C   UNL     1     -11.210  10.585  66.604  1.00  0.00     0.209 C  
BRANCH  32  33
HETATM   33  N   UNL     1     -10.281   9.705  65.844  1.00  0.00    -0.221 NA 
HETATM   34  H   UNL     1     -10.804   8.982  65.352  1.00  0.00     0.000 HD 
BRANCH  33  35
HETATM   35  C   UNL     1      -9.391  10.401  64.918  1.00  0.00    -0.243 C  
BRANCH  35  36
HETATM   36  C   UNL     1      -9.643   9.942  63.474  1.00  0.00     0.003 C  
BRANCH  36  37
HETATM   37  C   UNL     1      -8.632  10.507  62.476  1.00  0.00    -0.247 C  
HETATM   38  O   UNL     1      -6.601  11.595  63.184  1.00  0.00     1.414 OA 
HETATM   39  C   UNL     1      -7.234  10.561  63.034  1.00  0.00    -0.023 C  
HETATM   40  O   UNL     1      -6.711   9.346  63.309  1.00  0.00    -0.094 OA 
ENDBRANCH  36  37
ENDBRANCH  35  36
ENDBRANCH  33  35
ENDBRANCH  32  33
BRANCH  32  41
HETATM   41  C   UNL     1     -11.330  11.901  65.828  1.00  0.00    -0.354 A  
HETATM   42  C   UNL     1     -12.481  14.012  65.443  1.00  0.00    -0.520 A  
HETATM   43  C   UNL     1     -10.654  13.381  64.008  1.00  0.00    -0.122 A  
HETATM   44  C   UNL     1     -12.325  12.829  66.171  1.00  0.00    -0.190 A  
HETATM   45  C   UNL     1     -10.488  12.202  64.741  1.00  0.00    -0.332 A  
HETATM   46  C   UNL     1     -11.649  14.287  64.361  1.00  0.00    -0.358 A  
ENDBRANCH  32  41
ENDBRANCH  31  32
ENDBRANCH  18  31
ENDBRANCH   6  10
ENDBRANCH   2   3
TORSDOF 11
ENDMDL
MODEL      272
REMARK 921   NORMALIZED FREE ENERGY PREDICTED BY IDOCK:    2.70 KCAL/MOL
REMARK 922        TOTAL FREE ENERGY PREDICTED BY IDOCK:    1.38 KCAL/MOL
REMARK 923 INTER-LIGAND FREE ENERGY PREDICTED BY IDOCK:   -4.02 KCAL/MOL
REMARK 924 INTRA-LIGAND FREE ENERGY PREDICTED BY IDOCK:    5.40 KCAL/MOL
REMARK 927      BINDING AFFINITY PREDICTED BY RF-SCORE:    0.00 PKD
ROOT
HETATM    1  C   UNL     1      -5.572  16.208  70.136  1.00  0.00    -0.170 C  
HETATM    2  O   UNL     1      -6.065  14.866  70.067  1.00  0.00    -0.128 OA 
ENDROOT
BRANCH   2   3
HETATM    3  C   UNL     1      -6.965  14.635  69.061  1.00  0.00    -0.120 A  
HETATM    4  C   UNL     1      -7.516  13.348  68.981  1.00  0.00     0.064 A  
HETATM    5  F   UNL     1      -7.141  12.413  69.872  1.00  0.00     0.106 F  
HETATM    6  C   UNL     1      -8.460  13.026  67.997  1.00  0.00    -0.181 A  
HETATM    7  C   UNL     1      -8.829  14.004  67.063  1.00  0.00    -0.234 A  
HETATM    8  C   UNL     1      -7.328  15.596  68.111  1.00  0.00    -0.123 A  
HETATM    9  C   UNL     1      -8.260  15.280  67.121  1.00  0.00    -0.250 A  
BRANCH   6  10
HETATM   10  C   UNL     1      -9.107  11.697  67.971  1.00  0.00    -0.177 C  
HETATM   11  C   UNL     1     -10.972  12.416  69.494  1.00  0.00     0.013 C  
HETATM   12  C   UNL     1     -10.239  11.396  68.646  1.00  0.00    -0.208 C  
HETATM   13  N   UNL     1     -10.797  10.117  68.532  1.00  0.00    -0.229 N  
HETATM   14  C   UNL     1     -10.398   9.227  67.531  1.00  0.00    -0.262 C  
HETATM   15  C   UNL     1      -8.428  10.606  67.209  1.00  0.00    -0.126 C  
HETATM   16  O   UNL     1     -11.107   8.282  67.174  1.00  0.00     0.009 OA 
HETATM   17  O   UNL     1      -7.266  10.747  66.826  1.00  0.00    -0.113 OA 
HETATM   18  N   UNL     1      -9.166   9.469  66.961  1.00  0.00    -0.137 N  
BRANCH  13  19
HETATM   19  C   UNL     1     -11.933   9.676  69.350  1.00  0.00     0.577 C  
BRANCH  19  20
HETATM   20  C   UNL     1     -11.619   8.881  70.612  1.00  0.00    -0.251 A  
HETATM   21  F   UNL     1      -8.303  10.008  70.868  1.00  0.00     0.004 F  
HETATM   22  C   UNL     1      -9.027   8.990  70.328  1.00  0.00    -0.198 C  
HETATM   23  C   UNL     1     -10.300   8.713  71.104  1.00  0.00    -0.294 A  
HETATM   24  F   UNL     1     -13.941   8.507  70.999  1.00  0.00    -0.279 F  
HETATM   25  C   UNL     1     -10.114   8.233  72.424  1.00  0.00    -0.383 A  
HETATM   26  C   UNL     1     -12.677   8.449  71.436  1.00  0.00    -0.262 A  
HETATM   27  F   UNL     1      -8.199   7.906  70.332  1.00  0.00    -0.109 F  
HETATM   28  F   UNL     1      -9.188   9.302  69.017  1.00  0.00    -0.137 F  
HETATM   29  C   UNL     1     -12.472   7.943  72.720  1.00  0.00     0.073 A  
HETATM   30  C   UNL     1     -11.188   7.866  73.230  1.00  0.00    -0.004 A  
ENDBRANCH  19  20
ENDBRANCH  13  19
BRANCH  18  31
HETATM   31  C   UNL     1      -8.606   8.452  66.063  1.00  0.00    -0.146 C  
BRANCH  31  32
HETATM   32  C   UNL     1      -7.825   7.296  66.770  1.00  0.00    -0.113 C  
BRANCH  32  33
HETATM   33  N   UNL     1      -6.639   6.810  66.013  1.00  0.00    -0.050 NA 
HETATM   34  H   UNL     1      -5.902   7.514  66.023  1.00  0.00     0.000 HD 
BRANCH  33  35
HETATM   35  C   UNL     1      -6.112   5.523  66.455  1.00  0.00    -0.030 C  
BRANCH  35  36
HETATM   36  C   UNL     1      -5.458   4.772  65.285  1.00  0.00    -0.013 C  
BRANCH  36  37
HETATM   37  C   UNL     1      -5.164   3.305  65.598  1.00  0.00    -0.009 C  
HETATM   38  O   UNL     1      -6.042   2.210  67.557  1.00  0.00    -0.023 OA 
HETATM   39  C   UNL     1      -6.236   2.665  66.441  1.00  0.00    -0.024 C  
HETATM   40  O   UNL     1      -7.436   2.588  65.826  1.00  0.00    -0.066 OA 
ENDBRANCH  36  37
ENDBRANCH  35  36
ENDBRANCH  33  35
ENDBRANCH  32  33
BRANCH  32  41
HETATM   41  C   UNL     1      -8.714   6.082  67.057  1.00  0.00    -0.110 A  
HETATM   42  C   UNL     1      -9.420   4.310  68.571  1.00  0.00    -0.216 A  
HETATM   43  C   UNL     1     -10.334   4.400  66.345  1.00  0.00    -0.094 A  
HETATM   44  C   UNL     1      -8.653   5.448  68.307  1.00  0.00    -0.096 A  
HETATM   45  C   UNL     1      -9.577   5.546  66.083  1.00  0.00    -0.158 A  
HETATM   46  C   UNL     1     -10.258   3.783  67.590  1.00  0.00     0.652 A  
ENDBRANCH  32  41
ENDBRANCH  31  32
ENDBRANCH  18  31
ENDBRANCH   6  10
ENDBRANCH   2   3
TORSDOF 11
ENDMDL
MODEL      273
REMARK 921   NORMALIZED FREE ENERGY PREDICTED BY IDOCK:    3.23 KCAL/MOL
REMARK 922        TOTAL FREE ENERGY PREDICTED BY IDOCK:    2.25 KCAL/MOL
REMARK 923 INTER-LIGAND FREE ENERGY PREDICTED BY IDOCK:   -3.12 KCAL/MOL
REMARK 924 INTRA-LIGAND FREE ENERGY PREDICTED BY IDOCK:    5.37 KCAL/MOL
REMARK 927      BINDING AFFINITY PREDICTED BY RF-SCORE:    0.00 PKD
ROOT
HETATM    1  C   UNL     1      -5.757  11.935  66.456  1.00  0.00     0.157 C  
HETATM    2  O   UNL     1      -6.173  11.459  67.741  1.00  0.00    -0.046 OA 
ENDROOT
BRANCH   2   3
HETATM    3  C   UNL     1      -7.456  10.980  67.788  1.00  0.00    -0.094 A  
HETATM    4  C   UNL     1      -7.644   9.628  67.470  1.00  0.00    -0.095 A  
HETATM    5  F   UNL     1      -6.582   8.875  67.132  1.00  0.00    -0.058 F  
HETATM    6  C   UNL     1      -8.918   9.046  67.512  1.00  0.00    -0.131 A  
HETATM    7  C   UNL     1     -10.020   9.846  67.848  1.00  0.00    -0.190 A  
HETATM    8  C   UNL     1      -8.567  11.771  68.103  1.00  0.00    -0.160 A  
HETATM    9  C   UNL     1      -9.840  11.201  68.137  1.00  0.00    -0.188 A  
BRANCH   6  10
HETATM   10  C   UNL     1      -9.101   7.600  67.266  1.00  0.00    -0.142 C  
HETATM   11  C   UNL     1      -8.804   7.838  64.782  1.00  0.00     0.355 C  
HETATM   12  C   UNL     1      -9.061   7.032  66.040  1.00  0.00    -0.069 C  
HETATM   13  N   UNL     1      -9.211   5.646  65.910  1.00  0.00    -0.156 N  
HETATM   14  C   UNL     1      -9.115   4.790  67.010  1.00  0.00    -0.118 C  
HETATM   15  C   UNL     1      -9.418   6.729  68.438  1.00  0.00    -0.126 C  
HETATM   16  O   UNL     1      -8.866   3.588  66.886  1.00  0.00    -0.116 OA 
HETATM   17  O   UNL     1      -9.748   7.231  69.513  1.00  0.00    -0.158 OA 
HETATM   18  N   UNL     1      -9.310   5.368  68.247  1.00  0.00    -0.111 N  
BRANCH  13  19
HETATM   19  C   UNL     1      -9.330   4.983  64.605  1.00  0.00     0.100 C  
BRANCH  19  20
HETATM   20  C   UNL     1      -8.325   3.883  64.286  1.00  0.00    -0.091 A  
HETATM   21  F   UNL     1      -5.492   5.880  64.852  1.00  0.00    -0.015 F  
HETATM   22  C   UNL     1      -6.326   5.502  63.845  1.00  0.00    -0.022 C  
HETATM   23  C   UNL     1      -6.945   4.139  64.089  1.00  0.00    -0.046 A  
HETATM   24  F   UNL     1     -10.026   2.223  64.476  1.00  0.00    -0.124 F  
HETATM   25  C   UNL     1      -6.035   3.052  64.100  1.00  0.00    -0.018 A  
HETATM   26  C   UNL     1      -8.729   2.536  64.369  1.00  0.00    -0.099 A  
HETATM   27  F   UNL     1      -5.564   5.504  62.713  1.00  0.00    -0.013 F  
HETATM   28  F   UNL     1      -7.199   6.528  63.679  1.00  0.00    -0.048 F  
HETATM   29  C   UNL     1      -7.821   1.477  64.340  1.00  0.00    -0.064 A  
HETATM   30  C   UNL     1      -6.466   1.736  64.238  1.00  0.00    -0.018 A  
ENDBRANCH  19  20
ENDBRANCH  13  19
BRANCH  18  31
HETATM   31  C   UNL     1      -9.433   4.486  69.414  1.00  0.00    -0.174 C  
BRANCH  31  32
HETATM   32  C   UNL     1      -9.289   5.191  70.801  1.00  0.00    -0.160 C  
BRANCH  32  33
HETATM   33  N   UNL     1      -8.871   4.285  71.906  1.00  0.00    -0.110 NA 
HETATM   34  H   UNL     1      -8.814   3.324  71.570  1.00  0.00     0.000 HD 
BRANCH  33  35
HETATM   35  C   UNL     1      -7.629   4.660  72.575  1.00  0.00    -0.086 C  
BRANCH  35  36
HETATM   36  C   UNL     1      -6.751   3.424  72.824  1.00  0.00    -0.029 C  
BRANCH  36  37
HETATM   37  C   UNL     1      -7.559   2.168  73.153  1.00  0.00    -0.041 C  
HETATM   38  O   UNL     1      -9.812   1.846  72.361  1.00  0.00    -0.104 OA 
HETATM   39  C   UNL     1      -8.614   1.869  72.121  1.00  0.00    -0.053 C  
HETATM   40  O   UNL     1      -8.114   1.573  70.902  1.00  0.00    -0.042 OA 
ENDBRANCH  36  37
ENDBRANCH  35  36
ENDBRANCH  33  35
ENDBRANCH  32  33
BRANCH  32  41
HETATM   41  C   UNL     1     -10.583   5.883  71.242  1.00  0.00    -0.311 A  
HETATM   42  C   UNL     1     -12.834   6.652  70.722  1.00  0.00     0.210 A  
HETATM   43  C   UNL     1     -11.884   7.144  72.879  1.00  0.00     0.100 A  
HETATM   44  C   UNL     1     -11.664   5.982  70.354  1.00  0.00     0.030 A  
HETATM   45  C   UNL     1     -10.717   6.465  72.517  1.00  0.00    -0.256 A  
HETATM   46  C   UNL     1     -12.943   7.236  71.982  1.00  0.00    -0.196 A  
ENDBRANCH  32  41
ENDBRANCH  31  32
ENDBRANCH  18  31
ENDBRANCH   6  10
ENDBRANCH   2   3
TORSDOF 11
ENDMDL
MODEL      274
REMARK 921   NORMALIZED FREE ENERGY PREDICTED BY IDOCK:    3.29 KCAL/MOL
REMARK 922        TOTAL FREE ENERGY PREDICTED BY IDOCK:    2.34 KCAL/MOL
REMARK 923 INTER-LIGAND FREE ENERGY PREDICTED BY IDOCK:   -3.13 KCAL/MOL
REMARK 924 INTRA-LIGAND FREE ENERGY PREDICTED BY IDOCK:    5.48 KCAL/MOL
REMARK 927      BINDING AFFINITY PREDICTED BY RF-SCORE:    0.00 PKD
ROOT
HETATM    1  C   UNL     1      -7.881  14.041  65.900  1.00  0.00     3.364 C  
HETATM    2  O   UNL     1      -9.228  14.523  65.874  1.00  0.00    -0.168 OA 
ENDROOT
BRANCH   2   3
HETATM    3  C   UNL     1     -10.096  13.848  66.691  1.00  0.00    -0.273 A  
HETATM    4  C   UNL     1      -9.552  12.857  67.520  1.00  0.00    -0.200 A  
HETATM    5  F   UNL     1      -8.231  12.611  67.475  1.00  0.00    -0.137 F  
HETATM    6  C   UNL     1     -10.361  12.129  68.403  1.00  0.00    -0.236 A  
HETATM    7  C   UNL     1     -11.740  12.383  68.428  1.00  0.00    -0.386 A  
HETATM    8  C   UNL     1     -11.477  14.077  66.712  1.00  0.00    -0.379 A  
HETATM    9  C   UNL     1     -12.290  13.350  67.581  1.00  0.00    -0.023 A  
BRANCH   6  10
HETATM   10  C   UNL     1      -9.772  11.150  69.341  1.00  0.00     0.145 C  
HETATM   11  C   UNL     1     -12.006  10.498  70.289  1.00  0.00    -0.411 C  
HETATM   12  C   UNL     1     -10.495  10.407  70.208  1.00  0.00    -0.048 C  
HETATM   13  N   UNL     1      -9.851   9.479  71.035  1.00  0.00    -0.237 N  
HETATM   14  C   UNL     1      -8.530   9.082  70.805  1.00  0.00    -0.200 C  
HETATM   15  C   UNL     1      -8.284  11.030  69.378  1.00  0.00     0.113 C  
HETATM   16  O   UNL     1      -8.075   8.027  71.256  1.00  0.00    -0.094 OA 
HETATM   17  O   UNL     1      -7.578  11.876  68.828  1.00  0.00    -0.125 OA 
HETATM   18  N   UNL     1      -7.766   9.936  70.039  1.00  0.00    -0.167 N  
BRANCH  13  19
HETATM   19  C   UNL     1     -10.550   8.751  72.101  1.00  0.00    -0.316 C  
BRANCH  19  20
HETATM   20  C   UNL     1     -11.890   8.116  71.752  1.00  0.00    -0.346 A  
HETATM   21  F   UNL     1     -10.523   5.032  70.773  1.00  0.00    -0.304 F  
HETATM   22  C   UNL     1     -10.882   6.235  70.248  1.00  0.00    -0.304 C  
HETATM   23  C   UNL     1     -11.997   6.899  71.034  1.00  0.00    -0.422 A  
HETATM   24  F   UNL     1     -13.052   9.827  72.937  1.00  0.00    -0.261 F  
HETATM   25  C   UNL     1     -13.241   6.220  71.012  1.00  0.00     1.149 A  
HETATM   26  C   UNL     1     -13.070   8.642  72.314  1.00  0.00    -0.372 A  
HETATM   27  F   UNL     1     -11.265   5.979  68.964  1.00  0.00    -0.391 F  
HETATM   28  F   UNL     1      -9.734   6.949  70.133  1.00  0.00    -0.168 F  
HETATM   29  C   UNL     1     -14.294   7.977  72.250  1.00  0.00    -0.360 A  
HETATM   30  C   UNL     1     -14.375   6.745  71.625  1.00  0.00    -0.284 A  
ENDBRANCH  19  20
ENDBRANCH  13  19
BRANCH  18  31
HETATM   31  C   UNL     1      -6.323   9.680  69.945  1.00  0.00    -0.054 C  
BRANCH  31  32
HETATM   32  C   UNL     1      -5.864   8.919  68.658  1.00  0.00    -0.041 C  
BRANCH  32  33
HETATM   33  N   UNL     1      -6.538   9.370  67.410  1.00  0.00    -0.063 NA 
HETATM   34  H   UNL     1      -6.834  10.342  67.500  1.00  0.00     0.000 HD 
BRANCH  33  35
HETATM   35  C   UNL     1      -5.758   9.193  66.189  1.00  0.00    -0.053 C  
BRANCH  35  36
HETATM   36  C   UNL     1      -6.653   9.327  64.947  1.00  0.00    -0.075 C  
BRANCH  36  37
HETATM   37  C   UNL     1      -8.147   9.299  65.275  1.00  0.00    -0.121 C  
HETATM   38  O   UNL     1      -9.700  10.874  64.319  1.00  0.00    -0.244 OA 
HETATM   39  C   UNL     1      -8.993   9.888  64.177  1.00  0.00    -0.240 C  
HETATM   40  O   UNL     1      -8.944   9.192  63.021  1.00  0.00    -0.174 OA 
ENDBRANCH  36  37
ENDBRANCH  35  36
ENDBRANCH  33  35
ENDBRANCH  32  33
BRANCH  32  41
HETATM   41  C   UNL     1      -6.072   7.406  68.768  1.00  0.00    -0.027 A  
HETATM   42  C   UNL     1      -5.424   5.263  69.726  1.00  0.00    -0.008 A  
HETATM   43  C   UNL     1      -7.152   5.337  68.050  1.00  0.00    -0.066 A  
HETATM   44  C   UNL     1      -5.281   6.651  69.647  1.00  0.00    -0.014 A  
HETATM   45  C   UNL     1      -7.019   6.726  67.979  1.00  0.00    -0.080 A  
HETATM   46  C   UNL     1      -6.355   4.605  68.926  1.00  0.00    -0.032 A  
ENDBRANCH  32  41
ENDBRANCH  31  32
ENDBRANCH  18  31
ENDBRANCH   6  10
ENDBRANCH   2   3
TORSDOF 11
ENDMDL
MODEL      275
REMARK 921   NORMALIZED FREE ENERGY PREDICTED BY IDOCK:    3.64 KCAL/MOL
REMARK 922        TOTAL FREE ENERGY PREDICTED BY IDOCK:    2.92 KCAL/MOL
REMARK 923 INTER-LIGAND FREE ENERGY PREDICTED BY IDOCK:   -2.04 KCAL/MOL
REMARK 924 INTRA-LIGAND FREE ENERGY PREDICTED BY IDOCK:    4.96 KCAL/MOL
REMARK 927      BINDING AFFINITY PREDICTED BY RF-SCORE:    0.00 PKD
ROOT
HETATM    1  C   UNL     1     -12.558   6.664  69.860  1.00  0.00     1.312 C  
HETATM    2  O   UNL     1     -13.025   7.314  71.047  1.00  0.00    -0.307 OA 
ENDROOT
BRANCH   2   3
HETATM    3  C   UNL     1     -12.752   8.654  71.115  1.00  0.00    -0.123 A  
HETATM    4  C   UNL     1     -11.947   9.193  70.102  1.00  0.00     0.256 A  
HETATM    5  F   UNL     1     -11.482   8.388  69.130  1.00  0.00     0.129 F  
HETATM    6  C   UNL     1     -11.632  10.558  70.079  1.00  0.00    -0.392 A  
HETATM    7  C   UNL     1     -12.108  11.384  71.107  1.00  0.00    -0.197 A  
HETATM    8  C   UNL     1     -13.204   9.486  72.146  1.00  0.00    -0.539 A  
HETATM    9  C   UNL     1     -12.887  10.844  72.135  1.00  0.00    -0.166 A  
BRANCH   6  10
HETATM   10  C   UNL     1     -10.861  11.141  68.960  1.00  0.00    -0.276 C  
HETATM   11  C   UNL     1      -8.869   9.666  69.375  1.00  0.00    -0.183 C  
HETATM   12  C   UNL     1      -9.607  10.759  68.628  1.00  0.00    -0.187 C  
HETATM   13  N   UNL     1      -8.969  11.346  67.528  1.00  0.00    -0.148 N  
HETATM   14  C   UNL     1      -9.674  12.102  66.587  1.00  0.00    -0.219 C  
HETATM   15  C   UNL     1     -11.480  12.267  68.199  1.00  0.00    -0.316 C  
HETATM   16  O   UNL     1      -9.240  12.301  65.449  1.00  0.00     0.028 OA 
HETATM   17  O   UNL     1     -12.480  12.837  68.638  1.00  0.00     0.130 OA 
HETATM   18  N   UNL     1     -10.886  12.610  67.003  1.00  0.00    -0.249 N  
BRANCH  13  19
HETATM   19  C   UNL     1      -7.561  11.091  67.204  1.00  0.00    -0.117 C  
BRANCH  19  20
HETATM   20  C   UNL     1      -6.638  10.699  68.352  1.00  0.00    -0.055 A  
HETATM   21  F   UNL     1      -7.395  13.505  70.324  1.00  0.00     0.509 F  
HETATM   22  C   UNL     1      -6.504  13.094  69.381  1.00  0.00    -0.095 C  
HETATM   23  C   UNL     1      -6.296  11.592  69.399  1.00  0.00    -0.103 A  
HETATM   24  F   UNL     1      -6.474   8.475  67.511  1.00  0.00    -0.053 F  
HETATM   25  C   UNL     1      -5.694  11.076  70.574  1.00  0.00    -0.133 A  
HETATM   26  C   UNL     1      -6.251   9.353  68.497  1.00  0.00    -0.048 A  
HETATM   27  F   UNL     1      -5.343  13.757  69.656  1.00  0.00    -0.083 F  
HETATM   28  F   UNL     1      -6.935  13.619  68.207  1.00  0.00    -0.077 F  
HETATM   29  C   UNL     1      -5.624   8.870  69.646  1.00  0.00    -0.033 A  
HETATM   30  C   UNL     1      -5.374   9.728  70.703  1.00  0.00    -0.048 A  
ENDBRANCH  19  20
ENDBRANCH  13  19
BRANCH  18  31
HETATM   31  C   UNL     1     -11.565  13.582  66.137  1.00  0.00    -0.343 C  
BRANCH  31  32
HETATM   32  C   UNL     1     -11.428  15.076  66.577  1.00  0.00    -0.239 C  
BRANCH  32  33
HETATM   33  N   UNL     1     -10.493  15.875  65.740  1.00  0.00    -0.351 NA 
HETATM   34  H   UNL     1     -10.905  16.780  65.517  1.00  0.00     0.000 HD 
BRANCH  33  35
HETATM   35  C   UNL     1      -9.159  16.055  66.305  1.00  0.00    -0.344 C  
BRANCH  35  36
HETATM   36  C   UNL     1      -8.215  16.700  65.279  1.00  0.00     2.442 C  
BRANCH  36  37
HETATM   37  C   UNL     1      -7.420  17.876  65.846  1.00  0.00    -0.212 C  
HETATM   38  O   UNL     1      -7.199  18.252  68.216  1.00  0.00    -0.241 OA 
HETATM   39  C   UNL     1      -6.888  17.604  67.229  1.00  0.00    -0.162 C  
HETATM   40  O   UNL     1      -5.984  16.602  67.276  1.00  0.00    -0.134 OA 
ENDBRANCH  36  37
ENDBRANCH  35  36
ENDBRANCH  33  35
ENDBRANCH  32  33
BRANCH  32  41
HETATM   41  C   UNL     1     -10.972  15.217  68.033  1.00  0.00    -0.295 A  
HETATM   42  C   UNL     1     -11.380  16.036  70.290  1.00  0.00    -0.391 A  
HETATM   43  C   UNL     1      -9.293  14.946  69.785  1.00  0.00     0.168 A  
HETATM   44  C   UNL     1     -11.800  15.855  68.969  1.00  0.00    -0.328 A  
HETATM   45  C   UNL     1      -9.715  14.754  68.466  1.00  0.00    -0.218 A  
HETATM   46  C   UNL     1     -10.127  15.586  70.697  1.00  0.00     0.390 A  
ENDBRANCH  32  41
ENDBRANCH  31  32
ENDBRANCH  18  31
ENDBRANCH   6  10
ENDBRANCH   2   3
TORSDOF 11
ENDMDL
MODEL      276
REMARK 921   NORMALIZED FREE ENERGY PREDICTED BY IDOCK:    3.84 KCAL/MOL
REMARK 922        TOTAL FREE ENERGY PREDICTED BY IDOCK:    3.26 KCAL/MOL
REMARK 923 INTER-LIGAND FREE ENERGY PREDICTED BY IDOCK:   -0.25 KCAL/MOL
REMARK 924 INTRA-LIGAND FREE ENERGY PREDICTED BY IDOCK:    3.51 KCAL/MOL
REMARK 927      BINDING AFFINITY PREDICTED BY RF-SCORE:    0.00 PKD
ROOT
HETATM    1  C   UNL     1     -12.145   3.539  62.649  1.00  0.00     2.325 C  
HETATM    2  O   UNL     1     -11.958   3.741  64.054  1.00  0.00     1.081 OA 
ENDROOT
BRANCH   2   3
HETATM    3  C   UNL     1     -10.725   4.220  64.407  1.00  0.00    -0.043 A  
HETATM    4  C   UNL     1     -10.656   5.013  65.562  1.00  0.00     0.057 A  
HETATM    5  F   UNL     1     -11.780   5.269  66.255  1.00  0.00     0.334 F  
HETATM    6  C   UNL     1      -9.434   5.530  66.011  1.00  0.00    -0.147 A  
HETATM    7  C   UNL     1      -8.272   5.271  65.270  1.00  0.00    -0.130 A  
HETATM    8  C   UNL     1      -9.561   3.986  63.666  1.00  0.00    -0.156 A  
HETATM    9  C   UNL     1      -8.342   4.506  64.102  1.00  0.00    -0.115 A  
BRANCH   6  10
HETATM   10  C   UNL     1      -9.349   6.288  67.277  1.00  0.00    -0.123 C  
HETATM   11  C   UNL     1      -7.753   4.650  68.318  1.00  0.00    -0.081 C  
HETATM   12  C   UNL     1      -8.602   5.905  68.337  1.00  0.00    -0.113 C  
HETATM   13  N   UNL     1      -8.558   6.708  69.483  1.00  0.00    -0.131 N  
HETATM   14  C   UNL     1      -9.023   8.026  69.476  1.00  0.00    -0.148 C  
HETATM   15  C   UNL     1     -10.196   7.511  67.415  1.00  0.00    -0.249 C  
HETATM   16  O   UNL     1      -8.662   8.853  70.318  1.00  0.00    -0.142 OA 
HETATM   17  O   UNL     1     -11.097   7.737  66.607  1.00  0.00     0.179 OA 
HETATM   18  N   UNL     1      -9.906   8.352  68.468  1.00  0.00    -0.168 N  
BRANCH  13  19
HETATM   19  C   UNL     1      -7.893   6.282  70.721  1.00  0.00    -0.106 C  
BRANCH  19  20
HETATM   20  C   UNL     1      -8.015   7.200  71.932  1.00  0.00    -0.093 A  
HETATM   21  F   UNL     1     -10.178   5.080  73.709  1.00  0.00    -0.161 F  
HETATM   22  C   UNL     1     -10.214   6.121  72.833  1.00  0.00    -0.189 C  
HETATM   23  C   UNL     1      -8.989   7.009  72.943  1.00  0.00    -0.148 A  
HETATM   24  F   UNL     1      -6.112   8.449  71.223  1.00  0.00    -0.033 F  
HETATM   25  C   UNL     1      -8.850   7.702  74.172  1.00  0.00    -0.280 A  
HETATM   26  C   UNL     1      -7.016   8.164  72.168  1.00  0.00    -0.083 A  
HETATM   27  F   UNL     1     -11.354   6.811  73.126  1.00  0.00    -0.247 F  
HETATM   28  F   UNL     1     -10.441   5.574  71.613  1.00  0.00    -0.248 F  
HETATM   29  C   UNL     1      -6.917   8.865  73.371  1.00  0.00     0.218 A  
HETATM   30  C   UNL     1      -7.818   8.609  74.390  1.00  0.00    -0.053 A  
ENDBRANCH  19  20
ENDBRANCH  13  19
BRANCH  18  31
HETATM   31  C   UNL     1     -10.587   9.650  68.536  1.00  0.00    -0.220 C  
BRANCH  31  32
HETATM   32  C   UNL     1      -9.689  10.892  68.228  1.00  0.00    -0.165 C  
BRANCH  32  33
HETATM   33  N   UNL     1     -10.422  12.044  67.638  1.00  0.00    -0.202 NA 
HETATM   34  H   UNL     1     -11.083  11.718  66.933  1.00  0.00     0.000 HD 
BRANCH  33  35
HETATM   35  C   UNL     1     -11.100  12.904  68.604  1.00  0.00    -0.269 C  
BRANCH  35  36
HETATM   36  C   UNL     1     -10.104  13.449  69.639  1.00  0.00     0.971 C  
BRANCH  36  37
HETATM   37  C   UNL     1     -10.166  14.969  69.793  1.00  0.00    -0.142 C  
HETATM   38  O   UNL     1     -11.583  16.343  68.410  1.00  0.00    -0.286 OA 
HETATM   39  C   UNL     1     -11.478  15.547  69.331  1.00  0.00    -0.337 C  
HETATM   40  O   UNL     1     -12.537  15.145  70.065  1.00  0.00    -0.299 OA 
ENDBRANCH  36  37
ENDBRANCH  35  36
ENDBRANCH  33  35
ENDBRANCH  32  33
BRANCH  32  41
HETATM   41  C   UNL     1      -8.531  10.555  67.283  1.00  0.00    -0.122 A  
HETATM   42  C   UNL     1      -6.573   9.205  66.761  1.00  0.00    -0.068 A  
HETATM   43  C   UNL     1      -7.181  11.022  65.303  1.00  0.00     0.362 A  
HETATM   44  C   UNL     1      -7.663   9.495  67.586  1.00  0.00    -0.095 A  
HETATM   45  C   UNL     1      -8.279  11.307  66.120  1.00  0.00    -0.088 A  
HETATM   46  C   UNL     1      -6.329   9.969  65.622  1.00  0.00    -0.094 A  
ENDBRANCH  32  41
ENDBRANCH  31  32
ENDBRANCH  18  31
ENDBRANCH   6  10
ENDBRANCH   2   3
TORSDOF 11
ENDMDL
MODEL      277
REMARK 921   NORMALIZED FREE ENERGY PREDICTED BY IDOCK:    3.97 KCAL/MOL
REMARK 922        TOTAL FREE ENERGY PREDICTED BY IDOCK:    3.47 KCAL/MOL
REMARK 923 INTER-LIGAND FREE ENERGY PREDICTED BY IDOCK:   -2.11 KCAL/MOL
REMARK 924 INTRA-LIGAND FREE ENERGY PREDICTED BY IDOCK:    5.58 KCAL/MOL
REMARK 927      BINDING AFFINITY PREDICTED BY RF-SCORE:    0.00 PKD
ROOT
HETATM    1  C   UNL     1     -13.706   9.503  72.774  1.00  0.00    -0.034 C  
HETATM    2  O   UNL     1     -12.653   8.539  72.878  1.00  0.00    -0.266 OA 
ENDROOT
BRANCH   2   3
HETATM    3  C   UNL     1     -12.324   7.918  71.703  1.00  0.00    -0.315 A  
HETATM    4  C   UNL     1     -11.551   8.649  70.789  1.00  0.00    -0.242 A  
HETATM    5  F   UNL     1     -11.179   9.905  71.095  1.00  0.00    -0.373 F  
HETATM    6  C   UNL     1     -11.150   8.087  69.569  1.00  0.00     0.026 A  
HETATM    7  C   UNL     1     -11.560   6.784  69.254  1.00  0.00    -0.084 A  
HETATM    8  C   UNL     1     -12.741   6.625  71.366  1.00  0.00    -0.211 A  
HETATM    9  C   UNL     1     -12.354   6.062  70.150  1.00  0.00     1.630 A  
BRANCH   6  10
HETATM   10  C   UNL     1     -10.260   8.826  68.649  1.00  0.00    -0.214 C  
HETATM   11  C   UNL     1      -8.296   7.331  69.119  1.00  0.00    -0.132 C  
HETATM   12  C   UNL     1      -8.964   8.507  68.435  1.00  0.00    -0.139 C  
HETATM   13  N   UNL     1      -8.208   9.246  67.516  1.00  0.00    -0.114 N  
HETATM   14  C   UNL     1      -8.809  10.116  66.601  1.00  0.00    -0.132 C  
HETATM   15  C   UNL     1     -10.810  10.038  67.971  1.00  0.00    -0.260 C  
HETATM   16  O   UNL     1      -8.239  10.473  65.567  1.00  0.00    -0.159 OA 
HETATM   17  O   UNL     1     -11.874  10.532  68.348  1.00  0.00    -0.380 OA 
HETATM   18  N   UNL     1     -10.079  10.547  66.919  1.00  0.00    -0.208 N  
BRANCH  13  19
HETATM   19  C   UNL     1      -6.763   9.054  67.347  1.00  0.00    -0.069 C  
BRANCH  19  20
HETATM   20  C   UNL     1      -6.286   7.669  66.926  1.00  0.00    -0.049 A  
HETATM   21  F   UNL     1      -7.326   6.075  69.878  1.00  0.00    -0.066 F  
HETATM   22  C   UNL     1      -6.233   6.686  69.344  1.00  0.00    -0.034 C  
HETATM   23  C   UNL     1      -6.196   6.582  67.831  1.00  0.00    -0.028 A  
HETATM   24  F   UNL     1      -6.097   8.382  64.660  1.00  0.00    -0.059 F  
HETATM   25  C   UNL     1      -6.042   5.270  67.317  1.00  0.00    -0.030 A  
HETATM   26  C   UNL     1      -6.102   7.389  65.558  1.00  0.00    -0.038 A  
HETATM   27  F   UNL     1      -5.154   6.073  69.909  1.00  0.00    -0.007 F  
HETATM   28  F   UNL     1      -6.225   7.945  69.851  1.00  0.00    -0.026 F  
HETATM   29  C   UNL     1      -5.915   6.095  65.074  1.00  0.00    -0.026 A  
HETATM   30  C   UNL     1      -5.918   5.026  65.953  1.00  0.00    -0.023 A  
ENDBRANCH  19  20
ENDBRANCH  13  19
BRANCH  18  31
HETATM   31  C   UNL     1     -10.669  11.621  66.111  1.00  0.00    -0.278 C  
BRANCH  31  32
HETATM   32  C   UNL     1     -10.057  13.041  66.338  1.00  0.00    -0.279 C  
BRANCH  32  33
HETATM   33  N   UNL     1      -8.578  13.048  66.504  1.00  0.00    -0.425 NA 
HETATM   34  H   UNL     1      -8.132  12.592  65.708  1.00  0.00     0.000 HD 
BRANCH  33  35
HETATM   35  C   UNL     1      -7.988  14.365  66.724  1.00  0.00     0.305 C  
BRANCH  35  36
HETATM   36  C   UNL     1      -6.894  14.298  67.801  1.00  0.00    -0.189 C  
BRANCH  36  37
HETATM   37  C   UNL     1      -6.773  15.584  68.619  1.00  0.00    -0.107 C  
HETATM   38  O   UNL     1      -7.933  15.891  70.709  1.00  0.00     1.903 OA 
HETATM   39  C   UNL     1      -7.022  15.364  70.088  1.00  0.00     0.070 C  
HETATM   40  O   UNL     1      -6.109  14.565  70.680  1.00  0.00    -0.179 OA 
ENDBRANCH  36  37
ENDBRANCH  35  36
ENDBRANCH  33  35
ENDBRANCH  32  33
BRANCH  32  41
HETATM   41  C   UNL     1     -10.656  13.747  67.559  1.00  0.00    -0.246 A  
HETATM   42  C   UNL     1     -10.597  14.225  69.946  1.00  0.00     0.211 A  
HETATM   43  C   UNL     1     -12.409  15.082  68.611  1.00  0.00     0.050 A  
HETATM   44  C   UNL     1     -10.038  13.628  68.813  1.00  0.00    -0.129 A  
HETATM   45  C   UNL     1     -11.846  14.495  67.474  1.00  0.00    -0.404 A  
HETATM   46  C   UNL     1     -11.784  14.948  69.847  1.00  0.00    -0.347 A  
ENDBRANCH  32  41
ENDBRANCH  31  32
ENDBRANCH  18  31
ENDBRANCH   6  10
ENDBRANCH   2   3
TORSDOF 11
ENDMDL
MODEL      278
REMARK 921   NORMALIZED FREE ENERGY PREDICTED BY IDOCK:    4.14 KCAL/MOL
REMARK 922        TOTAL FREE ENERGY PREDICTED BY IDOCK:    3.75 KCAL/MOL
REMARK 923 INTER-LIGAND FREE ENERGY PREDICTED BY IDOCK:    1.41 KCAL/MOL
REMARK 924 INTRA-LIGAND FREE ENERGY PREDICTED BY IDOCK:    2.34 KCAL/MOL
REMARK 927      BINDING AFFINITY PREDICTED BY RF-SCORE:    0.00 PKD
ROOT
HETATM    1  C   UNL     1      -7.474  19.646  71.112  1.00  0.00     1.747 C  
HETATM    2  O   UNL     1      -7.444  19.696  69.682  1.00  0.00    -0.208 OA 
ENDROOT
BRANCH   2   3
HETATM    3  C   UNL     1      -6.920  18.583  69.079  1.00  0.00    -0.267 A  
HETATM    4  C   UNL     1      -7.783  17.494  68.890  1.00  0.00    -0.207 A  
HETATM    5  F   UNL     1      -9.059  17.582  69.306  1.00  0.00    -0.151 F  
HETATM    6  C   UNL     1      -7.340  16.321  68.264  1.00  0.00    -0.146 A  
HETATM    7  C   UNL     1      -6.003  16.234  67.851  1.00  0.00    -0.142 A  
HETATM    8  C   UNL     1      -5.583  18.475  68.679  1.00  0.00    -0.186 A  
HETATM    9  C   UNL     1      -5.132  17.307  68.064  1.00  0.00    -0.121 A  
BRANCH   6  10
HETATM   10  C   UNL     1      -8.274  15.211  67.983  1.00  0.00    -0.144 C  
HETATM   11  C   UNL     1      -8.796  16.042  65.670  1.00  0.00     0.276 C  
HETATM   12  C   UNL     1      -8.949  15.068  66.821  1.00  0.00    -0.265 C  
HETATM   13  N   UNL     1      -9.787  13.961  66.634  1.00  0.00    -0.276 N  
HETATM   14  C   UNL     1      -9.738  12.851  67.482  1.00  0.00    -0.205 C  
HETATM   15  C   UNL     1      -8.538  14.229  69.078  1.00  0.00     0.060 C  
HETATM   16  O   UNL     1     -10.165  11.745  67.138  1.00  0.00    -0.208 OA 
HETATM   17  O   UNL     1      -8.180  14.473  70.231  1.00  0.00     0.722 OA 
HETATM   18  N   UNL     1      -9.178  13.061  68.724  1.00  0.00     0.063 N  
BRANCH  13  19
HETATM   19  C   UNL     1     -10.663  13.822  65.465  1.00  0.00    -0.302 C  
BRANCH  19  20
HETATM   20  C   UNL     1     -10.576  12.520  64.677  1.00  0.00    -0.343 A  
HETATM   21  F   UNL     1     -13.389  13.180  62.681  1.00  0.00     0.754 F  
HETATM   22  C   UNL     1     -13.052  12.572  63.850  1.00  0.00     0.083 C  
HETATM   23  C   UNL     1     -11.625  12.058  63.842  1.00  0.00    -0.536 A  
HETATM   24  F   UNL     1      -8.344  12.168  65.433  1.00  0.00     0.441 F  
HETATM   25  C   UNL     1     -11.360  11.017  62.917  1.00  0.00     0.932 A  
HETATM   26  C   UNL     1      -9.349  11.833  64.616  1.00  0.00     0.109 A  
HETATM   27  F   UNL     1     -13.944  11.552  64.008  1.00  0.00     0.239 F  
HETATM   28  F   UNL     1     -13.357  13.457  64.832  1.00  0.00    -0.228 F  
HETATM   29  C   UNL     1      -9.118  10.785  63.724  1.00  0.00    -0.215 A  
HETATM   30  C   UNL     1     -10.116  10.396  62.848  1.00  0.00     0.152 A  
ENDBRANCH  19  20
ENDBRANCH  13  19
BRANCH  18  31
HETATM   31  C   UNL     1      -9.293  11.994  69.726  1.00  0.00     2.073 C  
BRANCH  31  32
HETATM   32  C   UNL     1     -10.697  11.312  69.815  1.00  0.00     0.066 C  
BRANCH  32  33
HETATM   33  N   UNL     1     -11.460  11.645  71.049  1.00  0.00     0.250 NA 
HETATM   34  H   UNL     1     -11.028  12.435  71.527  1.00  0.00     0.000 HD 
BRANCH  33  35
HETATM   35  C   UNL     1     -12.884  11.896  70.845  1.00  0.00    -0.130 C  
BRANCH  35  36
HETATM   36  C   UNL     1     -13.204  13.388  71.028  1.00  0.00    -0.102 C  
BRANCH  36  37
HETATM   37  C   UNL     1     -11.995  14.296  70.801  1.00  0.00    -0.390 C  
HETATM   38  O   UNL     1     -11.434  15.167  68.625  1.00  0.00    -0.292 OA 
HETATM   39  C   UNL     1     -12.162  15.197  69.605  1.00  0.00    -0.257 C  
HETATM   40  O   UNL     1     -13.167  16.090  69.734  1.00  0.00     0.329 OA 
ENDBRANCH  36  37
ENDBRANCH  35  36
ENDBRANCH  33  35
ENDBRANCH  32  33
BRANCH  32  41
HETATM   41  C   UNL     1     -10.612   9.784  69.729  1.00  0.00    -0.285 A  
HETATM   42  C   UNL     1     -10.390   7.767  68.383  1.00  0.00    -0.231 A  
HETATM   43  C   UNL     1     -10.735   7.574  70.758  1.00  0.00    -0.238 A  
HETATM   44  C   UNL     1     -10.422   9.161  68.487  1.00  0.00    -0.238 A  
HETATM   45  C   UNL     1     -10.755   8.967  70.867  1.00  0.00    -0.319 A  
HETATM   46  C   UNL     1     -10.550   6.974  69.517  1.00  0.00    -0.253 A  
ENDBRANCH  32  41
ENDBRANCH  31  32
ENDBRANCH  18  31
ENDBRANCH   6  10
ENDBRANCH   2   3
TORSDOF 11
ENDMDL
MODEL      279
REMARK 921   NORMALIZED FREE ENERGY PREDICTED BY IDOCK:    4.19 KCAL/MOL
REMARK 922        TOTAL FREE ENERGY PREDICTED BY IDOCK:    3.83 KCAL/MOL
REMARK 923 INTER-LIGAND FREE ENERGY PREDICTED BY IDOCK:   -0.38 KCAL/MOL
REMARK 924 INTRA-LIGAND FREE ENERGY PREDICTED BY IDOCK:    4.20 KCAL/MOL
REMARK 927      BINDING AFFINITY PREDICTED BY RF-SCORE:    0.00 PKD
ROOT
HETATM    1  C   UNL     1     -10.415   6.451  66.291  1.00  0.00     0.191 C  
HETATM    2  O   UNL     1     -10.571   7.818  65.898  1.00  0.00     1.083 OA 
ENDROOT
BRANCH   2   3
HETATM    3  C   UNL     1      -9.398   8.499  65.706  1.00  0.00    -0.118 A  
HETATM    4  C   UNL     1      -9.325   9.802  66.218  1.00  0.00    -0.180 A  
HETATM    5  F   UNL     1     -10.389  10.321  66.856  1.00  0.00    -0.247 F  
HETATM    6  C   UNL     1      -8.158  10.566  66.086  1.00  0.00    -0.145 A  
HETATM    7  C   UNL     1      -7.062  10.021  65.403  1.00  0.00    -0.138 A  
HETATM    8  C   UNL     1      -8.303   7.974  65.010  1.00  0.00    -0.121 A  
HETATM    9  C   UNL     1      -7.140   8.733  64.866  1.00  0.00    -0.077 A  
BRANCH   6  10
HETATM   10  C   UNL     1      -8.052  11.904  66.706  1.00  0.00    -0.108 C  
HETATM   11  C   UNL     1     -10.532  12.295  66.631  1.00  0.00    -0.247 C  
HETATM   12  C   UNL     1      -9.110  12.706  66.956  1.00  0.00    -0.215 C  
HETATM   13  N   UNL     1      -8.914  13.944  67.580  1.00  0.00    -0.186 N  
HETATM   14  C   UNL     1      -7.710  14.265  68.214  1.00  0.00    -0.136 C  
HETATM   15  C   UNL     1      -6.684  12.424  67.010  1.00  0.00     0.001 C  
HETATM   16  O   UNL     1      -7.636  15.150  69.070  1.00  0.00    -0.135 OA 
HETATM   17  O   UNL     1      -5.690  11.867  66.544  1.00  0.00    -0.265 OA 
HETATM   18  N   UNL     1      -6.608  13.529  67.830  1.00  0.00    -0.136 N  
BRANCH  13  19
HETATM   19  C   UNL     1      -9.992  14.927  67.742  1.00  0.00    -0.222 C  
BRANCH  19  20
HETATM   20  C   UNL     1      -9.786  16.301  67.115  1.00  0.00    -0.243 A  
HETATM   21  F   UNL     1      -8.506  17.782  70.031  1.00  0.00     0.924 F  
HETATM   22  C   UNL     1      -9.687  17.590  69.383  1.00  0.00     0.116 C  
HETATM   23  C   UNL     1      -9.508  17.459  67.882  1.00  0.00    -0.265 A  
HETATM   24  F   UNL     1     -10.005  15.377  64.929  1.00  0.00    -0.331 F  
HETATM   25  C   UNL     1      -9.032  18.622  67.225  1.00  0.00    -0.283 A  
HETATM   26  C   UNL     1      -9.680  16.410  65.715  1.00  0.00    -0.236 A  
HETATM   27  F   UNL     1     -10.461  18.669  69.697  1.00  0.00    -0.124 F  
HETATM   28  F   UNL     1     -10.285  16.540  70.000  1.00  0.00    -0.197 F  
HETATM   29  C   UNL     1      -9.246  17.575  65.083  1.00  0.00     2.229 A  
HETATM   30  C   UNL     1      -8.888  18.676  65.842  1.00  0.00     0.199 A  
ENDBRANCH  19  20
ENDBRANCH  13  19
BRANCH  18  31
HETATM   31  C   UNL     1      -5.287  13.962  68.302  1.00  0.00    -0.111 C  
BRANCH  31  32
HETATM   32  C   UNL     1      -5.213  14.350  69.814  1.00  0.00    -0.092 C  
BRANCH  32  33
HETATM   33  N   UNL     1      -6.231  13.677  70.667  1.00  0.00    -0.404 NA 
HETATM   34  H   UNL     1      -7.158  14.056  70.476  1.00  0.00     0.000 HD 
BRANCH  33  35
HETATM   35  C   UNL     1      -6.252  12.221  70.568  1.00  0.00     0.240 C  
BRANCH  35  36
HETATM   36  C   UNL     1      -5.148  11.600  71.437  1.00  0.00    -0.062 C  
BRANCH  36  37
HETATM   37  C   UNL     1      -5.579  10.303  72.124  1.00  0.00     0.330 C  
HETATM   38  O   UNL     1      -7.486   9.030  71.382  1.00  0.00    -0.219 OA 
HETATM   39  C   UNL     1      -6.330   9.379  71.201  1.00  0.00    -0.074 C  
HETATM   40  O   UNL     1      -5.588   8.920  70.170  1.00  0.00    -0.027 OA 
ENDBRANCH  36  37
ENDBRANCH  35  36
ENDBRANCH  33  35
ENDBRANCH  32  33
BRANCH  32  41
HETATM   41  C   UNL     1      -5.356  15.859  70.038  1.00  0.00    -0.143 A  
HETATM   42  C   UNL     1      -5.532  18.109  69.124  1.00  0.00    -0.200 A  
HETATM   43  C   UNL     1      -5.428  17.806  71.510  1.00  0.00     0.297 A  
HETATM   44  C   UNL     1      -5.451  16.726  68.939  1.00  0.00    -0.129 A  
HETATM   45  C   UNL     1      -5.358  16.422  71.329  1.00  0.00     0.065 A  
HETATM   46  C   UNL     1      -5.517  18.650  70.407  1.00  0.00    -0.236 A  
ENDBRANCH  32  41
ENDBRANCH  31  32
ENDBRANCH  18  31
ENDBRANCH   6  10
ENDBRANCH   2   3
TORSDOF 11
ENDMDL
MODEL      280
REMARK 921   NORMALIZED FREE ENERGY PREDICTED BY IDOCK:    4.40 KCAL/MOL
REMARK 922        TOTAL FREE ENERGY PREDICTED BY IDOCK:    4.18 KCAL/MOL
REMARK 923 INTER-LIGAND FREE ENERGY PREDICTED BY IDOCK:   -2.58 KCAL/MOL
REMARK 924 INTRA-LIGAND FREE ENERGY PREDICTED BY IDOCK:    6.75 KCAL/MOL
REMARK 927      BINDING AFFINITY PREDICTED BY RF-SCORE:    0.00 PKD
ROOT
HETATM    1  C   UNL     1     -12.669   6.626  69.803  1.00  0.00     2.060 C  
HETATM    2  O   UNL     1     -13.218   7.345  70.912  1.00  0.00    -0.173 OA 
ENDROOT
BRANCH   2   3
HETATM    3  C   UNL     1     -12.920   8.682  70.935  1.00  0.00     0.190 A  
HETATM    4  C   UNL     1     -11.957   9.137  70.023  1.00  0.00     0.369 A  
HETATM    5  F   UNL     1     -11.374   8.260  69.187  1.00  0.00     0.019 F  
HETATM    6  C   UNL     1     -11.604  10.491  69.961  1.00  0.00    -0.392 A  
HETATM    7  C   UNL     1     -12.205  11.392  70.850  1.00  0.00    -0.447 A  
HETATM    8  C   UNL     1     -13.499   9.589  71.830  1.00  0.00    -0.480 A  
HETATM    9  C   UNL     1     -13.145  10.938  71.781  1.00  0.00    -0.564 A  
BRANCH   6  10
HETATM   10  C   UNL     1     -10.657  10.982  68.937  1.00  0.00    -0.239 C  
HETATM   11  C   UNL     1      -8.800   9.487  69.729  1.00  0.00    -0.211 C  
HETATM   12  C   UNL     1      -9.382  10.549  68.818  1.00  0.00    -0.180 C  
HETATM   13  N   UNL     1      -8.570  11.049  67.793  1.00  0.00    -0.128 N  
HETATM   14  C   UNL     1      -9.102  11.762  66.715  1.00  0.00    -0.194 C  
HETATM   15  C   UNL     1     -11.119  12.074  68.028  1.00  0.00    -0.241 C  
HETATM   16  O   UNL     1      -8.499  11.878  65.645  1.00  0.00     0.240 OA 
HETATM   17  O   UNL     1     -12.152  12.695  68.279  1.00  0.00    -0.279 OA 
HETATM   18  N   UNL     1     -10.345  12.325  66.916  1.00  0.00    -0.216 N  
BRANCH  13  19
HETATM   19  C   UNL     1      -7.138  10.739  67.697  1.00  0.00    -0.091 C  
BRANCH  19  20
HETATM   20  C   UNL     1      -6.581  10.430  66.312  1.00  0.00    -0.107 A  
HETATM   21  F   UNL     1      -9.143   8.193  65.440  1.00  0.00    -0.176 F  
HETATM   22  C   UNL     1      -7.907   8.202  66.009  1.00  0.00    -0.093 C  
HETATM   23  C   UNL     1      -7.055   9.357  65.517  1.00  0.00    -0.087 A  
HETATM   24  F   UNL     1      -5.149  12.333  66.424  1.00  0.00     0.052 F  
HETATM   25  C   UNL     1      -6.714   9.317  64.142  1.00  0.00    -0.091 A  
HETATM   26  C   UNL     1      -5.695  11.343  65.707  1.00  0.00     0.303 A  
HETATM   27  F   UNL     1      -7.344   7.002  65.689  1.00  0.00    -0.070 F  
HETATM   28  F   UNL     1      -8.112   8.147  67.348  1.00  0.00    -0.113 F  
HETATM   29  C   UNL     1      -5.340  11.265  64.360  1.00  0.00     0.824 A  
HETATM   30  C   UNL     1      -5.877  10.269  63.565  1.00  0.00    -0.144 A  
ENDBRANCH  19  20
ENDBRANCH  13  19
BRANCH  18  31
HETATM   31  C   UNL     1     -10.855  13.258  65.903  1.00  0.00    -0.277 C  
BRANCH  31  32
HETATM   32  C   UNL     1     -10.852  14.764  66.322  1.00  0.00    -0.322 C  
BRANCH  32  33
HETATM   33  N   UNL     1      -9.636  15.512  65.902  1.00  0.00    -0.340 NA 
HETATM   34  H   UNL     1      -9.884  16.462  65.626  1.00  0.00     0.000 HD 
BRANCH  33  35
HETATM   35  C   UNL     1      -8.557  15.538  66.885  1.00  0.00    -0.256 C  
BRANCH  35  36
HETATM   36  C   UNL     1      -7.251  16.034  66.246  1.00  0.00     0.719 C  
BRANCH  36  37
HETATM   37  C   UNL     1      -6.499  17.043  67.116  1.00  0.00    -0.213 C  
HETATM   38  O   UNL     1      -7.519  18.105  69.023  1.00  0.00    -0.253 OA 
HETATM   39  C   UNL     1      -7.029  17.103  68.524  1.00  0.00    -0.201 C  
HETATM   40  O   UNL     1      -6.865  15.955  69.216  1.00  0.00    -0.164 OA 
ENDBRANCH  36  37
ENDBRANCH  35  36
ENDBRANCH  33  35
ENDBRANCH  32  33
BRANCH  32  41
HETATM   41  C   UNL     1     -11.002  14.950  67.836  1.00  0.00    -0.288 A  
HETATM   42  C   UNL     1     -10.139  14.610  70.087  1.00  0.00     0.436 A  
HETATM   43  C   UNL     1     -12.292  15.646  69.788  1.00  0.00    -0.216 A  
HETATM   44  C   UNL     1      -9.997  14.493  68.702  1.00  0.00    -0.237 A  
HETATM   45  C   UNL     1     -12.147  15.540  68.402  1.00  0.00     0.021 A  
HETATM   46  C   UNL     1     -11.287  15.183  70.631  1.00  0.00    -0.330 A  
ENDBRANCH  32  41
ENDBRANCH  31  32
ENDBRANCH  18  31
ENDBRANCH   6  10
ENDBRANCH   2   3
TORSDOF 11
ENDMDL
MODEL      281
REMARK 921   NORMALIZED FREE ENERGY PREDICTED BY IDOCK:    4.63 KCAL/MOL
REMARK 922        TOTAL FREE ENERGY PREDICTED BY IDOCK:    4.55 KCAL/MOL
REMARK 923 INTER-LIGAND FREE ENERGY PREDICTED BY IDOCK:    4.30 KCAL/MOL
REMARK 924 INTRA-LIGAND FREE ENERGY PREDICTED BY IDOCK:    0.25 KCAL/MOL
REMARK 927      BINDING AFFINITY PREDICTED BY RF-SCORE:    0.00 PKD
ROOT
HETATM    1  C   UNL     1      -7.480  20.187  71.335  1.00  0.00     1.381 C  
HETATM    2  O   UNL     1      -7.344  20.372  69.922  1.00  0.00     0.204 OA 
ENDROOT
BRANCH   2   3
HETATM    3  C   UNL     1      -6.845  19.291  69.246  1.00  0.00    -0.318 A  
HETATM    4  C   UNL     1      -7.671  18.162  69.147  1.00  0.00    -0.020 A  
HETATM    5  F   UNL     1      -8.891  18.186  69.714  1.00  0.00     0.455 F  
HETATM    6  C   UNL     1      -7.252  17.017  68.456  1.00  0.00    -0.209 A  
HETATM    7  C   UNL     1      -5.972  16.999  67.885  1.00  0.00    -0.143 A  
HETATM    8  C   UNL     1      -5.562  19.251  68.687  1.00  0.00    -0.217 A  
HETATM    9  C   UNL     1      -5.133  18.111  68.006  1.00  0.00    -0.156 A  
BRANCH   6  10
HETATM   10  C   UNL     1      -8.160  15.865  68.275  1.00  0.00    -0.144 C  
HETATM   11  C   UNL     1      -8.514  15.571  70.745  1.00  0.00     2.274 C  
HETATM   12  C   UNL     1      -8.736  15.191  69.295  1.00  0.00    -0.207 C  
HETATM   13  N   UNL     1      -9.611  14.132  69.022  1.00  0.00    -0.044 N  
HETATM   14  C   UNL     1     -10.138  13.923  67.744  1.00  0.00    -0.241 C  
HETATM   15  C   UNL     1      -8.396  15.376  66.883  1.00  0.00    -0.255 C  
HETATM   16  O   UNL     1     -11.166  13.267  67.558  1.00  0.00    -0.262 OA 
HETATM   17  O   UNL     1      -7.679  15.764  65.959  1.00  0.00     0.405 OA 
HETATM   18  N   UNL     1      -9.443  14.499  66.701  1.00  0.00    -0.270 N  
BRANCH  13  19
HETATM   19  C   UNL     1     -10.151  13.262  70.075  1.00  0.00     2.074 C  
BRANCH  19  20
HETATM   20  C   UNL     1     -11.577  13.532  70.541  1.00  0.00     0.003 A  
HETATM   21  F   UNL     1     -12.118  10.286  71.768  1.00  0.00    -0.442 F  
HETATM   22  C   UNL     1     -12.280  11.020  70.633  1.00  0.00    -0.385 C  
HETATM   23  C   UNL     1     -12.467  12.497  70.923  1.00  0.00    -0.361 A  
HETATM   24  F   UNL     1     -11.225  15.884  70.379  1.00  0.00    -0.267 F  
HETATM   25  C   UNL     1     -13.651  12.832  71.626  1.00  0.00    -0.073 A  
HETATM   26  C   UNL     1     -11.983  14.858  70.786  1.00  0.00    -0.314 A  
HETATM   27  F   UNL     1     -13.374  10.496  70.007  1.00  0.00    -0.239 F  
HETATM   28  F   UNL     1     -11.233  10.702  69.831  1.00  0.00    -0.262 F  
HETATM   29  C   UNL     1     -13.171  15.171  71.446  1.00  0.00    -0.528 A  
HETATM   30  C   UNL     1     -13.994  14.154  71.898  1.00  0.00    -0.558 A  
ENDBRANCH  19  20
ENDBRANCH  13  19
BRANCH  18  31
HETATM   31  C   UNL     1      -9.825  14.138  65.331  1.00  0.00    -0.200 C  
BRANCH  31  32
HETATM   32  C   UNL     1     -10.004  12.606  65.070  1.00  0.00    -0.158 C  
BRANCH  32  33
HETATM   33  N   UNL     1      -8.909  11.991  64.273  1.00  0.00     0.219 NA 
HETATM   34  H   UNL     1      -8.307  12.716  63.883  1.00  0.00     0.000 HD 
BRANCH  33  35
HETATM   35  C   UNL     1      -8.107  11.001  64.986  1.00  0.00     0.246 C  
BRANCH  35  36
HETATM   36  C   UNL     1      -8.842   9.654  65.055  1.00  0.00    -0.221 C  
BRANCH  36  37
HETATM   37  C   UNL     1      -9.608   9.452  66.363  1.00  0.00    -0.285 C  
HETATM   38  O   UNL     1     -10.502   7.309  67.009  1.00  0.00    -0.278 OA 
HETATM   39  C   UNL     1      -9.530   8.035  66.869  1.00  0.00    -0.191 C  
HETATM   40  O   UNL     1      -8.281   7.648  67.210  1.00  0.00    -0.116 OA 
ENDBRANCH  36  37
ENDBRANCH  35  36
ENDBRANCH  33  35
ENDBRANCH  32  33
BRANCH  32  41
HETATM   41  C   UNL     1     -11.323  12.285  64.360  1.00  0.00    -0.396 A  
HETATM   42  C   UNL     1     -13.758  12.314  64.341  1.00  0.00     1.657 A  
HETATM   43  C   UNL     1     -12.572  11.262  62.528  1.00  0.00     1.961 A  
HETATM   44  C   UNL     1     -12.544  12.642  64.951  1.00  0.00    -0.525 A  
HETATM   45  C   UNL     1     -11.356  11.600  63.131  1.00  0.00    -0.153 A  
HETATM   46  C   UNL     1     -13.773  11.621  63.132  1.00  0.00     1.857 A  
ENDBRANCH  32  41
ENDBRANCH  31  32
ENDBRANCH  18  31
ENDBRANCH   6  10
ENDBRANCH   2   3
TORSDOF 11
ENDMDL
MODEL      282
REMARK 921   NORMALIZED FREE ENERGY PREDICTED BY IDOCK:    5.40 KCAL/MOL
REMARK 922        TOTAL FREE ENERGY PREDICTED BY IDOCK:    5.82 KCAL/MOL
REMARK 923 INTER-LIGAND FREE ENERGY PREDICTED BY IDOCK:    1.50 KCAL/MOL
REMARK 924 INTRA-LIGAND FREE ENERGY PREDICTED BY IDOCK:    4.32 KCAL/MOL
REMARK 927      BINDING AFFINITY PREDICTED BY RF-SCORE:    0.00 PKD
ROOT
HETATM    1  C   UNL     1      -9.066  13.202  66.939  1.00  0.00    -0.229 C  
HETATM    2  O   UNL     1      -9.492  12.839  65.622  1.00  0.00    -0.111 OA 
ENDROOT
BRANCH   2   3
HETATM    3  C   UNL     1      -9.829  11.520  65.470  1.00  0.00    -0.234 A  
HETATM    4  C   UNL     1      -8.905  10.568  65.925  1.00  0.00    -0.165 A  
HETATM    5  F   UNL     1      -7.749  10.981  66.474  1.00  0.00    -0.131 F  
HETATM    6  C   UNL     1      -9.174   9.197  65.829  1.00  0.00    -0.294 A  
HETATM    7  C   UNL     1     -10.375   8.779  65.238  1.00  0.00     2.023 A  
HETATM    8  C   UNL     1     -11.015  11.089  64.864  1.00  0.00    -0.130 A  
HETATM    9  C   UNL     1     -11.285   9.724  64.756  1.00  0.00     4.027 A  
BRANCH   6  10
HETATM   10  C   UNL     1      -8.241   8.199  66.393  1.00  0.00    -0.108 C  
HETATM   11  C   UNL     1      -7.477   7.421  64.130  1.00  0.00    -0.099 C  
HETATM   12  C   UNL     1      -7.469   7.380  65.644  1.00  0.00    -0.084 C  
HETATM   13  N   UNL     1      -6.589   6.489  66.270  1.00  0.00    -0.047 N  
HETATM   14  C   UNL     1      -6.263   6.606  67.624  1.00  0.00    -0.035 C  
HETATM   15  C   UNL     1      -8.204   8.041  67.879  1.00  0.00    -0.129 C  
HETATM   16  O   UNL     1      -5.241   6.103  68.099  1.00  0.00    -0.004 OA 
HETATM   17  O   UNL     1      -9.081   8.548  68.579  1.00  0.00    -0.136 OA 
HETATM   18  N   UNL     1      -7.149   7.323  68.401  1.00  0.00    -0.079 N  
BRANCH  13  19
HETATM   19  C   UNL     1      -5.836   5.470  65.529  1.00  0.00    -0.021 C  
BRANCH  19  20
HETATM   20  C   UNL     1      -6.619   4.282  64.981  1.00  0.00    -0.044 A  
HETATM   21  F   UNL     1      -8.411   3.702  67.945  1.00  0.00    -0.088 F  
HETATM   22  C   UNL     1      -7.265   3.319  67.320  1.00  0.00    -0.058 C  
HETATM   23  C   UNL     1      -7.372   3.414  65.810  1.00  0.00    -0.072 A  
HETATM   24  F   UNL     1      -6.024   4.872  62.750  1.00  0.00    -0.016 F  
HETATM   25  C   UNL     1      -8.307   2.531  65.212  1.00  0.00    -0.095 A  
HETATM   26  C   UNL     1      -6.765   4.137  63.588  1.00  0.00    -0.043 A  
HETATM   27  F   UNL     1      -7.036   2.035  67.720  1.00  0.00    -0.037 F  
HETATM   28  F   UNL     1      -6.269   4.044  67.888  1.00  0.00    -0.031 F  
HETATM   29  C   UNL     1      -7.664   3.235  63.016  1.00  0.00    -0.067 A  
HETATM   30  C   UNL     1      -8.463   2.453  63.831  1.00  0.00    -0.085 A  
ENDBRANCH  19  20
ENDBRANCH  13  19
BRANCH  18  31
HETATM   31  C   UNL     1      -6.972   7.298  69.858  1.00  0.00    -0.057 C  
BRANCH  31  32
HETATM   32  C   UNL     1      -7.704   8.439  70.638  1.00  0.00    -0.083 C  
BRANCH  32  33
HETATM   33  N   UNL     1      -9.163   8.530  70.359  1.00  0.00    -0.155 NA 
HETATM   34  H   UNL     1      -9.379   8.089  69.466  1.00  0.00     0.000 HD 
BRANCH  33  35
HETATM   35  C   UNL     1     -10.026   7.992  71.407  1.00  0.00    -0.178 C  
BRANCH  35  36
HETATM   36  C   UNL     1     -11.074   9.031  71.835  1.00  0.00    -0.433 C  
BRANCH  36  37
HETATM   37  C   UNL     1     -11.786   9.690  70.653  1.00  0.00    -0.331 C  
HETATM   38  O   UNL     1     -14.145  10.183  70.689  1.00  0.00     0.439 OA 
HETATM   39  C   UNL     1     -13.016  10.454  71.069  1.00  0.00    -0.399 C  
HETATM   40  O   UNL     1     -12.755  11.511  71.867  1.00  0.00    -0.306 OA 
ENDBRANCH  36  37
ENDBRANCH  35  36
ENDBRANCH  33  35
ENDBRANCH  32  33
BRANCH  32  41
HETATM   41  C   UNL     1      -7.099   9.819  70.359  1.00  0.00    -0.146 A  
HETATM   42  C   UNL     1      -5.302  11.428  70.692  1.00  0.00    -0.129 A  
HETATM   43  C   UNL     1      -7.239  12.064  69.411  1.00  0.00     0.152 A  
HETATM   44  C   UNL     1      -5.847  10.157  70.895  1.00  0.00    -0.083 A  
HETATM   45  C   UNL     1      -7.781  10.790  69.603  1.00  0.00    -0.020 A  
HETATM   46  C   UNL     1      -5.998  12.382  69.954  1.00  0.00    -0.146 A  
ENDBRANCH  32  41
ENDBRANCH  31  32
ENDBRANCH  18  31
ENDBRANCH   6  10
ENDBRANCH   2   3
TORSDOF 11
ENDMDL
MODEL      283
REMARK 921   NORMALIZED FREE ENERGY PREDICTED BY IDOCK:    5.60 KCAL/MOL
REMARK 922        TOTAL FREE ENERGY PREDICTED BY IDOCK:    6.15 KCAL/MOL
REMARK 923 INTER-LIGAND FREE ENERGY PREDICTED BY IDOCK:   -3.10 KCAL/MOL
REMARK 924 INTRA-LIGAND FREE ENERGY PREDICTED BY IDOCK:    9.25 KCAL/MOL
REMARK 927      BINDING AFFINITY PREDICTED BY RF-SCORE:    0.00 PKD
ROOT
HETATM    1  C   UNL     1     -12.572  15.438  63.849  1.00  0.00     0.569 C  
HETATM    2  O   UNL     1     -11.503  16.017  64.605  1.00  0.00    -0.379 OA 
ENDROOT
BRANCH   2   3
HETATM    3  C   UNL     1     -11.165  15.331  65.741  1.00  0.00    -0.247 A  
HETATM    4  C   UNL     1     -10.597  14.060  65.575  1.00  0.00    -0.318 A  
HETATM    5  F   UNL     1     -10.418  13.575  64.334  1.00  0.00    -0.395 F  
HETATM    6  C   UNL     1     -10.201  13.295  66.680  1.00  0.00    -0.265 A  
HETATM    7  C   UNL     1     -10.410  13.805  67.970  1.00  0.00    -0.246 A  
HETATM    8  C   UNL     1     -11.385  15.819  67.035  1.00  0.00     0.016 A  
HETATM    9  C   UNL     1     -11.003  15.059  68.141  1.00  0.00    -0.281 A  
BRANCH   6  10
HETATM   10  C   UNL     1      -9.519  11.996  66.500  1.00  0.00    -0.234 C  
HETATM   11  C   UNL     1     -11.627  10.822  65.799  1.00  0.00     1.056 C  
HETATM   12  C   UNL     1     -10.144  10.863  66.109  1.00  0.00    -0.239 C  
HETATM   13  N   UNL     1      -9.406   9.687  65.932  1.00  0.00    -0.199 N  
HETATM   14  C   UNL     1      -8.010   9.698  65.863  1.00  0.00    -0.112 C  
HETATM   15  C   UNL     1      -8.065  11.920  66.837  1.00  0.00    -0.146 C  
HETATM   16  O   UNL     1      -7.372   8.779  65.343  1.00  0.00    -0.083 OA 
HETATM   17  O   UNL     1      -7.525  12.833  67.463  1.00  0.00    -0.133 OA 
HETATM   18  N   UNL     1      -7.386  10.801  66.407  1.00  0.00    -0.137 N  
BRANCH  13  19
HETATM   19  C   UNL     1     -10.039   8.391  65.659  1.00  0.00     0.938 C  
BRANCH  19  20
HETATM   20  C   UNL     1     -10.197   7.429  66.831  1.00  0.00    -0.346 A  
HETATM   21  F   UNL     1     -11.842   9.738  68.904  1.00  0.00     0.013 F  
HETATM   22  C   UNL     1     -10.589   9.289  68.619  1.00  0.00    -0.187 C  
HETATM   23  C   UNL     1     -10.588   7.855  68.124  1.00  0.00    -0.179 A  
HETATM   24  F   UNL     1      -9.703   5.572  65.421  1.00  0.00    -0.086 F  
HETATM   25  C   UNL     1     -11.007   6.887  69.071  1.00  0.00    -0.225 A  
HETATM   26  C   UNL     1     -10.140   6.041  66.596  1.00  0.00    -0.174 A  
HETATM   27  F   UNL     1      -9.880   9.413  69.778  1.00  0.00    -0.166 F  
HETATM   28  F   UNL     1     -10.047  10.206  67.779  1.00  0.00    -0.177 F  
HETATM   29  C   UNL     1     -10.520   5.101  67.553  1.00  0.00    -0.148 A  
HETATM   30  C   UNL     1     -10.988   5.525  68.785  1.00  0.00     0.028 A  
ENDBRANCH  19  20
ENDBRANCH  13  19
BRANCH  18  31
HETATM   31  C   UNL     1      -5.926  10.769  66.554  1.00  0.00    -0.098 C  
BRANCH  31  32
HETATM   32  C   UNL     1      -5.360   9.524  67.312  1.00  0.00    -0.036 C  
BRANCH  32  33
HETATM   33  N   UNL     1      -5.657   8.222  66.654  1.00  0.00    -0.032 NA 
HETATM   34  H   UNL     1      -5.087   8.113  65.816  1.00  0.00     0.000 HD 
BRANCH  33  35
HETATM   35  C   UNL     1      -5.519   7.051  67.514  1.00  0.00    -0.019 C  
BRANCH  35  36
HETATM   36  C   UNL     1      -6.866   6.329  67.670  1.00  0.00    -0.069 C  
BRANCH  36  37
HETATM   37  C   UNL     1      -6.979   5.070  66.809  1.00  0.00    -0.064 C  
HETATM   38  O   UNL     1      -7.807   5.132  64.547  1.00  0.00    -0.086 OA 
HETATM   39  C   UNL     1      -6.903   5.367  65.335  1.00  0.00    -0.060 C  
HETATM   40  O   UNL     1      -5.714   5.872  64.942  1.00  0.00    -0.023 OA 
ENDBRANCH  36  37
ENDBRANCH  35  36
ENDBRANCH  33  35
ENDBRANCH  32  33
BRANCH  32  41
HETATM   41  C   UNL     1      -5.871   9.435  68.753  1.00  0.00    -0.040 A  
HETATM   42  C   UNL     1      -7.247   8.323  70.427  1.00  0.00    -0.044 A  
HETATM   43  C   UNL     1      -6.056  10.331  71.017  1.00  0.00     0.020 A  
HETATM   44  C   UNL     1      -6.732   8.393  69.130  1.00  0.00    -0.047 A  
HETATM   45  C   UNL     1      -5.531  10.397  69.723  1.00  0.00    -0.039 A  
HETATM   46  C   UNL     1      -6.913   9.293  71.369  1.00  0.00     0.022 A  
ENDBRANCH  32  41
ENDBRANCH  31  32
ENDBRANCH  18  31
ENDBRANCH   6  10
ENDBRANCH   2   3
TORSDOF 11
ENDMDL
MODEL      284
REMARK 921   NORMALIZED FREE ENERGY PREDICTED BY IDOCK:    5.79 KCAL/MOL
REMARK 922        TOTAL FREE ENERGY PREDICTED BY IDOCK:    6.45 KCAL/MOL
REMARK 923 INTER-LIGAND FREE ENERGY PREDICTED BY IDOCK:    2.27 KCAL/MOL
REMARK 924 INTRA-LIGAND FREE ENERGY PREDICTED BY IDOCK:    4.19 KCAL/MOL
REMARK 927      BINDING AFFINITY PREDICTED BY RF-SCORE:    0.00 PKD
ROOT
HETATM    1  C   UNL     1      -7.024   8.291  68.195  1.00  0.00    -0.077 C  
HETATM    2  O   UNL     1      -7.761   9.442  68.620  1.00  0.00    -0.083 OA 
ENDROOT
BRANCH   2   3
HETATM    3  C   UNL     1      -8.121  10.299  67.615  1.00  0.00    -0.106 A  
HETATM    4  C   UNL     1      -8.176  11.664  67.929  1.00  0.00    -0.141 A  
HETATM    5  F   UNL     1      -7.886  12.066  69.179  1.00  0.00    -0.056 F  
HETATM    6  C   UNL     1      -8.515  12.616  66.958  1.00  0.00    -0.150 A  
HETATM    7  C   UNL     1      -8.832  12.183  65.663  1.00  0.00     0.348 A  
HETATM    8  C   UNL     1      -8.459   9.879  66.323  1.00  0.00    -0.133 A  
HETATM    9  C   UNL     1      -8.807  10.820  65.353  1.00  0.00    -0.202 A  
BRANCH   6  10
HETATM   10  C   UNL     1      -8.483  14.061  67.268  1.00  0.00    -0.220 C  
HETATM   11  C   UNL     1      -6.061  14.290  66.638  1.00  0.00     2.723 C  
HETATM   12  C   UNL     1      -7.383  14.837  67.137  1.00  0.00     0.015 C  
HETATM   13  N   UNL     1      -7.459  16.206  67.422  1.00  0.00    -0.152 N  
HETATM   14  C   UNL     1      -8.686  16.861  67.560  1.00  0.00    -0.208 C  
HETATM   15  C   UNL     1      -9.723  14.683  67.823  1.00  0.00    -0.215 C  
HETATM   16  O   UNL     1      -8.794  18.083  67.431  1.00  0.00    -0.242 OA 
HETATM   17  O   UNL     1     -10.645  13.973  68.228  1.00  0.00    -0.236 OA 
HETATM   18  N   UNL     1      -9.772  16.060  67.843  1.00  0.00    -0.220 N  
BRANCH  13  19
HETATM   19  C   UNL     1      -6.276  17.074  67.450  1.00  0.00    -0.149 C  
BRANCH  19  20
HETATM   20  C   UNL     1      -6.265  18.210  68.465  1.00  0.00    -0.199 A  
HETATM   21  F   UNL     1      -5.518  16.159  71.216  1.00  0.00    -0.108 F  
HETATM   22  C   UNL     1      -6.588  16.674  70.551  1.00  0.00     1.076 C  
HETATM   23  C   UNL     1      -6.262  17.987  69.865  1.00  0.00    -0.105 A  
HETATM   24  F   UNL     1      -6.132  19.822  66.715  1.00  0.00    -0.176 F  
HETATM   25  C   UNL     1      -5.947  19.063  70.732  1.00  0.00     0.027 A  
HETATM   26  C   UNL     1      -6.063  19.531  68.019  1.00  0.00    -0.212 A  
HETATM   27  F   UNL     1      -7.564  16.835  71.490  1.00  0.00     4.780 F  
HETATM   28  F   UNL     1      -7.040  15.681  69.744  1.00  0.00    -0.187 F  
HETATM   29  C   UNL     1      -5.791  20.585  68.891  1.00  0.00    -0.376 A  
HETATM   30  C   UNL     1      -5.699  20.346  70.251  1.00  0.00    -0.364 A  
ENDBRANCH  19  20
ENDBRANCH  13  19
BRANCH  18  31
HETATM   31  C   UNL     1     -11.037  16.710  68.208  1.00  0.00    -0.295 C  
BRANCH  31  32
HETATM   32  C   UNL     1     -12.329  15.958  67.752  1.00  0.00     1.190 C  
BRANCH  32  33
HETATM   33  N   UNL     1     -12.840  14.969  68.739  1.00  0.00     0.060 NA 
HETATM   34  H   UNL     1     -12.935  14.052  68.303  1.00  0.00     0.000 HD 
BRANCH  33  35
HETATM   35  C   UNL     1     -12.058  14.863  69.968  1.00  0.00    -0.338 C  
BRANCH  35  36
HETATM   36  C   UNL     1     -12.629  15.786  71.056  1.00  0.00    -0.470 C  
BRANCH  36  37
HETATM   37  C   UNL     1     -13.308  15.025  72.196  1.00  0.00    -0.485 C  
HETATM   38  O   UNL     1     -12.261  14.730  74.346  1.00  0.00    -0.528 OA 
HETATM   39  C   UNL     1     -12.830  15.466  73.554  1.00  0.00    -0.552 C  
HETATM   40  O   UNL     1     -13.136  16.748  73.848  1.00  0.00    -0.414 OA 
ENDBRANCH  36  37
ENDBRANCH  35  36
ENDBRANCH  33  35
ENDBRANCH  32  33
BRANCH  32  41
HETATM   41  C   UNL     1     -12.138  15.220  66.423  1.00  0.00     0.439 A  
HETATM   42  C   UNL     1     -12.667  13.336  64.973  1.00  0.00    -0.438 A  
HETATM   43  C   UNL     1     -11.011  14.938  64.275  1.00  0.00     0.155 A  
HETATM   44  C   UNL     1     -12.865  14.049  66.159  1.00  0.00    -0.162 A  
HETATM   45  C   UNL     1     -11.215  15.660  65.455  1.00  0.00    -0.185 A  
HETATM   46  C   UNL     1     -11.738  13.777  64.033  1.00  0.00    -0.364 A  
ENDBRANCH  32  41
ENDBRANCH  31  32
ENDBRANCH  18  31
ENDBRANCH   6  10
ENDBRANCH   2   3
TORSDOF 11
ENDMDL
MODEL      285
REMARK 921   NORMALIZED FREE ENERGY PREDICTED BY IDOCK:    6.55 KCAL/MOL
REMARK 922        TOTAL FREE ENERGY PREDICTED BY IDOCK:    7.70 KCAL/MOL
REMARK 923 INTER-LIGAND FREE ENERGY PREDICTED BY IDOCK:   -4.12 KCAL/MOL
REMARK 924 INTRA-LIGAND FREE ENERGY PREDICTED BY IDOCK:   11.82 KCAL/MOL
REMARK 927      BINDING AFFINITY PREDICTED BY RF-SCORE:    0.00 PKD
ROOT
HETATM    1  C   UNL     1     -13.262   9.942  72.191  1.00  0.00    -0.415 C  
HETATM    2  O   UNL     1     -12.238   8.944  72.136  1.00  0.00    -0.356 OA 
ENDROOT
BRANCH   2   3
HETATM    3  C   UNL     1     -11.909   8.527  70.873  1.00  0.00    -0.217 A  
HETATM    4  C   UNL     1     -11.083   9.371  70.117  1.00  0.00    -0.242 A  
HETATM    5  F   UNL     1     -10.663  10.533  70.649  1.00  0.00    -0.324 F  
HETATM    6  C   UNL     1     -10.678   9.017  68.823  1.00  0.00    -0.140 A  
HETATM    7  C   UNL     1     -11.137   7.812  68.273  1.00  0.00     0.272 A  
HETATM    8  C   UNL     1     -12.375   7.337  70.305  1.00  0.00     0.178 A  
HETATM    9  C   UNL     1     -11.984   6.981  69.013  1.00  0.00     0.980 A  
BRANCH   6  10
HETATM   10  C   UNL     1      -9.734   9.864  68.064  1.00  0.00    -0.160 C  
HETATM   11  C   UNL     1      -7.863   8.198  68.252  1.00  0.00    -0.122 C  
HETATM   12  C   UNL     1      -8.455   9.518  67.800  1.00  0.00    -0.119 C  
HETATM   13  N   UNL     1      -7.645  10.373  67.042  1.00  0.00    -0.099 N  
HETATM   14  C   UNL     1      -8.182  11.433  66.305  1.00  0.00    -0.088 C  
HETATM   15  C   UNL     1     -10.206  11.213  67.625  1.00  0.00    -0.181 C  
HETATM   16  O   UNL     1      -7.577  11.946  65.360  1.00  0.00     1.180 OA 
HETATM   17  O   UNL     1     -11.246  11.686  68.084  1.00  0.00    -0.223 OA 
HETATM   18  N   UNL     1      -9.431  11.869  66.693  1.00  0.00    -0.204 N  
BRANCH  13  19
HETATM   19  C   UNL     1      -6.210  10.134  66.846  1.00  0.00    -0.064 C  
BRANCH  19  20
HETATM   20  C   UNL     1      -5.803   8.823  66.184  1.00  0.00    -0.047 A  
HETATM   21  F   UNL     1      -7.325   6.774  68.595  1.00  0.00    -0.079 F  
HETATM   22  C   UNL     1      -6.129   7.360  68.321  1.00  0.00    -0.032 C  
HETATM   23  C   UNL     1      -5.916   7.569  66.834  1.00  0.00    -0.046 A  
HETATM   24  F   UNL     1      -5.279   9.966  64.159  1.00  0.00    -0.058 F  
HETATM   25  C   UNL     1      -5.811   6.383  66.064  1.00  0.00    -0.025 A  
HETATM   26  C   UNL     1      -5.477   8.816  64.813  1.00  0.00    -0.043 A  
HETATM   27  F   UNL     1      -5.181   6.530  68.845  1.00  0.00    -0.009 F  
HETATM   28  F   UNL     1      -6.076   8.478  69.088  1.00  0.00    -0.039 F  
HETATM   29  C   UNL     1      -5.341   7.637  64.079  1.00  0.00    -0.033 A  
HETATM   30  C   UNL     1      -5.542   6.416  64.698  1.00  0.00    -0.025 A  
ENDBRANCH  19  20
ENDBRANCH  13  19
BRANCH  18  31
HETATM   31  C   UNL     1      -9.948  13.107  66.099  1.00  0.00    -0.291 C  
BRANCH  31  32
HETATM   32  C   UNL     1      -9.350  14.428  66.685  1.00  0.00    -0.278 C  
BRANCH  32  33
HETATM   33  N   UNL     1      -7.902  14.346  67.018  1.00  0.00    -0.351 NA 
HETATM   34  H   UNL     1      -7.369  14.051  66.201  1.00  0.00     0.000 HD 
BRANCH  33  35
HETATM   35  C   UNL     1      -7.328  15.566  67.580  1.00  0.00    -0.189 C  
BRANCH  35  36
HETATM   36  C   UNL     1      -8.430  16.473  68.148  1.00  0.00    -0.191 C  
BRANCH  36  37
HETATM   37  C   UNL     1      -8.098  17.962  68.042  1.00  0.00    -0.252 C  
HETATM   38  O   UNL     1      -8.043  19.118  65.928  1.00  0.00    -0.449 OA 
HETATM   39  C   UNL     1      -8.701  18.606  66.821  1.00  0.00    -0.292 C  
HETATM   40  O   UNL     1     -10.051  18.617  66.822  1.00  0.00    -0.335 OA 
ENDBRANCH  36  37
ENDBRANCH  35  36
ENDBRANCH  33  35
ENDBRANCH  32  33
BRANCH  32  41
HETATM   41  C   UNL     1     -10.084  14.893  67.947  1.00  0.00    -0.227 A  
HETATM   42  C   UNL     1     -10.508  14.660  70.334  1.00  0.00     0.352 A  
HETATM   43  C   UNL     1     -11.764  16.271  69.060  1.00  0.00    -0.165 A  
HETATM   44  C   UNL     1      -9.813  14.282  69.181  1.00  0.00     0.006 A  
HETATM   45  C   UNL     1     -11.063  15.903  67.908  1.00  0.00    -0.317 A  
HETATM   46  C   UNL     1     -11.485  15.650  70.273  1.00  0.00    -0.361 A  
ENDBRANCH  32  41
ENDBRANCH  31  32
ENDBRANCH  18  31
ENDBRANCH   6  10
ENDBRANCH   2   3
TORSDOF 11
ENDMDL
MODEL      286
REMARK 921   NORMALIZED FREE ENERGY PREDICTED BY IDOCK:    8.57 KCAL/MOL
REMARK 922        TOTAL FREE ENERGY PREDICTED BY IDOCK:   11.03 KCAL/MOL
REMARK 923 INTER-LIGAND FREE ENERGY PREDICTED BY IDOCK:    1.53 KCAL/MOL
REMARK 924 INTRA-LIGAND FREE ENERGY PREDICTED BY IDOCK:    9.50 KCAL/MOL
REMARK 927      BINDING AFFINITY PREDICTED BY RF-SCORE:    0.00 PKD
ROOT
HETATM    1  C   UNL     1      -7.287  20.725  63.827  1.00  0.00     1.114 C  
HETATM    2  O   UNL     1      -6.148  20.415  64.638  1.00  0.00    -0.239 OA 
ENDROOT
BRANCH   2   3
HETATM    3  C   UNL     1      -6.442  20.000  65.909  1.00  0.00    -0.217 A  
HETATM    4  C   UNL     1      -7.157  18.801  66.040  1.00  0.00    -0.268 A  
HETATM    5  F   UNL     1      -7.522  18.126  64.935  1.00  0.00     0.551 F  
HETATM    6  C   UNL     1      -7.485  18.289  67.302  1.00  0.00    -0.222 A  
HETATM    7  C   UNL     1      -7.116  19.011  68.446  1.00  0.00    -0.304 A  
HETATM    8  C   UNL     1      -6.097  20.720  67.059  1.00  0.00    -0.295 A  
HETATM    9  C   UNL     1      -6.428  20.221  68.319  1.00  0.00    -0.340 A  
BRANCH   6  10
HETATM   10  C   UNL     1      -8.157  16.979  67.439  1.00  0.00    -0.193 C  
HETATM   11  C   UNL     1     -10.382  18.015  67.976  1.00  0.00    -0.397 C  
HETATM   12  C   UNL     1      -9.464  16.831  67.750  1.00  0.00    -0.228 C  
HETATM   13  N   UNL     1     -10.021  15.548  67.824  1.00  0.00    -0.222 N  
HETATM   14  C   UNL     1      -9.358  14.429  67.312  1.00  0.00    -0.208 C  
HETATM   15  C   UNL     1      -7.322  15.749  67.293  1.00  0.00    -0.222 C  
HETATM   16  O   UNL     1      -9.957  13.389  67.021  1.00  0.00    -0.238 OA 
HETATM   17  O   UNL     1      -6.093  15.829  67.298  1.00  0.00    -0.288 OA 
HETATM   18  N   UNL     1      -7.995  14.556  67.144  1.00  0.00    -0.184 N  
BRANCH  13  19
HETATM   19  C   UNL     1     -11.387  15.306  68.303  1.00  0.00    -0.336 C  
BRANCH  19  20
HETATM   20  C   UNL     1     -11.560  14.327  69.459  1.00  0.00    -0.353 A  
HETATM   21  F   UNL     1     -11.077  16.731  71.973  1.00  0.00    -0.022 F  
HETATM   22  C   UNL     1     -10.374  15.833  71.231  1.00  0.00     1.020 C  
HETATM   23  C   UNL     1     -11.223  14.654  70.796  1.00  0.00    -0.082 A  
HETATM   24  F   UNL     1     -12.529  12.714  67.996  1.00  0.00    -0.203 F  
HETATM   25  C   UNL     1     -11.688  13.822  71.845  1.00  0.00     1.169 A  
HETATM   26  C   UNL     1     -12.250  13.119  69.241  1.00  0.00    -0.116 A  
HETATM   27  F   UNL     1      -9.337  15.432  72.021  1.00  0.00     2.245 F  
HETATM   28  F   UNL     1      -9.796  16.546  70.231  1.00  0.00     0.152 F  
HETATM   29  C   UNL     1     -12.668  12.293  70.285  1.00  0.00     0.108 A  
HETATM   30  C   UNL     1     -12.416  12.662  71.595  1.00  0.00    -0.036 A  
ENDBRANCH  19  20
ENDBRANCH  13  19
BRANCH  18  31
HETATM   31  C   UNL     1      -7.222  13.352  66.815  1.00  0.00     0.994 C  
BRANCH  31  32
HETATM   32  C   UNL     1      -7.720  12.034  67.492  1.00  0.00    -0.155 C  
BRANCH  32  33
HETATM   33  N   UNL     1      -9.194  11.971  67.694  1.00  0.00    -0.176 NA 
HETATM   34  H   UNL     1      -9.498  12.726  68.307  1.00  0.00     0.000 HD 
BRANCH  33  35
HETATM   35  C   UNL     1      -9.985  11.968  66.467  1.00  0.00    -0.204 C  
BRANCH  35  36
HETATM   36  C   UNL     1     -10.899  10.735  66.412  1.00  0.00    -0.172 C  
BRANCH  36  37
HETATM   37  C   UNL     1     -10.985   9.988  67.744  1.00  0.00    -0.310 C  
HETATM   38  O   UNL     1     -10.184   7.731  68.005  1.00  0.00    -0.186 OA 
HETATM   39  C   UNL     1      -9.933   8.919  67.880  1.00  0.00    -0.179 C  
HETATM   40  O   UNL     1      -8.671   9.400  67.905  1.00  0.00    -0.120 OA 
ENDBRANCH  36  37
ENDBRANCH  35  36
ENDBRANCH  33  35
ENDBRANCH  32  33
BRANCH  32  41
HETATM   41  C   UNL     1      -7.062  11.792  68.854  1.00  0.00    -0.114 A  
HETATM   42  C   UNL     1      -6.199  12.672  70.954  1.00  0.00     0.694 A  
HETATM   43  C   UNL     1      -5.975  10.323  70.474  1.00  0.00    -0.106 A  
HETATM   44  C   UNL     1      -6.842  12.866  69.728  1.00  0.00     0.265 A  
HETATM   45  C   UNL     1      -6.628  10.513  69.253  1.00  0.00    -0.060 A  
HETATM   46  C   UNL     1      -5.762  11.403  71.326  1.00  0.00     0.218 A  
ENDBRANCH  32  41
ENDBRANCH  31  32
ENDBRANCH  18  31
ENDBRANCH   6  10
ENDBRANCH   2   3
TORSDOF 11
ENDMDL
MODEL      287
REMARK 921   NORMALIZED FREE ENERGY PREDICTED BY IDOCK:    8.79 KCAL/MOL
REMARK 922        TOTAL FREE ENERGY PREDICTED BY IDOCK:   11.39 KCAL/MOL
REMARK 923 INTER-LIGAND FREE ENERGY PREDICTED BY IDOCK:    3.27 KCAL/MOL
REMARK 924 INTRA-LIGAND FREE ENERGY PREDICTED BY IDOCK:    8.13 KCAL/MOL
REMARK 927      BINDING AFFINITY PREDICTED BY RF-SCORE:    0.00 PKD
ROOT
HETATM    1  C   UNL     1      -5.536  18.856  63.312  1.00  0.00    -0.053 C  
HETATM    2  O   UNL     1      -6.550  19.626  63.967  1.00  0.00    -0.207 OA 
ENDROOT
BRANCH   2   3
HETATM    3  C   UNL     1      -6.779  19.282  65.272  1.00  0.00    -0.218 A  
HETATM    4  C   UNL     1      -7.595  18.165  65.504  1.00  0.00     0.348 A  
HETATM    5  F   UNL     1      -8.112  17.497  64.458  1.00  0.00     3.429 F  
HETATM    6  C   UNL     1      -7.868  17.727  66.807  1.00  0.00    -0.262 A  
HETATM    7  C   UNL     1      -7.338  18.443  67.890  1.00  0.00    -0.242 A  
HETATM    8  C   UNL     1      -6.273  19.998  66.363  1.00  0.00    -0.191 A  
HETATM    9  C   UNL     1      -6.548  19.574  67.664  1.00  0.00    -0.243 A  
BRANCH   6  10
HETATM   10  C   UNL     1      -8.651  16.497  67.046  1.00  0.00    -0.219 C  
HETATM   11  C   UNL     1     -10.538  17.738  68.146  1.00  0.00    -0.350 C  
HETATM   12  C   UNL     1      -9.857  16.476  67.656  1.00  0.00    -0.247 C  
HETATM   13  N   UNL     1     -10.541  15.263  67.807  1.00  0.00    -0.260 N  
HETATM   14  C   UNL     1     -10.165  14.116  67.103  1.00  0.00    -0.258 C  
HETATM   15  C   UNL     1      -8.038  15.192  66.651  1.00  0.00     0.037 C  
HETATM   16  O   UNL     1     -10.943  13.175  66.921  1.00  0.00    -0.269 OA 
HETATM   17  O   UNL     1      -6.842  15.131  66.364  1.00  0.00     0.823 OA 
HETATM   18  N   UNL     1      -8.874  14.097  66.618  1.00  0.00    -0.170 N  
BRANCH  13  19
HETATM   19  C   UNL     1     -11.777  15.145  68.590  1.00  0.00    -0.341 C  
BRANCH  19  20
HETATM   20  C   UNL     1     -11.741  15.640  70.031  1.00  0.00    -0.369 A  
HETATM   21  F   UNL     1     -12.173  12.460  71.459  1.00  0.00    -0.268 F  
HETATM   22  C   UNL     1     -12.902  13.530  71.040  1.00  0.00    -0.267 C  
HETATM   23  C   UNL     1     -12.123  14.829  71.129  1.00  0.00    -0.391 A  
HETATM   24  F   UNL     1     -10.820  17.724  69.332  1.00  0.00    -0.116 F  
HETATM   25  C   UNL     1     -11.780  15.241  72.441  1.00  0.00    -0.538 A  
HETATM   26  C   UNL     1     -11.134  16.878  70.320  1.00  0.00     0.324 A  
HETATM   27  F   UNL     1     -14.008  13.560  71.838  1.00  0.00    -0.453 F  
HETATM   28  F   UNL     1     -13.369  13.204  69.808  1.00  0.00     0.618 F  
HETATM   29  C   UNL     1     -10.837  17.283  71.621  1.00  0.00     1.994 A  
HETATM   30  C   UNL     1     -11.130  16.448  72.685  1.00  0.00     1.241 A  
ENDBRANCH  19  20
ENDBRANCH  13  19
BRANCH  18  31
HETATM   31  C   UNL     1      -8.360  12.840  66.062  1.00  0.00     0.996 C  
BRANCH  31  32
HETATM   32  C   UNL     1      -8.003  11.742  67.115  1.00  0.00    -0.166 C  
BRANCH  32  33
HETATM   33  N   UNL     1      -7.369  10.526  66.537  1.00  0.00    -0.118 NA 
HETATM   34  H   UNL     1      -7.871   9.690  66.837  1.00  0.00     0.000 HD 
BRANCH  33  35
HETATM   35  C   UNL     1      -7.228  10.535  65.084  1.00  0.00    -0.021 C  
BRANCH  35  36
HETATM   36  C   UNL     1      -5.750  10.655  64.682  1.00  0.00    -0.053 C  
BRANCH  36  37
HETATM   37  C   UNL     1      -5.131   9.324  64.255  1.00  0.00    -0.053 C  
HETATM   38  O   UNL     1      -5.954   7.208  65.063  1.00  0.00    -0.036 OA 
HETATM   39  C   UNL     1      -6.105   8.178  64.336  1.00  0.00    -0.057 C  
HETATM   40  O   UNL     1      -7.149   8.290  63.486  1.00  0.00    -0.083 OA 
ENDBRANCH  36  37
ENDBRANCH  35  36
ENDBRANCH  33  35
ENDBRANCH  32  33
BRANCH  32  41
HETATM   41  C   UNL     1      -9.224  11.283  67.919  1.00  0.00    -0.157 A  
HETATM   42  C   UNL     1     -11.362  10.121  68.007  1.00  0.00    -0.152 A  
HETATM   43  C   UNL     1     -10.556  11.269  69.964  1.00  0.00     0.419 A  
HETATM   44  C   UNL     1     -10.218  10.508  67.303  1.00  0.00    -0.260 A  
HETATM   45  C   UNL     1      -9.406  11.647  69.266  1.00  0.00     0.454 A  
HETATM   46  C   UNL     1     -11.534  10.504  69.335  1.00  0.00    -0.329 A  
ENDBRANCH  32  41
ENDBRANCH  31  32
ENDBRANCH  18  31
ENDBRANCH   6  10
ENDBRANCH   2   3
TORSDOF 11
ENDMDL
MODEL      288
REMARK 921   NORMALIZED FREE ENERGY PREDICTED BY IDOCK:   11.09 KCAL/MOL
REMARK 922        TOTAL FREE ENERGY PREDICTED BY IDOCK:   15.16 KCAL/MOL
REMARK 923 INTER-LIGAND FREE ENERGY PREDICTED BY IDOCK:   10.21 KCAL/MOL
REMARK 924 INTRA-LIGAND FREE ENERGY PREDICTED BY IDOCK:    4.95 KCAL/MOL
REMARK 927      BINDING AFFINITY PREDICTED BY RF-SCORE:    0.00 PKD
ROOT
HETATM    1  C   UNL     1     -12.631   8.920  72.627  1.00  0.00    -0.197 C  
HETATM    2  O   UNL     1     -11.756   7.890  72.157  1.00  0.00    -0.296 OA 
ENDROOT
BRANCH   2   3
HETATM    3  C   UNL     1     -11.931   7.542  70.844  1.00  0.00    -0.251 A  
HETATM    4  C   UNL     1     -11.539   8.480  69.877  1.00  0.00     0.287 A  
HETATM    5  F   UNL     1     -11.024   9.658  70.272  1.00  0.00    -0.241 F  
HETATM    6  C   UNL     1     -11.661   8.202  68.509  1.00  0.00     1.780 A  
HETATM    7  C   UNL     1     -12.216   6.977  68.111  1.00  0.00     3.277 A  
HETATM    8  C   UNL     1     -12.500   6.332  70.432  1.00  0.00     0.829 A  
HETATM    9  C   UNL     1     -12.635   6.052  69.072  1.00  0.00     5.496 A  
BRANCH   6  10
HETATM   10  C   UNL     1     -11.162   9.153  67.494  1.00  0.00     0.463 C  
HETATM   11  C   UNL     1      -9.214   7.693  66.874  1.00  0.00    -0.179 C  
HETATM   12  C   UNL     1     -10.054   8.947  66.748  1.00  0.00    -0.280 C  
HETATM   13  N   UNL     1      -9.679   9.892  65.784  1.00  0.00    -0.247 N  
HETATM   14  C   UNL     1     -10.553  10.897  65.360  1.00  0.00    -0.173 C  
HETATM   15  C   UNL     1     -11.890  10.448  67.335  1.00  0.00     1.384 C  
HETATM   16  O   UNL     1     -10.406  11.482  64.284  1.00  0.00    -0.272 OA 
HETATM   17  O   UNL     1     -12.716  10.803  68.177  1.00  0.00     0.985 OA 
HETATM   18  N   UNL     1     -11.595  11.193  66.214  1.00  0.00     0.276 N  
BRANCH  13  19
HETATM   19  C   UNL     1      -8.412   9.809  65.048  1.00  0.00    -0.153 C  
BRANCH  19  20
HETATM   20  C   UNL     1      -7.153   9.510  65.854  1.00  0.00    -0.096 A  
HETATM   21  F   UNL     1      -7.955  11.684  68.493  1.00  0.00    -0.121 F  
HETATM   22  C   UNL     1      -7.281  11.672  67.311  1.00  0.00    -0.137 C  
HETATM   23  C   UNL     1      -6.750  10.294  66.964  1.00  0.00    -0.079 A  
HETATM   24  F   UNL     1      -6.733   7.562  64.547  1.00  0.00    -0.045 F  
HETATM   25  C   UNL     1      -5.757   9.788  67.840  1.00  0.00    -0.040 A  
HETATM   26  C   UNL     1      -6.454   8.309  65.621  1.00  0.00    -0.052 A  
HETATM   27  F   UNL     1      -6.265  12.571  67.456  1.00  0.00    -0.093 F  
HETATM   28  F   UNL     1      -8.115  12.232  66.400  1.00  0.00    -0.070 F  
HETATM   29  C   UNL     1      -5.453   7.845  66.475  1.00  0.00    -0.028 A  
HETATM   30  C   UNL     1      -5.125   8.570  67.607  1.00  0.00    -0.034 A  
ENDBRANCH  19  20
ENDBRANCH  13  19
BRANCH  18  31
HETATM   31  C   UNL     1     -12.413  12.377  65.924  1.00  0.00     0.300 C  
BRANCH  31  32
HETATM   32  C   UNL     1     -11.705  13.751  66.160  1.00  0.00    -0.370 C  
BRANCH  32  33
HETATM   33  N   UNL     1     -10.277  13.781  65.743  1.00  0.00    -0.303 NA 
HETATM   34  H   UNL     1     -10.198  13.589  64.744  1.00  0.00     0.000 HD 
BRANCH  33  35
HETATM   35  C   UNL     1      -9.562  15.009  66.077  1.00  0.00    -0.325 C  
BRANCH  35  36
HETATM   36  C   UNL     1     -10.251  15.739  67.241  1.00  0.00    -0.268 C  
BRANCH  36  37
HETATM   37  C   UNL     1     -10.172  17.262  67.128  1.00  0.00    -0.319 C  
HETATM   38  O   UNL     1      -8.085  18.456  67.290  1.00  0.00    -0.235 OA 
HETATM   39  C   UNL     1      -8.830  17.740  66.639  1.00  0.00    -0.264 C  
HETATM   40  O   UNL     1      -8.540  17.347  65.379  1.00  0.00     0.078 OA 
ENDBRANCH  36  37
ENDBRANCH  35  36
ENDBRANCH  33  35
ENDBRANCH  32  33
BRANCH  32  41
HETATM   41  C   UNL     1     -11.762  14.194  67.626  1.00  0.00    -0.421 A  
HETATM   42  C   UNL     1     -11.053  13.898  69.936  1.00  0.00     0.006 A  
HETATM   43  C   UNL     1     -12.698  15.575  69.408  1.00  0.00     0.263 A  
HETATM   44  C   UNL     1     -10.977  13.540  68.587  1.00  0.00    -0.289 A  
HETATM   45  C   UNL     1     -12.616  15.227  68.057  1.00  0.00     1.030 A  
HETATM   46  C   UNL     1     -11.915  14.912  70.348  1.00  0.00    -0.368 A  
ENDBRANCH  32  41
ENDBRANCH  31  32
ENDBRANCH  18  31
ENDBRANCH   6  10
ENDBRANCH   2   3
TORSDOF 11
ENDMDL
MODEL      289
REMARK 921   NORMALIZED FREE ENERGY PREDICTED BY IDOCK:   11.63 KCAL/MOL
REMARK 922        TOTAL FREE ENERGY PREDICTED BY IDOCK:   16.05 KCAL/MOL
REMARK 923 INTER-LIGAND FREE ENERGY PREDICTED BY IDOCK:   12.36 KCAL/MOL
REMARK 924 INTRA-LIGAND FREE ENERGY PREDICTED BY IDOCK:    3.69 KCAL/MOL
REMARK 927      BINDING AFFINITY PREDICTED BY RF-SCORE:    0.00 PKD
ROOT
HETATM    1  C   UNL     1      -7.731  10.706  73.301  1.00  0.00     9.454 C  
HETATM    2  O   UNL     1      -8.357  10.385  72.054  1.00  0.00     4.013 OA 
ENDROOT
BRANCH   2   3
HETATM    3  C   UNL     1      -7.516  10.376  70.974  1.00  0.00     1.611 A  
HETATM    4  C   UNL     1      -8.109  10.383  69.703  1.00  0.00    -0.103 A  
HETATM    5  F   UNL     1      -9.450  10.392  69.601  1.00  0.00    -0.219 F  
HETATM    6  C   UNL     1      -7.327  10.395  68.540  1.00  0.00    -0.086 A  
HETATM    7  C   UNL     1      -5.930  10.367  68.660  1.00  0.00    -0.040 A  
HETATM    8  C   UNL     1      -6.121  10.329  71.078  1.00  0.00     0.020 A  
HETATM    9  C   UNL     1      -5.335  10.330  69.925  1.00  0.00    -0.038 A  
BRANCH   6  10
HETATM   10  C   UNL     1      -7.953  10.496  67.205  1.00  0.00    -0.114 C  
HETATM   11  C   UNL     1      -7.872   8.014  66.820  1.00  0.00    -0.103 C  
HETATM   12  C   UNL     1      -8.202   9.434  66.407  1.00  0.00    -0.111 C  
HETATM   13  N   UNL     1      -8.831   9.626  65.170  1.00  0.00    -0.167 N  
HETATM   14  C   UNL     1      -9.470  10.827  64.849  1.00  0.00    -0.242 C  
HETATM   15  C   UNL     1      -8.262  11.861  66.682  1.00  0.00    -0.088 C  
HETATM   16  O   UNL     1     -10.330  10.896  63.967  1.00  0.00    -0.347 OA 
HETATM   17  O   UNL     1      -7.797  12.858  67.236  1.00  0.00    -0.167 OA 
HETATM   18  N   UNL     1      -9.087  11.932  65.581  1.00  0.00    -0.059 N  
BRANCH  13  19
HETATM   19  C   UNL     1      -8.995   8.545  64.191  1.00  0.00     0.477 C  
BRANCH  19  20
HETATM   20  C   UNL     1      -8.718   7.123  64.666  1.00  0.00     0.403 A  
HETATM   21  F   UNL     1      -5.285   7.216  63.933  1.00  0.00    -0.026 F  
HETATM   22  C   UNL     1      -6.470   6.866  63.364  1.00  0.00    -0.043 C  
HETATM   23  C   UNL     1      -7.503   6.447  64.394  1.00  0.00    -0.090 A  
HETATM   24  F   UNL     1     -10.810   7.058  65.808  1.00  0.00     0.900 F  
HETATM   25  C   UNL     1      -7.196   5.265  65.114  1.00  0.00    -0.067 A  
HETATM   26  C   UNL     1      -9.612   6.512  65.567  1.00  0.00     0.620 A  
HETATM   27  F   UNL     1      -6.182   5.844  62.508  1.00  0.00    -0.023 F  
HETATM   28  F   UNL     1      -6.820   7.904  62.563  1.00  0.00    -0.080 F  
HETATM   29  C   UNL     1      -9.309   5.328  66.239  1.00  0.00    -0.159 A  
HETATM   30  C   UNL     1      -8.082   4.719  66.038  1.00  0.00    -0.107 A  
ENDBRANCH  19  20
ENDBRANCH  13  19
BRANCH  18  31
HETATM   31  C   UNL     1      -9.564  13.250  65.146  1.00  0.00     0.215 C  
BRANCH  31  32
HETATM   32  C   UNL     1     -10.107  14.172  66.286  1.00  0.00    -0.300 C  
BRANCH  32  33
HETATM   33  N   UNL     1      -9.092  15.099  66.856  1.00  0.00    -0.231 NA 
HETATM   34  H   UNL     1      -8.499  14.606  67.523  1.00  0.00     0.000 HD 
BRANCH  33  35
HETATM   35  C   UNL     1      -8.271  15.796  65.870  1.00  0.00     0.775 C  
BRANCH  35  36
HETATM   36  C   UNL     1      -7.600  17.029  66.494  1.00  0.00    -0.326 C  
BRANCH  36  37
HETATM   37  C   UNL     1      -8.583  18.159  66.801  1.00  0.00    -0.272 C  
HETATM   38  O   UNL     1     -10.739  17.750  67.798  1.00  0.00    -0.390 OA 
HETATM   39  C   UNL     1      -9.526  17.819  67.925  1.00  0.00    -0.270 C  
HETATM   40  O   UNL     1      -8.913  17.647  69.116  1.00  0.00    -0.077 OA 
ENDBRANCH  36  37
ENDBRANCH  35  36
ENDBRANCH  33  35
ENDBRANCH  32  33
BRANCH  32  41
HETATM   41  C   UNL     1     -10.700  13.373  67.451  1.00  0.00    -0.269 A  
HETATM   42  C   UNL     1     -11.878  11.400  68.258  1.00  0.00    -0.320 A  
HETATM   43  C   UNL     1     -11.311  13.156  69.805  1.00  0.00    -0.120 A  
HETATM   44  C   UNL     1     -11.288  12.121  67.216  1.00  0.00    -0.398 A  
HETATM   45  C   UNL     1     -10.710  13.874  68.767  1.00  0.00    -0.278 A  
HETATM   46  C   UNL     1     -11.893  11.918  69.551  1.00  0.00    -0.395 A  
ENDBRANCH  32  41
ENDBRANCH  31  32
ENDBRANCH  18  31
ENDBRANCH   6  10
ENDBRANCH   2   3
TORSDOF 11
ENDMDL
MODEL      290
REMARK 921   NORMALIZED FREE ENERGY PREDICTED BY IDOCK:   14.05 KCAL/MOL
REMARK 922        TOTAL FREE ENERGY PREDICTED BY IDOCK:   20.03 KCAL/MOL
REMARK 923 INTER-LIGAND FREE ENERGY PREDICTED BY IDOCK:    8.70 KCAL/MOL
REMARK 924 INTRA-LIGAND FREE ENERGY PREDICTED BY IDOCK:   11.33 KCAL/MOL
REMARK 927      BINDING AFFINITY PREDICTED BY RF-SCORE:    0.00 PKD
ROOT
HETATM    1  C   UNL     1      -7.043   8.325  68.201  1.00  0.00    -0.082 C  
HETATM    2  O   UNL     1      -7.770   9.464  68.671  1.00  0.00    -0.083 OA 
ENDROOT
BRANCH   2   3
HETATM    3  C   UNL     1      -8.148  10.348  67.695  1.00  0.00    -0.107 A  
HETATM    4  C   UNL     1      -8.203  11.704  68.048  1.00  0.00    -0.146 A  
HETATM    5  F   UNL     1      -7.895  12.072  69.305  1.00  0.00     0.004 F  
HETATM    6  C   UNL     1      -8.559  12.681  67.110  1.00  0.00    -0.199 A  
HETATM    7  C   UNL     1      -8.896  12.283  65.808  1.00  0.00     0.332 A  
HETATM    8  C   UNL     1      -8.505   9.963  66.398  1.00  0.00    -0.128 A  
HETATM    9  C   UNL     1      -8.871  10.930  65.460  1.00  0.00    -0.199 A  
BRANCH   6  10
HETATM   10  C   UNL     1      -8.527  14.117  67.459  1.00  0.00    -0.194 C  
HETATM   11  C   UNL     1      -6.113  14.369  66.808  1.00  0.00     2.113 C  
HETATM   12  C   UNL     1      -7.430  14.898  67.338  1.00  0.00    -0.199 C  
HETATM   13  N   UNL     1      -7.506  16.259  67.662  1.00  0.00    -0.132 N  
HETATM   14  C   UNL     1      -8.732  16.907  67.832  1.00  0.00    -0.213 C  
HETATM   15  C   UNL     1      -9.762  14.720  68.046  1.00  0.00    -0.213 C  
HETATM   16  O   UNL     1      -8.844  18.132  67.738  1.00  0.00    -0.250 OA 
HETATM   17  O   UNL     1     -10.677  13.997  68.441  1.00  0.00    -0.238 OA 
HETATM   18  N   UNL     1      -9.814  16.096  68.105  1.00  0.00    -0.225 N  
BRANCH  13  19
HETATM   19  C   UNL     1      -6.324  17.129  67.700  1.00  0.00    -0.143 C  
BRANCH  19  20
HETATM   20  C   UNL     1      -6.334  18.279  68.700  1.00  0.00    -0.209 A  
HETATM   21  F   UNL     1      -5.179  16.350  71.399  1.00  0.00    -0.189 F  
HETATM   22  C   UNL     1      -6.342  16.756  70.820  1.00  0.00     1.179 C  
HETATM   23  C   UNL     1      -6.195  18.081  70.097  1.00  0.00     0.065 A  
HETATM   24  F   UNL     1      -6.492  19.866  66.929  1.00  0.00    -0.193 F  
HETATM   25  C   UNL     1      -5.909  19.196  70.924  1.00  0.00    -0.060 A  
HETATM   26  C   UNL     1      -6.290  19.604  68.226  1.00  0.00    -0.242 A  
HETATM   27  F   UNL     1      -7.249  16.844  71.835  1.00  0.00     5.042 F  
HETATM   28  F   UNL     1      -6.767  15.712  70.064  1.00  0.00    -0.175 F  
HETATM   29  C   UNL     1      -6.044  20.694  69.062  1.00  0.00    -0.339 A  
HETATM   30  C   UNL     1      -5.820  20.487  70.412  1.00  0.00    -0.280 A  
ENDBRANCH  19  20
ENDBRANCH  13  19
BRANCH  18  31
HETATM   31  C   UNL     1     -11.075  16.733  68.502  1.00  0.00    -0.260 C  
BRANCH  31  32
HETATM   32  C   UNL     1     -12.367  15.912  68.180  1.00  0.00     0.886 C  
BRANCH  32  33
HETATM   33  N   UNL     1     -12.795  14.995  69.271  1.00  0.00    -0.268 NA 
HETATM   34  H   UNL     1     -13.476  15.457  69.873  1.00  0.00     0.000 HD 
BRANCH  33  35
HETATM   35  C   UNL     1     -13.310  13.704  68.826  1.00  0.00     3.606 C  
BRANCH  35  36
HETATM   36  C   UNL     1     -12.177  12.671  68.727  1.00  0.00     0.018 C  
BRANCH  36  37
HETATM   37  C   UNL     1     -12.609  11.262  69.136  1.00  0.00     0.326 C  
HETATM   38  O   UNL     1     -11.571   9.287  68.227  1.00  0.00     0.499 OA 
HETATM   39  C   UNL     1     -11.507  10.248  68.978  1.00  0.00    -0.137 C  
HETATM   40  O   UNL     1     -10.449  10.465  69.788  1.00  0.00    -0.249 OA 
ENDBRANCH  36  37
ENDBRANCH  35  36
ENDBRANCH  33  35
ENDBRANCH  32  33
BRANCH  32  41
HETATM   41  C   UNL     1     -12.223  15.072  66.907  1.00  0.00     0.278 A  
HETATM   42  C   UNL     1     -12.785  13.070  65.639  1.00  0.00    -0.198 A  
HETATM   43  C   UNL     1     -11.191  14.633  64.738  1.00  0.00    -0.395 A  
HETATM   44  C   UNL     1     -12.941  13.874  66.772  1.00  0.00     0.831 A  
HETATM   45  C   UNL     1     -11.353  15.445  65.865  1.00  0.00    -0.104 A  
HETATM   46  C   UNL     1     -11.908  13.447  64.624  1.00  0.00    -0.430 A  
ENDBRANCH  32  41
ENDBRANCH  31  32
ENDBRANCH  18  31
ENDBRANCH   6  10
ENDBRANCH   2   3
TORSDOF 11
ENDMDL
MODEL      291
REMARK 921   NORMALIZED FREE ENERGY PREDICTED BY IDOCK:   14.86 KCAL/MOL
REMARK 922        TOTAL FREE ENERGY PREDICTED BY IDOCK:   21.35 KCAL/MOL
REMARK 923 INTER-LIGAND FREE ENERGY PREDICTED BY IDOCK:    6.30 KCAL/MOL
REMARK 924 INTRA-LIGAND FREE ENERGY PREDICTED BY IDOCK:   15.05 KCAL/MOL
REMARK 927      BINDING AFFINITY PREDICTED BY RF-SCORE:    0.00 PKD
ROOT
HETATM    1  C   UNL     1      -5.453  20.555  68.498  1.00  0.00    -0.280 C  
HETATM    2  O   UNL     1      -5.700  19.765  67.330  1.00  0.00    -0.174 OA 
ENDROOT
BRANCH   2   3
HETATM    3  C   UNL     1      -7.023  19.571  67.036  1.00  0.00    -0.197 A  
HETATM    4  C   UNL     1      -7.531  18.275  67.205  1.00  0.00    -0.214 A  
HETATM    5  F   UNL     1      -6.713  17.296  67.632  1.00  0.00    -0.140 F  
HETATM    6  C   UNL     1      -8.878  17.987  66.948  1.00  0.00    -0.266 A  
HETATM    7  C   UNL     1      -9.716  19.011  66.485  1.00  0.00    -0.396 A  
HETATM    8  C   UNL     1      -7.866  20.579  66.556  1.00  0.00    -0.156 A  
HETATM    9  C   UNL     1      -9.207  20.298  66.288  1.00  0.00    -0.316 A  
BRANCH   6  10
HETATM   10  C   UNL     1      -9.431  16.642  67.214  1.00  0.00    -0.234 C  
HETATM   11  C   UNL     1      -7.283  15.482  66.621  1.00  0.00     0.453 C  
HETATM   12  C   UNL     1      -8.732  15.495  67.066  1.00  0.00    -0.231 C  
HETATM   13  N   UNL     1      -9.332  14.269  67.377  1.00  0.00    -0.197 N  
HETATM   14  C   UNL     1     -10.524  14.197  68.103  1.00  0.00    -0.244 C  
HETATM   15  C   UNL     1     -10.871  16.546  67.603  1.00  0.00    -0.269 C  
HETATM   16  O   UNL     1     -10.864  13.175  68.704  1.00  0.00    -0.248 OA 
HETATM   17  O   UNL     1     -11.616  17.518  67.471  1.00  0.00     0.500 OA 
HETATM   18  N   UNL     1     -11.297  15.339  68.114  1.00  0.00    -0.327 N  
BRANCH  13  19
HETATM   19  C   UNL     1      -8.687  12.980  67.097  1.00  0.00    -0.204 C  
BRANCH  19  20
HETATM   20  C   UNL     1      -7.417  12.651  67.872  1.00  0.00    -0.124 A  
HETATM   21  F   UNL     1      -8.403  14.316  70.803  1.00  0.00     1.488 F  
HETATM   22  C   UNL     1      -7.720  14.540  69.648  1.00  0.00     0.138 C  
HETATM   23  C   UNL     1      -7.084  13.277  69.099  1.00  0.00     0.005 A  
HETATM   24  F   UNL     1      -6.839  10.971  66.283  1.00  0.00    -0.119 F  
HETATM   25  C   UNL     1      -6.063  12.713  69.905  1.00  0.00    -0.125 A  
HETATM   26  C   UNL     1      -6.627  11.557  67.468  1.00  0.00    -0.087 A  
HETATM   27  F   UNL     1      -6.776  15.477  69.953  1.00  0.00    -0.160 F  
HETATM   28  F   UNL     1      -8.586  15.174  68.819  1.00  0.00    -0.146 F  
HETATM   29  C   UNL     1      -5.601  11.038  68.257  1.00  0.00    -0.042 A  
HETATM   30  C   UNL     1      -5.338  11.597  69.496  1.00  0.00    -0.058 A  
ENDBRANCH  19  20
ENDBRANCH  13  19
BRANCH  18  31
HETATM   31  C   UNL     1     -12.650  15.255  68.676  1.00  0.00     0.566 C  
BRANCH  31  32
HETATM   32  C   UNL     1     -12.728  14.748  70.153  1.00  0.00    -0.219 C  
BRANCH  32  33
HETATM   33  N   UNL     1     -11.600  15.199  71.013  1.00  0.00    -0.322 NA 
HETATM   34  H   UNL     1     -10.779  15.397  70.442  1.00  0.00     0.000 HD 
BRANCH  33  35
HETATM   35  C   UNL     1     -11.900  16.337  71.877  1.00  0.00    -0.462 C  
BRANCH  35  36
HETATM   36  C   UNL     1     -11.724  17.659  71.115  1.00  0.00     3.708 C  
BRANCH  36  37
HETATM   37  C   UNL     1     -10.464  18.425  71.521  1.00  0.00     3.330 C  
HETATM   38  O   UNL     1      -8.518  18.538  70.105  1.00  0.00     1.548 OA 
HETATM   39  C   UNL     1      -9.663  18.895  70.335  1.00  0.00     1.707 C  
HETATM   40  O   UNL     1     -10.308  19.798  69.566  1.00  0.00    -0.205 OA 
ENDBRANCH  36  37
ENDBRANCH  35  36
ENDBRANCH  33  35
ENDBRANCH  32  33
BRANCH  32  41
HETATM   41  C   UNL     1     -12.789  13.220  70.244  1.00  0.00     0.087 A  
HETATM   42  C   UNL     1     -13.410  11.214  71.477  1.00  0.00    -0.235 A  
HETATM   43  C   UNL     1     -12.238  11.002  69.384  1.00  0.00    -0.329 A  
HETATM   44  C   UNL     1     -13.388  12.606  71.354  1.00  0.00    -0.087 A  
HETATM   45  C   UNL     1     -12.225  12.394  69.253  1.00  0.00    -0.088 A  
HETATM   46  C   UNL     1     -12.832  10.412  70.495  1.00  0.00    -0.326 A  
ENDBRANCH  32  41
ENDBRANCH  31  32
ENDBRANCH  18  31
ENDBRANCH   6  10
ENDBRANCH   2   3
TORSDOF 11
ENDMDL
MODEL      292
REMARK 921   NORMALIZED FREE ENERGY PREDICTED BY IDOCK:   16.77 KCAL/MOL
REMARK 922        TOTAL FREE ENERGY PREDICTED BY IDOCK:   24.49 KCAL/MOL
REMARK 923 INTER-LIGAND FREE ENERGY PREDICTED BY IDOCK:    0.52 KCAL/MOL
REMARK 924 INTRA-LIGAND FREE ENERGY PREDICTED BY IDOCK:   23.97 KCAL/MOL
REMARK 927      BINDING AFFINITY PREDICTED BY RF-SCORE:    0.00 PKD
ROOT
HETATM    1  C   UNL     1     -10.109   8.855  69.101  1.00  0.00    -0.197 C  
HETATM    2  O   UNL     1      -9.064   8.706  68.134  1.00  0.00    -0.140 OA 
ENDROOT
BRANCH   2   3
HETATM    3  C   UNL     1      -8.996   9.708  67.202  1.00  0.00    -0.134 A  
HETATM    4  C   UNL     1      -9.221  11.016  67.655  1.00  0.00    -0.149 A  
HETATM    5  F   UNL     1      -9.495  11.227  68.955  1.00  0.00    -0.187 F  
HETATM    6  C   UNL     1      -9.152  12.106  66.778  1.00  0.00    -0.205 A  
HETATM    7  C   UNL     1      -8.883  11.872  65.422  1.00  0.00     0.342 A  
HETATM    8  C   UNL     1      -8.748   9.487  65.843  1.00  0.00    -0.168 A  
HETATM    9  C   UNL     1      -8.687  10.567  64.961  1.00  0.00    -0.193 A  
BRANCH   6  10
HETATM   10  C   UNL     1      -9.298  13.491  67.274  1.00  0.00    -0.233 C  
HETATM   11  C   UNL     1      -9.557  12.761  69.664  1.00  0.00     1.764 C  
HETATM   12  C   UNL     1      -9.489  13.811  68.573  1.00  0.00    -0.162 C  
HETATM   13  N   UNL     1      -9.582  15.155  68.953  1.00  0.00    -0.214 N  
HETATM   14  C   UNL     1      -9.201  16.190  68.093  1.00  0.00    -0.193 C  
HETATM   15  C   UNL     1      -9.303  14.595  66.267  1.00  0.00    -0.262 C  
HETATM   16  O   UNL     1      -8.914  17.315  68.510  1.00  0.00    -0.260 OA 
HETATM   17  O   UNL     1      -9.423  14.341  65.068  1.00  0.00     0.192 OA 
HETATM   18  N   UNL     1      -9.159  15.877  66.751  1.00  0.00    -0.229 N  
BRANCH  13  19
HETATM   19  C   UNL     1      -9.940  15.569  70.315  1.00  0.00     0.063 C  
BRANCH  19  20
HETATM   20  C   UNL     1     -11.423  15.612  70.666  1.00  0.00    -0.400 A  
HETATM   21  F   UNL     1     -12.262  12.750  68.812  1.00  0.00    -0.321 F  
HETATM   22  C   UNL     1     -12.186  14.102  68.678  1.00  0.00    -0.181 C  
HETATM   23  C   UNL     1     -12.392  14.825  69.996  1.00  0.00    -0.365 A  
HETATM   24  F   UNL     1     -10.994  17.134  72.449  1.00  0.00     0.528 F  
HETATM   25  C   UNL     1     -13.682  14.688  70.568  1.00  0.00     0.306 A  
HETATM   26  C   UNL     1     -11.838  16.312  71.816  1.00  0.00    -0.439 A  
HETATM   27  F   UNL     1     -13.150  14.439  67.774  1.00  0.00     0.603 F  
HETATM   28  F   UNL     1     -11.012  14.349  68.045  1.00  0.00    -0.241 F  
HETATM   29  C   UNL     1     -13.124  16.194  72.343  1.00  0.00    -0.225 A  
HETATM   30  C   UNL     1     -14.041  15.353  71.737  1.00  0.00    -0.630 A  
ENDBRANCH  19  20
ENDBRANCH  13  19
BRANCH  18  31
HETATM   31  C   UNL     1      -8.975  16.972  65.790  1.00  0.00     0.167 C  
BRANCH  31  32
HETATM   32  C   UNL     1      -8.470  18.319  66.402  1.00  0.00    -0.244 C  
BRANCH  32  33
HETATM   33  N   UNL     1      -7.202  18.202  67.171  1.00  0.00    -0.196 NA 
HETATM   34  H   UNL     1      -6.729  17.328  66.941  1.00  0.00     0.000 HD 
BRANCH  33  35
HETATM   35  C   UNL     1      -6.282  19.326  67.020  1.00  0.00    -0.181 C  
BRANCH  35  36
HETATM   36  C   UNL     1      -6.178  20.123  68.330  1.00  0.00    -0.316 C  
BRANCH  36  37
HETATM   37  C   UNL     1      -5.845  19.251  69.541  1.00  0.00    -0.277 C  
HETATM   38  O   UNL     1      -7.053  17.225  70.035  1.00  0.00     0.435 OA 
HETATM   39  C   UNL     1      -6.233  17.809  69.343  1.00  0.00    -0.244 C  
HETATM   40  O   UNL     1      -5.550  17.193  68.355  1.00  0.00    -0.132 OA 
ENDBRANCH  36  37
ENDBRANCH  35  36
ENDBRANCH  33  35
ENDBRANCH  32  33
BRANCH  32  41
HETATM   41  C   UNL     1      -9.507  18.966  67.326  1.00  0.00    -0.336 A  
HETATM   42  C   UNL     1     -10.028  20.167  69.380  1.00  0.00    -0.039 A  
HETATM   43  C   UNL     1     -11.820  19.446  67.942  1.00  0.00     2.132 A  
HETATM   44  C   UNL     1      -9.093  19.614  68.500  1.00  0.00    -0.368 A  
HETATM   45  C   UNL     1     -10.887  18.902  67.055  1.00  0.00    -0.392 A  
HETATM   46  C   UNL     1     -11.391  20.080  69.103  1.00  0.00     2.448 A  
ENDBRANCH  32  41
ENDBRANCH  31  32
ENDBRANCH  18  31
ENDBRANCH   6  10
ENDBRANCH   2   3
TORSDOF 11
ENDMDL
MODEL      293
REMARK 921   NORMALIZED FREE ENERGY PREDICTED BY IDOCK:   19.11 KCAL/MOL
REMARK 922        TOTAL FREE ENERGY PREDICTED BY IDOCK:   28.35 KCAL/MOL
REMARK 923 INTER-LIGAND FREE ENERGY PREDICTED BY IDOCK:   13.60 KCAL/MOL
REMARK 924 INTRA-LIGAND FREE ENERGY PREDICTED BY IDOCK:   14.75 KCAL/MOL
REMARK 927      BINDING AFFINITY PREDICTED BY RF-SCORE:    0.00 PKD
ROOT
HETATM    1  C   UNL     1      -9.985  11.097  72.425  1.00  0.00    13.332 C  
HETATM    2  O   UNL     1      -9.393   9.967  73.075  1.00  0.00     4.805 OA 
ENDROOT
BRANCH   2   3
HETATM    3  C   UNL     1      -8.865   9.029  72.228  1.00  0.00     0.376 A  
HETATM    4  C   UNL     1      -8.816   9.354  70.865  1.00  0.00    -0.103 A  
HETATM    5  F   UNL     1      -9.285  10.546  70.454  1.00  0.00     0.150 F  
HETATM    6  C   UNL     1      -8.275   8.464  69.928  1.00  0.00    -0.122 A  
HETATM    7  C   UNL     1      -7.806   7.218  70.367  1.00  0.00    -0.099 A  
HETATM    8  C   UNL     1      -8.411   7.773  72.649  1.00  0.00    -0.182 A  
HETATM    9  C   UNL     1      -7.880   6.877  71.721  1.00  0.00    -0.099 A  
BRANCH   6  10
HETATM   10  C   UNL     1      -8.140   8.847  68.507  1.00  0.00    -0.108 C  
HETATM   11  C   UNL     1      -8.703  11.254  68.952  1.00  0.00    -0.053 C  
HETATM   12  C   UNL     1      -8.336  10.100  68.041  1.00  0.00    -0.117 C  
HETATM   13  N   UNL     1      -8.151  10.374  66.680  1.00  0.00    -0.119 N  
HETATM   14  C   UNL     1      -7.497   9.476  65.832  1.00  0.00    -0.100 C  
HETATM   15  C   UNL     1      -7.837   7.766  67.520  1.00  0.00    -0.122 C  
HETATM   16  O   UNL     1      -6.993   9.832  64.763  1.00  0.00    -0.109 OA 
HETATM   17  O   UNL     1      -7.936   6.583  67.846  1.00  0.00    -0.107 OA 
HETATM   18  N   UNL     1      -7.442   8.167  66.262  1.00  0.00    -0.081 N  
BRANCH  13  19
HETATM   19  C   UNL     1      -8.492  11.670  66.081  1.00  0.00    -0.008 C  
BRANCH  19  20
HETATM   20  C   UNL     1      -9.727  11.726  65.191  1.00  0.00    -0.228 A  
HETATM   21  F   UNL     1      -9.893  15.233  65.112  1.00  0.00    -0.348 F  
HETATM   22  C   UNL     1     -10.371  14.175  65.823  1.00  0.00    -0.325 C  
HETATM   23  C   UNL     1     -10.470  12.915  64.984  1.00  0.00    -0.337 A  
HETATM   24  F   UNL     1      -9.440   9.438  64.586  1.00  0.00    -0.300 F  
HETATM   25  C   UNL     1     -11.408  12.965  63.922  1.00  0.00    -0.489 A  
HETATM   26  C   UNL     1     -10.049  10.613  64.389  1.00  0.00    -0.349 A  
HETATM   27  F   UNL     1     -11.597  14.561  66.282  1.00  0.00    -0.339 F  
HETATM   28  F   UNL     1      -9.595  14.089  66.931  1.00  0.00    -0.234 F  
HETATM   29  C   UNL     1     -11.002  10.670  63.372  1.00  0.00     0.795 A  
HETATM   30  C   UNL     1     -11.661  11.860  63.114  1.00  0.00    -0.249 A  
ENDBRANCH  19  20
ENDBRANCH  13  19
BRANCH  18  31
HETATM   31  C   UNL     1      -6.960   7.148  65.322  1.00  0.00    -0.056 C  
BRANCH  31  32
HETATM   32  C   UNL     1      -8.069   6.242  64.695  1.00  0.00    -0.115 C  
BRANCH  32  33
HETATM   33  N   UNL     1      -9.434   6.484  65.237  1.00  0.00     0.014 NA 
HETATM   34  H   UNL     1     -10.136   6.288  64.525  1.00  0.00     0.000 HD 
BRANCH  33  35
HETATM   35  C   UNL     1      -9.747   5.759  66.465  1.00  0.00    -0.159 C  
BRANCH  35  36
HETATM   36  C   UNL     1      -9.044   4.393  66.484  1.00  0.00    -0.123 C  
BRANCH  36  37
HETATM   37  C   UNL     1      -9.782   3.347  67.321  1.00  0.00    -0.007 C  
HETATM   38  O   UNL     1      -8.632   1.884  68.852  1.00  0.00    -0.056 OA 
HETATM   39  C   UNL     1      -9.053   3.001  68.593  1.00  0.00    -0.155 C  
HETATM   40  O   UNL     1      -8.949   4.033  69.457  1.00  0.00    -0.084 OA 
ENDBRANCH  36  37
ENDBRANCH  35  36
ENDBRANCH  33  35
ENDBRANCH  32  33
BRANCH  32  41
HETATM   41  C   UNL     1      -7.769   4.749  64.863  1.00  0.00    -0.078 A  
HETATM   42  C   UNL     1      -6.552   2.967  65.992  1.00  0.00    -0.039 A  
HETATM   43  C   UNL     1      -8.005   2.426  64.150  1.00  0.00    -0.077 A  
HETATM   44  C   UNL     1      -6.875   4.320  65.856  1.00  0.00    -0.057 A  
HETATM   45  C   UNL     1      -8.339   3.777  64.019  1.00  0.00    -0.091 A  
HETATM   46  C   UNL     1      -7.113   2.020  65.138  1.00  0.00    -0.048 A  
ENDBRANCH  32  41
ENDBRANCH  31  32
ENDBRANCH  18  31
ENDBRANCH   6  10
ENDBRANCH   2   3
TORSDOF 11
ENDMDL
MODEL      294
REMARK 921   NORMALIZED FREE ENERGY PREDICTED BY IDOCK:   20.85 KCAL/MOL
REMARK 922        TOTAL FREE ENERGY PREDICTED BY IDOCK:   31.20 KCAL/MOL
REMARK 923 INTER-LIGAND FREE ENERGY PREDICTED BY IDOCK:   26.96 KCAL/MOL
REMARK 924 INTRA-LIGAND FREE ENERGY PREDICTED BY IDOCK:    4.24 KCAL/MOL
REMARK 927      BINDING AFFINITY PREDICTED BY RF-SCORE:    0.00 PKD
ROOT
HETATM    1  C   UNL     1      -5.424   9.147  66.540  1.00  0.00    -0.042 C  
HETATM    2  O   UNL     1      -6.446  10.149  66.524  1.00  0.00    -0.069 OA 
ENDROOT
BRANCH   2   3
HETATM    3  C   UNL     1      -6.681  10.749  67.733  1.00  0.00    -0.068 A  
HETATM    4  C   UNL     1      -7.970  11.254  67.954  1.00  0.00    -0.118 A  
HETATM    5  F   UNL     1      -8.900  11.137  66.990  1.00  0.00    -0.140 F  
HETATM    6  C   UNL     1      -8.308  11.866  69.169  1.00  0.00     0.378 A  
HETATM    7  C   UNL     1      -7.325  11.998  70.160  1.00  0.00     1.574 A  
HETATM    8  C   UNL     1      -5.704  10.905  68.723  1.00  0.00    -0.040 A  
HETATM    9  C   UNL     1      -6.030  11.522  69.932  1.00  0.00    -0.130 A  
BRANCH   6  10
HETATM   10  C   UNL     1      -9.691  12.314  69.435  1.00  0.00     0.885 C  
HETATM   11  C   UNL     1     -10.628   9.988  69.285  1.00  0.00    -0.249 C  
HETATM   12  C   UNL     1     -10.757  11.484  69.485  1.00  0.00    -0.000 C  
HETATM   13  N   UNL     1     -12.026  11.998  69.778  1.00  0.00    -0.312 N  
HETATM   14  C   UNL     1     -12.195  13.283  70.302  1.00  0.00    -0.321 C  
HETATM   15  C   UNL     1      -9.931  13.781  69.588  1.00  0.00     0.838 C  
HETATM   16  O   UNL     1     -13.218  13.613  70.910  1.00  0.00    -0.184 OA 
HETATM   17  O   UNL     1      -9.058  14.589  69.267  1.00  0.00    -0.040 OA 
HETATM   18  N   UNL     1     -11.150  14.160  70.106  1.00  0.00    -0.000 N  
BRANCH  13  19
HETATM   19  C   UNL     1     -13.245  11.185  69.699  1.00  0.00     1.173 C  
BRANCH  19  20
HETATM   20  C   UNL     1     -13.430  10.097  70.751  1.00  0.00    -0.063 A  
HETATM   21  F   UNL     1     -11.673   7.638  68.963  1.00  0.00     0.354 F  
HETATM   22  C   UNL     1     -12.938   8.109  69.133  1.00  0.00     5.821 C  
HETATM   23  C   UNL     1     -13.143   8.732  70.500  1.00  0.00     0.732 A  
HETATM   24  F   UNL     1     -14.071  11.723  72.372  1.00  0.00    -0.179 F  
HETATM   25  C   UNL     1     -13.045   7.837  71.596  1.00  0.00    -0.378 A  
HETATM   26  C   UNL     1     -13.716  10.466  72.080  1.00  0.00     0.023 A  
HETATM   27  F   UNL     1     -13.760   7.036  68.950  1.00  0.00     6.049 F  
HETATM   28  F   UNL     1     -13.180   8.919  68.071  1.00  0.00     8.277 F  
HETATM   29  C   UNL     1     -13.651   9.562  73.141  1.00  0.00     0.840 A  
HETATM   30  C   UNL     1     -13.282   8.250  72.904  1.00  0.00     0.266 A  
ENDBRANCH  19  20
ENDBRANCH  13  19
BRANCH  18  31
HETATM   31  C   UNL     1     -11.359  15.574  70.443  1.00  0.00    -0.342 C  
BRANCH  31  32
HETATM   32  C   UNL     1     -10.438  16.584  69.683  1.00  0.00    -0.267 C  
BRANCH  32  33
HETATM   33  N   UNL     1     -10.551  17.989  70.160  1.00  0.00     0.445 NA 
HETATM   34  H   UNL     1     -10.039  18.107  71.033  1.00  0.00     0.000 HD 
BRANCH  33  35
HETATM   35  C   UNL     1     -10.139  19.003  69.194  1.00  0.00    -0.172 C  
BRANCH  35  36
HETATM   36  C   UNL     1      -8.751  18.676  68.621  1.00  0.00    -0.333 C  
BRANCH  36  37
HETATM   37  C   UNL     1      -7.893  19.918  68.375  1.00  0.00    -0.270 C  
HETATM   38  O   UNL     1      -5.688  20.162  69.316  1.00  0.00    -0.247 OA 
HETATM   39  C   UNL     1      -6.418  19.636  68.490  1.00  0.00    -0.269 C  
HETATM   40  O   UNL     1      -5.953  18.781  67.554  1.00  0.00    -0.177 OA 
ENDBRANCH  36  37
ENDBRANCH  35  36
ENDBRANCH  33  35
ENDBRANCH  32  33
BRANCH  32  41
HETATM   41  C   UNL     1     -10.700  16.591  68.174  1.00  0.00    -0.343 A  
HETATM   42  C   UNL     1      -9.909  16.194  65.905  1.00  0.00    -0.384 A  
HETATM   43  C   UNL     1     -12.104  17.121  66.248  1.00  0.00     3.450 A  
HETATM   44  C   UNL     1      -9.706  16.149  67.287  1.00  0.00    -0.233 A  
HETATM   45  C   UNL     1     -11.909  17.066  67.631  1.00  0.00     1.211 A  
HETATM   46  C   UNL     1     -11.105  16.682  65.385  1.00  0.00     0.014 A  
ENDBRANCH  32  41
ENDBRANCH  31  32
ENDBRANCH  18  31
ENDBRANCH   6  10
ENDBRANCH   2   3
TORSDOF 11
ENDMDL
MODEL      295
REMARK 921   NORMALIZED FREE ENERGY PREDICTED BY IDOCK:   24.69 KCAL/MOL
REMARK 922        TOTAL FREE ENERGY PREDICTED BY IDOCK:   37.52 KCAL/MOL
REMARK 923 INTER-LIGAND FREE ENERGY PREDICTED BY IDOCK:   16.87 KCAL/MOL
REMARK 924 INTRA-LIGAND FREE ENERGY PREDICTED BY IDOCK:   20.64 KCAL/MOL
REMARK 927      BINDING AFFINITY PREDICTED BY RF-SCORE:    0.00 PKD
ROOT
HETATM    1  C   UNL     1     -13.900   5.855  68.841  1.00  0.00    16.848 C  
HETATM    2  O   UNL     1     -13.975   6.095  70.251  1.00  0.00     3.714 OA 
ENDROOT
BRANCH   2   3
HETATM    3  C   UNL     1     -13.125   7.063  70.715  1.00  0.00     0.156 A  
HETATM    4  C   UNL     1     -12.084   7.461  69.864  1.00  0.00     0.506 A  
HETATM    5  F   UNL     1     -11.962   6.882  68.656  1.00  0.00     0.219 F  
HETATM    6  C   UNL     1     -11.179   8.459  70.247  1.00  0.00    -0.175 A  
HETATM    7  C   UNL     1     -11.306   9.042  71.516  1.00  0.00    -0.416 A  
HETATM    8  C   UNL     1     -13.229   7.640  71.986  1.00  0.00    -0.207 A  
HETATM    9  C   UNL     1     -12.325   8.628  72.379  1.00  0.00    -0.426 A  
BRANCH   6  10
HETATM   10  C   UNL     1     -10.139   8.940  69.313  1.00  0.00    -0.205 C  
HETATM   11  C   UNL     1      -8.440   7.274  70.117  1.00  0.00    -0.138 C  
HETATM   12  C   UNL     1      -8.892   8.425  69.241  1.00  0.00    -0.142 C  
HETATM   13  N   UNL     1      -7.985   8.925  68.298  1.00  0.00    -0.104 N  
HETATM   14  C   UNL     1      -8.400   9.735  67.238  1.00  0.00    -0.121 C  
HETATM   15  C   UNL     1     -10.470  10.112  68.447  1.00  0.00    -0.208 C  
HETATM   16  O   UNL     1      -7.725   9.869  66.213  1.00  0.00    -0.101 OA 
HETATM   17  O   UNL     1     -11.472  10.790  68.675  1.00  0.00    -0.273 OA 
HETATM   18  N   UNL     1      -9.612  10.372  67.399  1.00  0.00    -0.153 N  
BRANCH  13  19
HETATM   19  C   UNL     1      -6.574   8.520  68.267  1.00  0.00    -0.061 C  
BRANCH  19  20
HETATM   20  C   UNL     1      -6.097   7.743  67.045  1.00  0.00    -0.052 A  
HETATM   21  F   UNL     1      -8.115   4.935  67.656  1.00  0.00    -0.093 F  
HETATM   22  C   UNL     1      -6.868   5.410  67.924  1.00  0.00    -0.060 C  
HETATM   23  C   UNL     1      -6.373   6.366  66.856  1.00  0.00    -0.041 A  
HETATM   24  F   UNL     1      -5.163   9.725  66.105  1.00  0.00    -0.036 F  
HETATM   25  C   UNL     1      -6.168   5.793  65.576  1.00  0.00    -0.037 A  
HETATM   26  C   UNL     1      -5.520   8.443  65.967  1.00  0.00    -0.031 A  
HETATM   27  F   UNL     1      -6.066   4.311  68.015  1.00  0.00    -0.027 F  
HETATM   28  F   UNL     1      -6.922   5.908  69.185  1.00  0.00    -0.055 F  
HETATM   29  C   UNL     1      -5.290   7.851  64.725  1.00  0.00    -0.029 A  
HETATM   30  C   UNL     1      -5.646   6.530  64.517  1.00  0.00    -0.030 A  
ENDBRANCH  19  20
ENDBRANCH  13  19
BRANCH  18  31
HETATM   31  C   UNL     1      -9.994  11.395  66.418  1.00  0.00    -0.214 C  
BRANCH  31  32
HETATM   32  C   UNL     1     -10.315  12.804  67.015  1.00  0.00    -0.234 C  
BRANCH  32  33
HETATM   33  N   UNL     1      -9.126  13.686  67.170  1.00  0.00    -0.230 NA 
HETATM   34  H   UNL     1      -9.346  14.471  67.782  1.00  0.00     0.000 HD 
BRANCH  33  35
HETATM   35  C   UNL     1      -7.914  13.013  67.629  1.00  0.00    -0.169 C  
BRANCH  35  36
HETATM   36  C   UNL     1      -7.207  13.845  68.710  1.00  0.00    -0.106 C  
BRANCH  36  37
HETATM   37  C   UNL     1      -5.996  13.137  69.319  1.00  0.00    -0.095 C  
HETATM   38  O   UNL     1      -5.986  10.770  69.772  1.00  0.00    -0.053 OA 
HETATM   39  C   UNL     1      -5.933  11.677  68.955  1.00  0.00    -0.053 C  
HETATM   40  O   UNL     1      -5.757  11.453  67.635  1.00  0.00    -0.044 OA 
ENDBRANCH  36  37
ENDBRANCH  35  36
ENDBRANCH  33  35
ENDBRANCH  32  33
BRANCH  32  41
HETATM   41  C   UNL     1     -11.000  12.718  68.383  1.00  0.00    -0.281 A  
HETATM   42  C   UNL     1     -11.193  11.666  70.571  1.00  0.00     0.637 A  
HETATM   43  C   UNL     1     -12.758  13.384  69.941  1.00  0.00     0.124 A  
HETATM   44  C   UNL     1     -10.549  11.793  69.337  1.00  0.00     0.033 A  
HETATM   45  C   UNL     1     -12.108  13.521  68.710  1.00  0.00    -0.305 A  
HETATM   46  C   UNL     1     -12.298  12.458  70.872  1.00  0.00    -0.358 A  
ENDBRANCH  32  41
ENDBRANCH  31  32
ENDBRANCH  18  31
ENDBRANCH   6  10
ENDBRANCH   2   3
TORSDOF 11
ENDMDL
MODEL      296
REMARK 921   NORMALIZED FREE ENERGY PREDICTED BY IDOCK:   25.06 KCAL/MOL
REMARK 922        TOTAL FREE ENERGY PREDICTED BY IDOCK:   38.12 KCAL/MOL
REMARK 923 INTER-LIGAND FREE ENERGY PREDICTED BY IDOCK:   21.33 KCAL/MOL
REMARK 924 INTRA-LIGAND FREE ENERGY PREDICTED BY IDOCK:   16.79 KCAL/MOL
REMARK 927      BINDING AFFINITY PREDICTED BY RF-SCORE:    0.00 PKD
ROOT
HETATM    1  C   UNL     1     -12.668  17.732  68.885  1.00  0.00     7.448 C  
HETATM    2  O   UNL     1     -13.322  17.205  70.045  1.00  0.00     6.190 OA 
ENDROOT
BRANCH   2   3
HETATM    3  C   UNL     1     -12.716  16.110  70.599  1.00  0.00     0.539 A  
HETATM    4  C   UNL     1     -12.420  15.041  69.740  1.00  0.00    -0.181 A  
HETATM    5  F   UNL     1     -12.743  15.132  68.438  1.00  0.00     0.118 F  
HETATM    6  C   UNL     1     -11.782  13.888  70.215  1.00  0.00    -0.294 A  
HETATM    7  C   UNL     1     -11.466  13.797  71.578  1.00  0.00     1.378 A  
HETATM    8  C   UNL     1     -12.412  15.998  71.961  1.00  0.00    -0.498 A  
HETATM    9  C   UNL     1     -11.786  14.848  72.443  1.00  0.00    -0.320 A  
BRANCH   6  10
HETATM   10  C   UNL     1     -11.389  12.803  69.292  1.00  0.00    -0.307 C  
HETATM   11  C   UNL     1     -11.425  11.056  71.097  1.00  0.00     0.530 C  
HETATM   12  C   UNL     1     -11.214  11.516  69.669  1.00  0.00    -0.204 C  
HETATM   13  N   UNL     1     -10.875  10.551  68.714  1.00  0.00    -0.215 N  
HETATM   14  C   UNL     1     -10.986  10.801  67.343  1.00  0.00    -0.300 C  
HETATM   15  C   UNL     1     -11.100  13.167  67.871  1.00  0.00    -0.262 C  
HETATM   16  O   UNL     1     -11.064   9.890  66.515  1.00  0.00     0.116 OA 
HETATM   17  O   UNL     1     -10.963  14.347  67.549  1.00  0.00    -0.280 OA 
HETATM   18  N   UNL     1     -11.011  12.128  66.970  1.00  0.00    -0.257 N  
BRANCH  13  19
HETATM   19  C   UNL     1     -10.523   9.172  69.075  1.00  0.00    -0.221 C  
BRANCH  19  20
HETATM   20  C   UNL     1     -11.667   8.222  69.409  1.00  0.00     0.944 A  
HETATM   21  F   UNL     1      -9.987   5.328  68.345  1.00  0.00    -0.166 F  
HETATM   22  C   UNL     1     -10.831   6.285  67.873  1.00  0.00    -0.333 C  
HETATM   23  C   UNL     1     -11.701   6.877  68.965  1.00  0.00     0.329 A  
HETATM   24  F   UNL     1     -12.713   9.896  70.746  1.00  0.00    -0.347 F  
HETATM   25  C   UNL     1     -12.625   5.980  69.558  1.00  0.00     4.042 A  
HETATM   26  C   UNL     1     -12.642   8.621  70.345  1.00  0.00     0.661 A  
HETATM   27  F   UNL     1     -11.586   5.672  66.916  1.00  0.00     0.133 F  
HETATM   28  F   UNL     1     -10.054   7.165  67.193  1.00  0.00    -0.197 F  
HETATM   29  C   UNL     1     -13.568   7.731  70.890  1.00  0.00     0.118 A  
HETATM   30  C   UNL     1     -13.539   6.398  70.521  1.00  0.00     2.575 A  
ENDBRANCH  19  20
ENDBRANCH  13  19
BRANCH  18  31
HETATM   31  C   UNL     1     -10.911  12.448  65.541  1.00  0.00    -0.293 C  
BRANCH  31  32
HETATM   32  C   UNL     1      -9.690  13.338  65.140  1.00  0.00     0.065 C  
BRANCH  32  33
HETATM   33  N   UNL     1      -8.378  12.637  65.201  1.00  0.00     1.637 NA 
HETATM   34  H   UNL     1      -7.767  12.965  64.454  1.00  0.00     0.000 HD 
BRANCH  33  35
HETATM   35  C   UNL     1      -7.692  12.723  66.487  1.00  0.00     0.691 C  
BRANCH  35  36
HETATM   36  C   UNL     1      -6.587  11.661  66.586  1.00  0.00    -0.040 C  
BRANCH  36  37
HETATM   37  C   UNL     1      -6.926  10.367  65.845  1.00  0.00    -0.131 C  
HETATM   38  O   UNL     1      -5.222   8.912  64.958  1.00  0.00    -0.037 OA 
HETATM   39  C   UNL     1      -5.824   9.344  65.929  1.00  0.00    -0.054 C  
HETATM   40  O   UNL     1      -5.591   8.899  67.183  1.00  0.00    -0.040 OA 
ENDBRANCH  36  37
ENDBRANCH  35  36
ENDBRANCH  33  35
ENDBRANCH  32  33
BRANCH  32  41
HETATM   41  C   UNL     1      -9.575  14.598  66.004  1.00  0.00    -0.322 A  
HETATM   42  C   UNL     1     -10.638  16.499  67.093  1.00  0.00    -0.270 A  
HETATM   43  C   UNL     1      -8.242  16.270  67.182  1.00  0.00    -0.219 A  
HETATM   44  C   UNL     1     -10.728  15.321  66.347  1.00  0.00    -0.318 A  
HETATM   45  C   UNL     1      -8.330  15.086  66.445  1.00  0.00     0.154 A  
HETATM   46  C   UNL     1      -9.396  16.976  67.508  1.00  0.00    -0.233 A  
ENDBRANCH  32  41
ENDBRANCH  31  32
ENDBRANCH  18  31
ENDBRANCH   6  10
ENDBRANCH   2   3
TORSDOF 11
ENDMDL
MODEL      297
REMARK 921   NORMALIZED FREE ENERGY PREDICTED BY IDOCK:   28.58 KCAL/MOL
REMARK 922        TOTAL FREE ENERGY PREDICTED BY IDOCK:   43.90 KCAL/MOL
REMARK 923 INTER-LIGAND FREE ENERGY PREDICTED BY IDOCK:   36.94 KCAL/MOL
REMARK 924 INTRA-LIGAND FREE ENERGY PREDICTED BY IDOCK:    6.96 KCAL/MOL
REMARK 927      BINDING AFFINITY PREDICTED BY RF-SCORE:    0.00 PKD
ROOT
HETATM    1  C   UNL     1     -12.108   7.296  65.152  1.00  0.00    12.516 C  
HETATM    2  O   UNL     1     -11.405   7.698  66.333  1.00  0.00     1.234 OA 
ENDROOT
BRANCH   2   3
HETATM    3  C   UNL     1     -10.165   8.234  66.109  1.00  0.00     0.284 A  
HETATM    4  C   UNL     1     -10.020   9.614  66.309  1.00  0.00    -0.264 A  
HETATM    5  F   UNL     1     -11.084  10.340  66.697  1.00  0.00    -0.230 F  
HETATM    6  C   UNL     1      -8.783  10.246  66.124  1.00  0.00    -0.163 A  
HETATM    7  C   UNL     1      -7.686   9.482  65.701  1.00  0.00    -0.101 A  
HETATM    8  C   UNL     1      -9.066   7.487  65.669  1.00  0.00     0.060 A  
HETATM    9  C   UNL     1      -7.833   8.110  65.473  1.00  0.00    -0.104 A  
BRANCH   6  10
HETATM   10  C   UNL     1      -8.611  11.683  66.424  1.00  0.00    -0.143 C  
HETATM   11  C   UNL     1      -7.352  11.236  68.552  1.00  0.00    -0.106 C  
HETATM   12  C   UNL     1      -7.975  12.154  67.519  1.00  0.00    -0.163 C  
HETATM   13  N   UNL     1      -7.831  13.536  67.700  1.00  0.00    -0.161 N  
HETATM   14  C   UNL     1      -8.065  14.441  66.662  1.00  0.00     0.401 C  
HETATM   15  C   UNL     1      -9.241  12.669  65.494  1.00  0.00     0.330 C  
HETATM   16  O   UNL     1      -7.595  15.583  66.670  1.00  0.00    -0.120 OA 
HETATM   17  O   UNL     1     -10.064  12.295  64.658  1.00  0.00    -0.282 OA 
HETATM   18  N   UNL     1      -8.846  13.983  65.622  1.00  0.00     0.903 N  
BRANCH  13  19
HETATM   19  C   UNL     1      -7.289  14.118  68.934  1.00  0.00    -0.122 C  
BRANCH  19  20
HETATM   20  C   UNL     1      -8.280  14.760  69.898  1.00  0.00     0.365 A  
HETATM   21  F   UNL     1      -6.266  17.552  70.595  1.00  0.00     0.011 F  
HETATM   22  C   UNL     1      -6.522  16.300  71.062  1.00  0.00     1.612 C  
HETATM   23  C   UNL     1      -7.933  15.843  70.745  1.00  0.00     2.706 A  
HETATM   24  F   UNL     1     -10.025  13.343  69.107  1.00  0.00    -0.084 F  
HETATM   25  C   UNL     1      -8.966  16.577  71.380  1.00  0.00     6.856 A  
HETATM   26  C   UNL     1      -9.641  14.404  69.826  1.00  0.00     0.633 A  
HETATM   27  F   UNL     1      -6.311  16.357  72.408  1.00  0.00     2.088 F  
HETATM   28  F   UNL     1      -5.525  15.513  70.586  1.00  0.00    -0.141 F  
HETATM   29  C   UNL     1     -10.640  15.116  70.489  1.00  0.00    -0.127 A  
HETATM   30  C   UNL     1     -10.306  16.228  71.243  1.00  0.00     1.654 A  
ENDBRANCH  19  20
ENDBRANCH  13  19
BRANCH  18  31
HETATM   31  C   UNL     1      -9.298  14.951  64.615  1.00  0.00     2.342 C  
BRANCH  31  32
HETATM   32  C   UNL     1     -10.780  15.425  64.765  1.00  0.00    -0.314 C  
BRANCH  32  33
HETATM   33  N   UNL     1     -10.937  16.897  64.920  1.00  0.00    -0.689 NA 
HETATM   34  H   UNL     1     -11.910  17.129  65.122  1.00  0.00     0.000 HD 
BRANCH  33  35
HETATM   35  C   UNL     1     -10.058  17.510  65.912  1.00  0.00    -0.185 C  
BRANCH  35  36
HETATM   36  C   UNL     1      -9.408  18.783  65.349  1.00  0.00     1.343 C  
BRANCH  36  37
HETATM   37  C   UNL     1      -8.240  19.288  66.196  1.00  0.00    -0.291 C  
HETATM   38  O   UNL     1      -8.526  20.953  67.915  1.00  0.00     0.044 OA 
HETATM   39  C   UNL     1      -8.678  19.799  67.544  1.00  0.00    -0.330 C  
HETATM   40  O   UNL     1      -9.212  18.847  68.338  1.00  0.00    -0.320 OA 
ENDBRANCH  36  37
ENDBRANCH  35  36
ENDBRANCH  33  35
ENDBRANCH  32  33
BRANCH  32  41
HETATM   41  C   UNL     1     -11.489  14.762  65.950  1.00  0.00    -0.319 A  
HETATM   42  C   UNL     1     -13.416  14.625  67.433  1.00  0.00     4.847 A  
HETATM   43  C   UNL     1     -11.514  13.203  67.828  1.00  0.00    -0.352 A  
HETATM   44  C   UNL     1     -12.774  15.185  66.325  1.00  0.00     1.118 A  
HETATM   45  C   UNL     1     -10.874  13.752  66.713  1.00  0.00    -0.284 A  
HETATM   46  C   UNL     1     -12.786  13.638  68.187  1.00  0.00     0.989 A  
ENDBRANCH  32  41
ENDBRANCH  31  32
ENDBRANCH  18  31
ENDBRANCH   6  10
ENDBRANCH   2   3
TORSDOF 11
ENDMDL
MODEL      298
REMARK 921   NORMALIZED FREE ENERGY PREDICTED BY IDOCK:   29.33 KCAL/MOL
REMARK 922        TOTAL FREE ENERGY PREDICTED BY IDOCK:   45.14 KCAL/MOL
REMARK 923 INTER-LIGAND FREE ENERGY PREDICTED BY IDOCK:   22.25 KCAL/MOL
REMARK 924 INTRA-LIGAND FREE ENERGY PREDICTED BY IDOCK:   22.89 KCAL/MOL
REMARK 927      BINDING AFFINITY PREDICTED BY RF-SCORE:    0.00 PKD
ROOT
HETATM    1  C   UNL     1      -5.693  16.057  70.044  1.00  0.00    -0.171 C  
HETATM    2  O   UNL     1      -6.166  14.707  70.076  1.00  0.00    -0.136 OA 
ENDROOT
BRANCH   2   3
HETATM    3  C   UNL     1      -6.676  14.247  68.891  1.00  0.00    -0.100 A  
HETATM    4  C   UNL     1      -7.381  13.036  68.927  1.00  0.00    -0.017 A  
HETATM    5  F   UNL     1      -7.520  12.387  70.097  1.00  0.00     0.726 F  
HETATM    6  C   UNL     1      -7.955  12.499  67.767  1.00  0.00    -0.163 A  
HETATM    7  C   UNL     1      -7.788  13.175  66.550  1.00  0.00     0.812 A  
HETATM    8  C   UNL     1      -6.500  14.901  67.667  1.00  0.00    -0.168 A  
HETATM    9  C   UNL     1      -7.060  14.368  66.505  1.00  0.00     2.168 A  
BRANCH   6  10
HETATM   10  C   UNL     1      -8.776  11.271  67.824  1.00  0.00    -0.134 C  
HETATM   11  C   UNL     1     -10.016  12.022  69.876  1.00  0.00     1.785 C  
HETATM   12  C   UNL     1      -9.709  11.030  68.772  1.00  0.00    -0.191 C  
HETATM   13  N   UNL     1     -10.463   9.851  68.723  1.00  0.00    -0.204 N  
HETATM   14  C   UNL     1     -10.495   9.046  67.581  1.00  0.00    -0.260 C  
HETATM   15  C   UNL     1      -8.507  10.205  66.812  1.00  0.00    -0.126 C  
HETATM   16  O   UNL     1     -11.409   8.244  67.371  1.00  0.00     0.480 OA 
HETATM   17  O   UNL     1      -7.490  10.250  66.119  1.00  0.00    -0.109 OA 
HETATM   18  N   UNL     1      -9.448   9.204  66.698  1.00  0.00    -0.170 N  
BRANCH  13  19
HETATM   19  C   UNL     1     -11.380   9.455  69.799  1.00  0.00    -0.042 C  
BRANCH  19  20
HETATM   20  C   UNL     1     -10.763   9.074  71.140  1.00  0.00    -0.358 A  
HETATM   21  F   UNL     1      -8.158  11.422  70.958  1.00  0.00     3.405 F  
HETATM   22  C   UNL     1      -8.428  10.127  70.639  1.00  0.00     0.909 C  
HETATM   23  C   UNL     1      -9.480   9.517  71.546  1.00  0.00     0.387 A  
HETATM   24  F   UNL     1     -12.744   7.904  71.761  1.00  0.00    -0.298 F  
HETATM   25  C   UNL     1      -9.104   9.382  72.906  1.00  0.00     2.555 A  
HETATM   26  C   UNL     1     -11.555   8.415  72.100  1.00  0.00    -0.374 A  
HETATM   27  F   UNL     1      -7.239   9.465  70.745  1.00  0.00    -0.087 F  
HETATM   28  F   UNL     1      -8.714  10.121  69.313  1.00  0.00    -0.132 F  
HETATM   29  C   UNL     1     -11.152   8.258  73.426  1.00  0.00     0.838 A  
HETATM   30  C   UNL     1      -9.936   8.772  73.840  1.00  0.00     3.153 A  
ENDBRANCH  19  20
ENDBRANCH  13  19
BRANCH  18  31
HETATM   31  C   UNL     1      -9.318   8.242  65.597  1.00  0.00     0.052 C  
BRANCH  31  32
HETATM   32  C   UNL     1      -8.975   6.779  66.028  1.00  0.00    -0.106 C  
BRANCH  32  33
HETATM   33  N   UNL     1      -8.957   5.802  64.905  1.00  0.00    -0.364 NA 
HETATM   34  H   UNL     1      -8.021   5.412  64.793  1.00  0.00     0.000 HD 
BRANCH  33  35
HETATM   35  C   UNL     1      -9.941   4.728  65.006  1.00  0.00     0.067 C  
BRANCH  35  36
HETATM   36  C   UNL     1     -10.629   4.492  63.653  1.00  0.00     0.388 C  
BRANCH  36  37
HETATM   37  C   UNL     1     -10.652   3.021  63.236  1.00  0.00    -0.228 C  
HETATM   38  O   UNL     1      -8.631   1.746  62.917  1.00  0.00    -0.074 OA 
HETATM   39  C   UNL     1      -9.424   2.272  63.684  1.00  0.00    -0.105 C  
HETATM   40  O   UNL     1      -9.300   2.184  65.025  1.00  0.00    -0.133 OA 
ENDBRANCH  36  37
ENDBRANCH  35  36
ENDBRANCH  33  35
ENDBRANCH  32  33
BRANCH  32  41
HETATM   41  C   UNL     1      -9.941   6.240  67.087  1.00  0.00    -0.189 A  
HETATM   42  C   UNL     1     -10.441   5.760  69.422  1.00  0.00    -0.360 A  
HETATM   43  C   UNL     1     -12.013   5.111  67.717  1.00  0.00     5.882 A  
HETATM   44  C   UNL     1      -9.593   6.290  68.445  1.00  0.00    -0.121 A  
HETATM   45  C   UNL     1     -11.172   5.652  66.739  1.00  0.00     0.213 A  
HETATM   46  C   UNL     1     -11.648   5.167  69.058  1.00  0.00     3.351 A  
ENDBRANCH  32  41
ENDBRANCH  31  32
ENDBRANCH  18  31
ENDBRANCH   6  10
ENDBRANCH   2   3
TORSDOF 11
ENDMDL
MODEL      299
REMARK 921   NORMALIZED FREE ENERGY PREDICTED BY IDOCK:   31.48 KCAL/MOL
REMARK 922        TOTAL FREE ENERGY PREDICTED BY IDOCK:   48.67 KCAL/MOL
REMARK 923 INTER-LIGAND FREE ENERGY PREDICTED BY IDOCK:   33.73 KCAL/MOL
REMARK 924 INTRA-LIGAND FREE ENERGY PREDICTED BY IDOCK:   14.94 KCAL/MOL
REMARK 927      BINDING AFFINITY PREDICTED BY RF-SCORE:    0.00 PKD
ROOT
HETATM    1  C   UNL     1     -10.957  12.016  63.118  1.00  0.00    -0.195 C  
HETATM    2  O   UNL     1     -11.332  10.700  62.696  1.00  0.00     1.321 OA 
ENDROOT
BRANCH   2   3
HETATM    3  C   UNL     1     -10.663   9.683  63.323  1.00  0.00     4.161 A  
HETATM    4  C   UNL     1     -10.081   9.973  64.566  1.00  0.00     0.072 A  
HETATM    5  F   UNL     1     -10.195  11.212  65.075  1.00  0.00    -0.280 F  
HETATM    6  C   UNL     1      -9.394   8.989  65.289  1.00  0.00    -0.158 A  
HETATM    7  C   UNL     1      -9.265   7.706  64.739  1.00  0.00     1.063 A  
HETATM    8  C   UNL     1     -10.510   8.403  62.777  1.00  0.00     7.556 A  
HETATM    9  C   UNL     1      -9.819   7.421  63.487  1.00  0.00     5.193 A  
BRANCH   6  10
HETATM   10  C   UNL     1      -8.861   9.271  66.639  1.00  0.00    -0.146 C  
HETATM   11  C   UNL     1      -9.049  11.760  66.350  1.00  0.00    -0.215 C  
HETATM   12  C   UNL     1      -8.690  10.516  67.137  1.00  0.00    -0.130 C  
HETATM   13  N   UNL     1      -8.210  10.683  68.442  1.00  0.00    -0.119 N  
HETATM   14  C   UNL     1      -8.171   9.623  69.352  1.00  0.00    -0.132 C  
HETATM   15  C   UNL     1      -8.422   8.111  67.471  1.00  0.00    -0.126 C  
HETATM   16  O   UNL     1      -8.122   9.808  70.571  1.00  0.00    -0.222 OA 
HETATM   17  O   UNL     1      -8.287   6.998  66.962  1.00  0.00    -0.118 OA 
HETATM   18  N   UNL     1      -8.195   8.356  68.808  1.00  0.00    -0.118 N  
BRANCH  13  19
HETATM   19  C   UNL     1      -7.857  11.998  68.991  1.00  0.00     0.138 C  
BRANCH  19  20
HETATM   20  C   UNL     1      -6.831  12.033  70.117  1.00  0.00     0.628 A  
HETATM   21  F   UNL     1      -8.617  14.322  72.093  1.00  0.00     4.168 F  
HETATM   22  C   UNL     1      -7.657  14.293  71.129  1.00  0.00     2.971 C  
HETATM   23  C   UNL     1      -6.858  13.004  71.149  1.00  0.00     2.904 A  
HETATM   24  F   UNL     1      -5.797  10.053  69.285  1.00  0.00    -0.038 F  
HETATM   25  C   UNL     1      -6.072  12.795  72.311  1.00  0.00     2.253 A  
HETATM   26  C   UNL     1      -5.928  10.961  70.260  1.00  0.00    -0.130 A  
HETATM   27  F   UNL     1      -6.859  15.373  71.368  1.00  0.00     0.798 F  
HETATM   28  F   UNL     1      -8.290  14.578  69.963  1.00  0.00     0.206 F  
HETATM   29  C   UNL     1      -5.134  10.792  71.395  1.00  0.00    -0.079 A  
HETATM   30  C   UNL     1      -5.231  11.694  72.440  1.00  0.00     0.461 A  
ENDBRANCH  19  20
ENDBRANCH  13  19
BRANCH  18  31
HETATM   31  C   UNL     1      -7.941   7.216  69.697  1.00  0.00    -0.124 C  
BRANCH  31  32
HETATM   32  C   UNL     1      -9.141   6.802  70.610  1.00  0.00    -0.155 C  
BRANCH  32  33
HETATM   33  N   UNL     1     -10.050   5.792  70.003  1.00  0.00    -0.199 NA 
HETATM   34  H   UNL     1     -10.576   6.208  69.235  1.00  0.00     0.000 HD 
BRANCH  33  35
HETATM   35  C   UNL     1      -9.398   4.564  69.558  1.00  0.00    -0.152 C  
BRANCH  35  36
HETATM   36  C   UNL     1      -8.327   4.121  70.567  1.00  0.00    -0.083 C  
BRANCH  36  37
HETATM   37  C   UNL     1      -8.578   4.645  71.982  1.00  0.00    -0.124 C  
HETATM   38  O   UNL     1      -6.815   4.830  73.614  1.00  0.00    -0.066 OA 
HETATM   39  C   UNL     1      -7.348   5.256  72.601  1.00  0.00    -0.095 C  
HETATM   40  O   UNL     1      -6.912   6.363  71.963  1.00  0.00    -0.071 OA 
ENDBRANCH  36  37
ENDBRANCH  35  36
ENDBRANCH  33  35
ENDBRANCH  32  33
BRANCH  32  41
HETATM   41  C   UNL     1     -10.001   8.001  71.023  1.00  0.00    -0.208 A  
HETATM   42  C   UNL     1     -12.115   9.204  70.913  1.00  0.00    -0.270 A  
HETATM   43  C   UNL     1     -10.269  10.163  72.125  1.00  0.00     3.974 A  
HETATM   44  C   UNL     1     -11.331   8.094  70.586  1.00  0.00    -0.256 A  
HETATM   45  C   UNL     1      -9.486   9.049  71.809  1.00  0.00    -0.245 A  
HETATM   46  C   UNL     1     -11.585  10.240  71.678  1.00  0.00     0.119 A  
ENDBRANCH  32  41
ENDBRANCH  31  32
ENDBRANCH  18  31
ENDBRANCH   6  10
ENDBRANCH   2   3
TORSDOF 11
ENDMDL
MODEL      300
REMARK 921   NORMALIZED FREE ENERGY PREDICTED BY IDOCK:   34.81 KCAL/MOL
REMARK 922        TOTAL FREE ENERGY PREDICTED BY IDOCK:   54.15 KCAL/MOL
REMARK 923 INTER-LIGAND FREE ENERGY PREDICTED BY IDOCK:   40.29 KCAL/MOL
REMARK 924 INTRA-LIGAND FREE ENERGY PREDICTED BY IDOCK:   13.86 KCAL/MOL
REMARK 927      BINDING AFFINITY PREDICTED BY RF-SCORE:    0.00 PKD
ROOT
HETATM    1  C   UNL     1      -8.302  20.010  68.138  1.00  0.00    -0.175 C  
HETATM    2  O   UNL     1      -8.792  20.242  69.463  1.00  0.00     0.482 OA 
ENDROOT
BRANCH   2   3
HETATM    3  C   UNL     1      -9.448  19.180  70.027  1.00  0.00     0.891 A  
HETATM    4  C   UNL     1      -9.882  18.166  69.162  1.00  0.00    -0.153 A  
HETATM    5  F   UNL     1      -9.648  18.278  67.842  1.00  0.00    -0.266 F  
HETATM    6  C   UNL     1     -10.544  17.032  69.652  1.00  0.00    -0.087 A  
HETATM    7  C   UNL     1     -10.798  16.934  71.027  1.00  0.00     0.878 A  
HETATM    8  C   UNL     1      -9.725  19.078  71.395  1.00  0.00     3.921 A  
HETATM    9  C   UNL     1     -10.392  17.957  71.890  1.00  0.00     4.528 A  
BRANCH   6  10
HETATM   10  C   UNL     1     -10.919  15.922  68.750  1.00  0.00    -0.301 C  
HETATM   11  C   UNL     1     -12.450  14.872  70.443  1.00  0.00    -0.403 C  
HETATM   12  C   UNL     1     -11.773  14.931  69.089  1.00  0.00    -0.309 C  
HETATM   13  N   UNL     1     -12.095  13.940  68.153  1.00  0.00    -0.342 N  
HETATM   14  C   UNL     1     -11.797  14.086  66.795  1.00  0.00    -0.424 C  
HETATM   15  C   UNL     1     -10.258  15.859  67.412  1.00  0.00    -0.270 C  
HETATM   16  O   UNL     1     -12.384  13.441  65.922  1.00  0.00    -0.434 OA 
HETATM   17  O   UNL     1      -9.274  16.559  67.171  1.00  0.00    -0.209 OA 
HETATM   18  N   UNL     1     -10.811  15.000  66.486  1.00  0.00    -0.316 N  
BRANCH  13  19
HETATM   19  C   UNL     1     -12.891  12.756  68.498  1.00  0.00     1.791 C  
BRANCH  19  20
HETATM   20  C   UNL     1     -12.143  11.544  69.040  1.00  0.00    -0.303 A  
HETATM   21  F   UNL     1      -9.810  11.424  66.417  1.00  0.00    -0.212 F  
HETATM   22  C   UNL     1     -11.022  10.915  66.767  1.00  0.00    -0.185 C  
HETATM   23  C   UNL     1     -11.196  10.821  68.271  1.00  0.00    -0.358 A  
HETATM   24  F   UNL     1     -13.170  11.817  71.173  1.00  0.00    -0.371 F  
HETATM   25  C   UNL     1     -10.329   9.911  68.927  1.00  0.00    -0.221 A  
HETATM   26  C   UNL     1     -12.243  11.228  70.409  1.00  0.00    -0.365 A  
HETATM   27  F   UNL     1     -11.089   9.684  66.184  1.00  0.00     0.085 F  
HETATM   28  F   UNL     1     -11.945  11.663  66.111  1.00  0.00    -0.269 F  
HETATM   29  C   UNL     1     -11.405  10.301  71.029  1.00  0.00    -0.306 A  
HETATM   30  C   UNL     1     -10.421   9.664  70.293  1.00  0.00    -0.338 A  
ENDBRANCH  19  20
ENDBRANCH  13  19
BRANCH  18  31
HETATM   31  C   UNL     1     -10.310  15.040  65.107  1.00  0.00    -0.392 C  
BRANCH  31  32
HETATM   32  C   UNL     1      -8.754  15.045  64.962  1.00  0.00     3.460 C  
BRANCH  32  33
HETATM   33  N   UNL     1      -8.265  14.648  63.614  1.00  0.00    12.687 NA 
HETATM   34  H   UNL     1      -7.247  14.696  63.580  1.00  0.00     0.000 HD 
BRANCH  33  35
HETATM   35  C   UNL     1      -8.723  13.340  63.153  1.00  0.00     7.696 C  
BRANCH  35  36
HETATM   36  C   UNL     1      -7.610  12.291  63.300  1.00  0.00     4.537 C  
BRANCH  36  37
HETATM   37  C   UNL     1      -8.114  10.854  63.159  1.00  0.00     0.106 C  
HETATM   38  O   UNL     1      -9.992  10.023  64.420  1.00  0.00    -0.265 OA 
HETATM   39  C   UNL     1      -9.573  10.714  63.504  1.00  0.00    -0.323 C  
HETATM   40  O   UNL     1     -10.396  11.385  62.669  1.00  0.00    -0.035 OA 
ENDBRANCH  36  37
ENDBRANCH  35  36
ENDBRANCH  33  35
ENDBRANCH  32  33
BRANCH  32  41
HETATM   41  C   UNL     1      -8.069  14.132  65.984  1.00  0.00     2.031 A  
HETATM   42  C   UNL     1      -7.477  13.641  68.295  1.00  0.00    -0.124 A  
HETATM   43  C   UNL     1      -6.663  12.213  66.534  1.00  0.00     0.472 A  
HETATM   44  C   UNL     1      -8.136  14.435  67.352  1.00  0.00    -0.217 A  
HETATM   45  C   UNL     1      -7.331  12.999  65.591  1.00  0.00     4.799 A  
HETATM   46  C   UNL     1      -6.737  12.533  67.887  1.00  0.00    -0.103 A  
ENDBRANCH  32  41
ENDBRANCH  31  32
ENDBRANCH  18  31
ENDBRANCH   6  10
ENDBRANCH   2   3
TORSDOF 11
ENDMDL
MODEL      301
REMARK 921   NORMALIZED FREE ENERGY PREDICTED BY IDOCK:   39.15 KCAL/MOL
REMARK 922        TOTAL FREE ENERGY PREDICTED BY IDOCK:   61.27 KCAL/MOL
REMARK 923 INTER-LIGAND FREE ENERGY PREDICTED BY IDOCK:   18.64 KCAL/MOL
REMARK 924 INTRA-LIGAND FREE ENERGY PREDICTED BY IDOCK:   42.63 KCAL/MOL
REMARK 927      BINDING AFFINITY PREDICTED BY RF-SCORE:    0.00 PKD
ROOT
HETATM    1  C   UNL     1      -7.223   3.145  68.742  1.00  0.00    -0.049 C  
HETATM    2  O   UNL     1      -5.996   3.646  69.282  1.00  0.00    -0.022 OA 
ENDROOT
BRANCH   2   3
HETATM    3  C   UNL     1      -6.032   4.959  69.671  1.00  0.00    -0.017 A  
HETATM    4  C   UNL     1      -6.702   5.856  68.826  1.00  0.00    -0.064 A  
HETATM    5  F   UNL     1      -7.263   5.401  67.692  1.00  0.00    -0.066 F  
HETATM    6  C   UNL     1      -6.807   7.215  69.153  1.00  0.00    -0.061 A  
HETATM    7  C   UNL     1      -6.203   7.680  70.330  1.00  0.00    -0.033 A  
HETATM    8  C   UNL     1      -5.418   5.441  70.832  1.00  0.00    -0.008 A  
HETATM    9  C   UNL     1      -5.510   6.794  71.160  1.00  0.00    -0.027 A  
BRANCH   6  10
HETATM   10  C   UNL     1      -7.592   8.140  68.309  1.00  0.00    -0.102 C  
HETATM   11  C   UNL     1      -5.716   8.465  66.670  1.00  0.00    -0.043 C  
HETATM   12  C   UNL     1      -7.117   8.723  67.186  1.00  0.00    -0.075 C  
HETATM   13  N   UNL     1      -7.949   9.560  66.431  1.00  0.00    -0.110 N  
HETATM   14  C   UNL     1      -9.332   9.595  66.629  1.00  0.00    -0.156 C  
HETATM   15  C   UNL     1      -8.967   8.504  68.766  1.00  0.00    -0.139 C  
HETATM   16  O   UNL     1     -10.107  10.010  65.764  1.00  0.00    -0.273 OA 
HETATM   17  O   UNL     1      -9.332   8.235  69.911  1.00  0.00    -0.157 OA 
HETATM   18  N   UNL     1      -9.781   9.132  67.848  1.00  0.00    -0.150 N  
BRANCH  13  19
HETATM   19  C   UNL     1      -7.456  10.343  65.291  1.00  0.00    -0.113 C  
BRANCH  19  20
HETATM   20  C   UNL     1      -8.444  10.642  64.169  1.00  0.00    -0.063 A  
HETATM   21  F   UNL     1     -10.515   7.886  64.841  1.00  0.00     2.673 F  
HETATM   22  C   UNL     1      -9.442   8.232  64.079  1.00  0.00     2.137 C  
HETATM   23  C   UNL     1      -9.424   9.711  63.744  1.00  0.00     0.080 A  
HETATM   24  F   UNL     1      -7.584  12.854  63.951  1.00  0.00     5.958 F  
HETATM   25  C   UNL     1     -10.489  10.160  62.922  1.00  0.00     1.366 A  
HETATM   26  C   UNL     1      -8.524  11.949  63.651  1.00  0.00     1.423 A  
HETATM   27  F   UNL     1      -9.531   7.470  62.950  1.00  0.00     1.205 F  
HETATM   28  F   UNL     1      -8.352   7.760  64.733  1.00  0.00    -0.147 F  
HETATM   29  C   UNL     1      -9.558  12.363  62.812  1.00  0.00     1.626 A  
HETATM   30  C   UNL     1     -10.564  11.475  62.472  1.00  0.00     0.793 A  
ENDBRANCH  19  20
ENDBRANCH  13  19
BRANCH  18  31
HETATM   31  C   UNL     1     -11.193   9.341  68.192  1.00  0.00     0.280 C  
BRANCH  31  32
HETATM   32  C   UNL     1     -11.499  10.655  68.983  1.00  0.00    -0.274 C  
BRANCH  32  33
HETATM   33  N   UNL     1     -10.294  11.467  69.305  1.00  0.00    -0.419 NA 
HETATM   34  H   UNL     1      -9.496  11.147  68.756  1.00  0.00     0.000 HD 
BRANCH  33  35
HETATM   35  C   UNL     1     -10.464  12.909  69.154  1.00  0.00     0.122 C  
BRANCH  35  36
HETATM   36  C   UNL     1     -11.464  13.450  70.186  1.00  0.00    -0.059 C  
BRANCH  36  37
HETATM   37  C   UNL     1     -11.937  12.389  71.181  1.00  0.00     0.383 C  
HETATM   38  O   UNL     1     -14.170  12.385  72.088  1.00  0.00     0.123 OA 
HETATM   39  C   UNL     1     -13.428  12.179  71.140  1.00  0.00     0.574 C  
HETATM   40  O   UNL     1     -13.875  11.684  69.965  1.00  0.00     2.473 OA 
ENDBRANCH  36  37
ENDBRANCH  35  36
ENDBRANCH  33  35
ENDBRANCH  32  33
BRANCH  32  41
HETATM   41  C   UNL     1     -12.234  10.386  70.300  1.00  0.00    -0.349 A  
HETATM   42  C   UNL     1     -13.555   8.894  71.699  1.00  0.00    -0.432 A  
HETATM   43  C   UNL     1     -13.085  11.127  72.465  1.00  0.00     0.700 A  
HETATM   44  C   UNL     1     -12.839   9.140  70.524  1.00  0.00     0.399 A  
HETATM   45  C   UNL     1     -12.358  11.373  71.296  1.00  0.00    -0.344 A  
HETATM   46  C   UNL     1     -13.682   9.887  72.667  1.00  0.00     0.084 A  
ENDBRANCH  32  41
ENDBRANCH  31  32
ENDBRANCH  18  31
ENDBRANCH   6  10
ENDBRANCH   2   3
TORSDOF 11
ENDMDL
MODEL      302
REMARK 921   NORMALIZED FREE ENERGY PREDICTED BY IDOCK:   40.80 KCAL/MOL
REMARK 922        TOTAL FREE ENERGY PREDICTED BY IDOCK:   63.97 KCAL/MOL
REMARK 923 INTER-LIGAND FREE ENERGY PREDICTED BY IDOCK:   41.00 KCAL/MOL
REMARK 924 INTRA-LIGAND FREE ENERGY PREDICTED BY IDOCK:   22.98 KCAL/MOL
REMARK 927      BINDING AFFINITY PREDICTED BY RF-SCORE:    0.00 PKD
ROOT
HETATM    1  C   UNL     1      -5.550  18.877  63.249  1.00  0.00     0.093 C  
HETATM    2  O   UNL     1      -6.292  19.926  63.880  1.00  0.00    -0.291 OA 
ENDROOT
BRANCH   2   3
HETATM    3  C   UNL     1      -6.340  19.855  65.247  1.00  0.00    -0.261 A  
HETATM    4  C   UNL     1      -7.394  19.123  65.811  1.00  0.00    -0.218 A  
HETATM    5  F   UNL     1      -8.298  18.539  65.005  1.00  0.00     1.106 F  
HETATM    6  C   UNL     1      -7.511  18.979  67.200  1.00  0.00    -0.240 A  
HETATM    7  C   UNL     1      -6.572  19.607  68.031  1.00  0.00    -0.283 A  
HETATM    8  C   UNL     1      -5.421  20.493  66.088  1.00  0.00    -0.211 A  
HETATM    9  C   UNL     1      -5.537  20.362  67.473  1.00  0.00    -0.213 A  
BRANCH   6  10
HETATM   10  C   UNL     1      -8.569  18.131  67.789  1.00  0.00    -0.258 C  
HETATM   11  C   UNL     1      -9.448  19.983  69.241  1.00  0.00     0.065 C  
HETATM   12  C   UNL     1      -9.451  18.561  68.718  1.00  0.00    -0.305 C  
HETATM   13  N   UNL     1     -10.442  17.692  69.192  1.00  0.00    -0.256 N  
HETATM   14  C   UNL     1     -10.739  16.491  68.542  1.00  0.00    -0.336 C  
HETATM   15  C   UNL     1      -8.618  16.694  67.381  1.00  0.00    -0.189 C  
HETATM   16  O   UNL     1     -11.817  15.912  68.697  1.00  0.00    -0.388 OA 
HETATM   17  O   UNL     1      -7.674  16.190  66.771  1.00  0.00    -0.225 OA 
HETATM   18  N   UNL     1      -9.757  15.993  67.711  1.00  0.00    -0.220 N  
BRANCH  13  19
HETATM   19  C   UNL     1     -11.332  18.042  70.306  1.00  0.00     3.386 C  
BRANCH  19  20
HETATM   20  C   UNL     1     -10.683  18.560  71.584  1.00  0.00     3.277 A  
HETATM   21  F   UNL     1      -7.764  19.707  70.005  1.00  0.00    -0.111 F  
HETATM   22  C   UNL     1      -8.256  18.600  70.624  1.00  0.00     3.794 C  
HETATM   23  C   UNL     1      -9.319  18.939  71.652  1.00  0.00     6.061 A  
HETATM   24  F   UNL     1     -12.771  18.455  72.730  1.00  0.00     5.512 F  
HETATM   25  C   UNL     1      -8.868  19.688  72.768  1.00  0.00     4.357 A  
HETATM   26  C   UNL     1     -11.494  18.856  72.697  1.00  0.00     5.445 A  
HETATM   27  F   UNL     1      -7.182  17.994  71.206  1.00  0.00     3.018 F  
HETATM   28  F   UNL     1      -8.639  17.757  69.633  1.00  0.00     0.264 F  
HETATM   29  C   UNL     1     -11.022  19.561  73.804  1.00  0.00     4.945 A  
HETATM   30  C   UNL     1      -9.713  20.009  73.826  1.00  0.00     5.511 A  
ENDBRANCH  19  20
ENDBRANCH  13  19
BRANCH  18  31
HETATM   31  C   UNL     1      -9.926  14.637  67.174  1.00  0.00    -0.240 C  
BRANCH  31  32
HETATM   32  C   UNL     1      -9.822  13.485  68.225  1.00  0.00    -0.233 C  
BRANCH  32  33
HETATM   33  N   UNL     1     -10.022  12.123  67.659  1.00  0.00    -0.194 NA 
HETATM   34  H   UNL     1     -10.140  12.176  66.648  1.00  0.00     0.000 HD 
BRANCH  33  35
HETATM   35  C   UNL     1      -8.982  11.156  67.995  1.00  0.00    -0.149 C  
BRANCH  35  36
HETATM   36  C   UNL     1      -9.521  10.092  68.964  1.00  0.00    -0.190 C  
BRANCH  36  37
HETATM   37  C   UNL     1      -9.870   8.772  68.275  1.00  0.00    -0.185 C  
HETATM   38  O   UNL     1     -10.522   8.667  65.957  1.00  0.00     0.181 OA 
HETATM   39  C   UNL     1      -9.638   8.814  66.787  1.00  0.00    -0.206 C  
HETATM   40  O   UNL     1      -8.342   8.978  66.444  1.00  0.00    -0.112 OA 
ENDBRANCH  36  37
ENDBRANCH  35  36
ENDBRANCH  33  35
ENDBRANCH  32  33
BRANCH  32  41
HETATM   41  C   UNL     1     -10.818  13.653  69.377  1.00  0.00    -0.054 A  
HETATM   42  C   UNL     1     -11.423  14.692  71.494  1.00  0.00    -0.072 A  
HETATM   43  C   UNL     1     -12.864  13.012  70.546  1.00  0.00     0.009 A  
HETATM   44  C   UNL     1     -10.550  14.562  70.411  1.00  0.00     0.377 A  
HETATM   45  C   UNL     1     -11.998  12.888  69.456  1.00  0.00    -0.346 A  
HETATM   46  C   UNL     1     -12.578  13.916  71.564  1.00  0.00    -0.419 A  
ENDBRANCH  32  41
ENDBRANCH  31  32
ENDBRANCH  18  31
ENDBRANCH   6  10
ENDBRANCH   2   3
TORSDOF 11
ENDMDL
MODEL      303
REMARK 921   NORMALIZED FREE ENERGY PREDICTED BY IDOCK:   43.91 KCAL/MOL
REMARK 922        TOTAL FREE ENERGY PREDICTED BY IDOCK:   69.08 KCAL/MOL
REMARK 923 INTER-LIGAND FREE ENERGY PREDICTED BY IDOCK:   40.24 KCAL/MOL
REMARK 924 INTRA-LIGAND FREE ENERGY PREDICTED BY IDOCK:   28.84 KCAL/MOL
REMARK 927      BINDING AFFINITY PREDICTED BY RF-SCORE:    0.00 PKD
ROOT
HETATM    1  C   UNL     1     -14.137   3.514  70.533  1.00  0.00    21.444 C  
HETATM    2  O   UNL     1     -13.590   4.610  69.792  1.00  0.00    16.953 OA 
ENDROOT
BRANCH   2   3
HETATM    3  C   UNL     1     -13.136   5.652  70.556  1.00  0.00     5.355 A  
HETATM    4  C   UNL     1     -12.103   6.433  70.020  1.00  0.00     0.278 A  
HETATM    5  F   UNL     1     -11.608   6.130  68.806  1.00  0.00    -0.417 F  
HETATM    6  C   UNL     1     -11.588   7.532  70.721  1.00  0.00    -0.300 A  
HETATM    7  C   UNL     1     -12.100   7.827  71.993  1.00  0.00    -0.351 A  
HETATM    8  C   UNL     1     -13.624   5.946  71.834  1.00  0.00     1.175 A  
HETATM    9  C   UNL     1     -13.110   7.032  72.543  1.00  0.00     0.471 A  
BRANCH   6  10
HETATM   10  C   UNL     1     -10.564   8.408  70.115  1.00  0.00    -0.235 C  
HETATM   11  C   UNL     1     -12.271   9.994  69.174  1.00  0.00     0.648 C  
HETATM   12  C   UNL     1     -10.850   9.523  69.405  1.00  0.00    -0.206 C  
HETATM   13  N   UNL     1      -9.809  10.310  68.898  1.00  0.00    -0.185 N  
HETATM   14  C   UNL     1      -8.490  10.154  69.333  1.00  0.00    -0.171 C  
HETATM   15  C   UNL     1      -9.133   7.996  70.237  1.00  0.00    -0.148 C  
HETATM   16  O   UNL     1      -7.647  11.047  69.204  1.00  0.00    -0.125 OA 
HETATM   17  O   UNL     1      -8.845   6.860  70.615  1.00  0.00    -0.148 OA 
HETATM   18  N   UNL     1      -8.185   8.945  69.921  1.00  0.00    -0.111 N  
BRANCH  13  19
HETATM   19  C   UNL     1     -10.043  11.443  67.994  1.00  0.00    -0.180 C  
BRANCH  19  20
HETATM   20  C   UNL     1     -10.698  12.686  68.585  1.00  0.00    -0.269 A  
HETATM   21  F   UNL     1     -10.820  14.445  65.548  1.00  0.00    -0.290 F  
HETATM   22  C   UNL     1     -10.012  14.274  66.631  1.00  0.00    -0.275 C  
HETATM   23  C   UNL     1     -10.792  13.911  67.880  1.00  0.00    -0.256 A  
HETATM   24  F   UNL     1     -11.295  11.479  70.552  1.00  0.00    -0.299 F  
HETATM   25  C   UNL     1     -11.669  14.916  68.361  1.00  0.00    -0.336 A  
HETATM   26  C   UNL     1     -11.405  12.580  69.799  1.00  0.00    -0.040 A  
HETATM   27  F   UNL     1      -9.349  15.455  66.787  1.00  0.00    -0.210 F  
HETATM   28  F   UNL     1      -9.060  13.387  66.249  1.00  0.00    -0.219 F  
HETATM   29  C   UNL     1     -12.234  13.595  70.276  1.00  0.00    -0.423 A  
HETATM   30  C   UNL     1     -12.394  14.755  69.538  1.00  0.00    -0.214 A  
ENDBRANCH  19  20
ENDBRANCH  13  19
BRANCH  18  31
HETATM   31  C   UNL     1      -6.775   8.646  70.201  1.00  0.00    -0.039 C  
BRANCH  31  32
HETATM   32  C   UNL     1      -6.077   7.700  69.170  1.00  0.00    -0.034 C  
BRANCH  32  33
HETATM   33  N   UNL     1      -6.648   7.765  67.798  1.00  0.00    -0.058 NA 
HETATM   34  H   UNL     1      -6.723   6.829  67.402  1.00  0.00     0.000 HD 
BRANCH  33  35
HETATM   35  C   UNL     1      -7.929   8.459  67.695  1.00  0.00    -0.110 C  
BRANCH  35  36
HETATM   36  C   UNL     1      -7.741   9.975  67.861  1.00  0.00    -0.090 C  
BRANCH  36  37
HETATM   37  C   UNL     1      -6.308  10.437  67.594  1.00  0.00    -0.057 C  
HETATM   38  O   UNL     1      -5.292  12.243  68.825  1.00  0.00    -0.050 OA 
HETATM   39  C   UNL     1      -5.673  11.083  68.798  1.00  0.00    -0.039 C  
HETATM   40  O   UNL     1      -5.510  10.242  69.843  1.00  0.00    -0.037 OA 
ENDBRANCH  36  37
ENDBRANCH  35  36
ENDBRANCH  33  35
ENDBRANCH  32  33
BRANCH  32  41
HETATM   41  C   UNL     1      -6.109   6.232  69.609  1.00  0.00    -0.026 A  
HETATM   42  C   UNL     1      -6.402   3.880  69.050  1.00  0.00    -0.029 A  
HETATM   43  C   UNL     1      -6.061   4.518  71.347  1.00  0.00    -0.018 A  
HETATM   44  C   UNL     1      -6.321   5.220  68.661  1.00  0.00    -0.035 A  
HETATM   45  C   UNL     1      -5.968   5.857  70.959  1.00  0.00    -0.029 A  
HETATM   46  C   UNL     1      -6.276   3.529  70.392  1.00  0.00    -0.023 A  
ENDBRANCH  32  41
ENDBRANCH  31  32
ENDBRANCH  18  31
ENDBRANCH   6  10
ENDBRANCH   2   3
TORSDOF 11
ENDMDL
MODEL      304
REMARK 921   NORMALIZED FREE ENERGY PREDICTED BY IDOCK:   47.10 KCAL/MOL
REMARK 922        TOTAL FREE ENERGY PREDICTED BY IDOCK:   74.33 KCAL/MOL
REMARK 923 INTER-LIGAND FREE ENERGY PREDICTED BY IDOCK:   40.04 KCAL/MOL
REMARK 924 INTRA-LIGAND FREE ENERGY PREDICTED BY IDOCK:   34.29 KCAL/MOL
REMARK 927      BINDING AFFINITY PREDICTED BY RF-SCORE:    0.00 PKD
ROOT
HETATM    1  C   UNL     1     -14.068   5.732  68.625  1.00  0.00    21.236 C  
HETATM    2  O   UNL     1     -14.001   5.724  70.055  1.00  0.00     6.905 OA 
ENDROOT
BRANCH   2   3
HETATM    3  C   UNL     1     -13.035   6.534  70.590  1.00  0.00     0.876 A  
HETATM    4  C   UNL     1     -12.154   7.155  69.693  1.00  0.00     0.569 A  
HETATM    5  F   UNL     1     -12.287   6.929  68.374  1.00  0.00     1.153 F  
HETATM    6  C   UNL     1     -11.147   8.016  70.149  1.00  0.00    -0.191 A  
HETATM    7  C   UNL     1     -11.007   8.230  71.527  1.00  0.00    -0.312 A  
HETATM    8  C   UNL     1     -12.871   6.740  71.965  1.00  0.00    -0.191 A  
HETATM    9  C   UNL     1     -11.865   7.589  72.427  1.00  0.00    -0.305 A  
BRANCH   6  10
HETATM   10  C   UNL     1     -10.280   8.741  69.196  1.00  0.00    -0.215 C  
HETATM   11  C   UNL     1      -9.032   6.665  68.529  1.00  0.00    -0.120 C  
HETATM   12  C   UNL     1      -9.312   8.153  68.459  1.00  0.00    -0.138 C  
HETATM   13  N   UNL     1      -8.563   8.917  67.556  1.00  0.00    -0.120 N  
HETATM   14  C   UNL     1      -8.960  10.202  67.175  1.00  0.00    -0.135 C  
HETATM   15  C   UNL     1     -10.439  10.224  69.099  1.00  0.00    -0.224 C  
HETATM   16  O   UNL     1      -8.556  10.731  66.135  1.00  0.00    -0.157 OA 
HETATM   17  O   UNL     1     -11.092  10.835  69.945  1.00  0.00    -0.266 OA 
HETATM   18  N   UNL     1      -9.835  10.844  68.026  1.00  0.00    -0.168 N  
BRANCH  13  19
HETATM   19  C   UNL     1      -7.401   8.379  66.838  1.00  0.00    -0.083 C  
BRANCH  19  20
HETATM   20  C   UNL     1      -7.537   8.186  65.332  1.00  0.00    -0.089 A  
HETATM   21  F   UNL     1     -10.000   5.693  65.561  1.00  0.00    -0.027 F  
HETATM   22  C   UNL     1      -8.648   5.829  65.489  1.00  0.00    -0.151 C  
HETATM   23  C   UNL     1      -8.234   7.093  64.759  1.00  0.00    -0.052 A  
HETATM   24  F   UNL     1      -6.396  10.240  64.930  1.00  0.00    -0.109 F  
HETATM   25  C   UNL     1      -8.579   7.141  63.385  1.00  0.00     0.496 A  
HETATM   26  C   UNL     1      -7.125   9.218  64.466  1.00  0.00    -0.093 A  
HETATM   27  F   UNL     1      -8.198   4.715  64.842  1.00  0.00    -0.099 F  
HETATM   28  F   UNL     1      -8.191   5.703  66.760  1.00  0.00    -0.104 F  
HETATM   29  C   UNL     1      -7.442   9.230  63.107  1.00  0.00    -0.106 A  
HETATM   30  C   UNL     1      -8.200   8.204  62.570  1.00  0.00    -0.156 A  
ENDBRANCH  19  20
ENDBRANCH  13  19
BRANCH  18  31
HETATM   31  C   UNL     1     -10.116  12.265  67.789  1.00  0.00    -0.201 C  
BRANCH  31  32
HETATM   32  C   UNL     1     -10.204  13.150  69.075  1.00  0.00     0.107 C  
BRANCH  32  33
HETATM   33  N   UNL     1      -8.901  13.721  69.512  1.00  0.00     0.258 NA 
HETATM   34  H   UNL     1      -8.914  13.902  70.515  1.00  0.00     0.000 HD 
BRANCH  33  35
HETATM   35  C   UNL     1      -7.729  12.925  69.160  1.00  0.00     0.326 C  
BRANCH  35  36
HETATM   36  C   UNL     1      -6.801  12.758  70.373  1.00  0.00     1.189 C  
BRANCH  36  37
HETATM   37  C   UNL     1      -5.697  11.723  70.149  1.00  0.00    -0.145 C  
HETATM   38  O   UNL     1      -6.102   9.642  69.003  1.00  0.00    -0.041 OA 
HETATM   39  C   UNL     1      -5.952  10.853  68.947  1.00  0.00    -0.040 C  
HETATM   40  O   UNL     1      -5.948  11.528  67.777  1.00  0.00    -0.044 OA 
ENDBRANCH  36  37
ENDBRANCH  35  36
ENDBRANCH  33  35
ENDBRANCH  32  33
BRANCH  32  41
HETATM   41  C   UNL     1     -10.794  12.392  70.268  1.00  0.00     1.398 A  
HETATM   42  C   UNL     1     -11.922  12.425  72.426  1.00  0.00     3.122 A  
HETATM   43  C   UNL     1     -11.187  10.324  71.505  1.00  0.00     0.392 A  
HETATM   44  C   UNL     1     -11.421  13.096  71.307  1.00  0.00     1.832 A  
HETATM   45  C   UNL     1     -10.696  10.992  70.380  1.00  0.00     0.537 A  
HETATM   46  C   UNL     1     -11.802  11.041  72.528  1.00  0.00     3.726 A  
ENDBRANCH  32  41
ENDBRANCH  31  32
ENDBRANCH  18  31
ENDBRANCH   6  10
ENDBRANCH   2   3
TORSDOF 11
ENDMDL
MODEL      305
REMARK 921   NORMALIZED FREE ENERGY PREDICTED BY IDOCK:   58.32 KCAL/MOL
REMARK 922        TOTAL FREE ENERGY PREDICTED BY IDOCK:   92.76 KCAL/MOL
REMARK 923 INTER-LIGAND FREE ENERGY PREDICTED BY IDOCK:   54.06 KCAL/MOL
REMARK 924 INTRA-LIGAND FREE ENERGY PREDICTED BY IDOCK:   38.70 KCAL/MOL
REMARK 927      BINDING AFFINITY PREDICTED BY RF-SCORE:    0.00 PKD
ROOT
HETATM    1  C   UNL     1      -7.003   8.356  68.053  1.00  0.00    -0.081 C  
HETATM    2  O   UNL     1      -7.779   9.407  68.639  1.00  0.00    -0.083 OA 
ENDROOT
BRANCH   2   3
HETATM    3  C   UNL     1      -8.167  10.389  67.768  1.00  0.00    -0.110 A  
HETATM    4  C   UNL     1      -8.367  11.671  68.299  1.00  0.00    -0.159 A  
HETATM    5  F   UNL     1      -8.180  11.877  69.615  1.00  0.00     0.403 F  
HETATM    6  C   UNL     1      -8.746  12.743  67.480  1.00  0.00    -0.185 A  
HETATM    7  C   UNL     1      -8.956  12.512  66.113  1.00  0.00     0.069 A  
HETATM    8  C   UNL     1      -8.399  10.169  66.405  1.00  0.00    -0.125 A  
HETATM    9  C   UNL     1      -8.785  11.229  65.584  1.00  0.00    -0.078 A  
BRANCH   6  10
HETATM   10  C   UNL     1      -8.866  14.111  68.026  1.00  0.00    -0.182 C  
HETATM   11  C   UNL     1      -6.886  14.957  66.732  1.00  0.00     1.165 C  
HETATM   12  C   UNL     1      -8.033  15.126  67.708  1.00  0.00    -0.143 C  
HETATM   13  N   UNL     1      -8.248  16.399  68.250  1.00  0.00    -0.171 N  
HETATM   14  C   UNL     1      -9.450  16.737  68.879  1.00  0.00    -0.246 C  
HETATM   15  C   UNL     1      -9.932  14.364  69.042  1.00  0.00    -0.129 C  
HETATM   16  O   UNL     1      -9.810  17.909  69.018  1.00  0.00    -0.309 OA 
HETATM   17  O   UNL     1     -10.519  13.421  69.573  1.00  0.00     0.177 OA 
HETATM   18  N   UNL     1     -10.214  15.682  69.331  1.00  0.00    -0.242 N  
BRANCH  13  19
HETATM   19  C   UNL     1      -7.300  17.506  68.070  1.00  0.00    -0.208 C  
BRANCH  19  20
HETATM   20  C   UNL     1      -7.417  18.689  69.023  1.00  0.00    -0.243 A  
HETATM   21  F   UNL     1      -6.775  16.814  71.923  1.00  0.00     3.007 F  
HETATM   22  C   UNL     1      -7.817  17.242  71.158  1.00  0.00     6.839 C  
HETATM   23  C   UNL     1      -7.505  18.535  70.429  1.00  0.00     2.044 A  
HETATM   24  F   UNL     1      -7.233  20.219  67.205  1.00  0.00    -0.258 F  
HETATM   25  C   UNL     1      -7.304  19.666  71.260  1.00  0.00     1.653 A  
HETATM   26  C   UNL     1      -7.245  19.995  68.524  1.00  0.00    -0.249 A  
HETATM   27  F   UNL     1      -8.866  17.398  72.017  1.00  0.00     9.491 F  
HETATM   28  F   UNL     1      -8.162  16.189  70.375  1.00  0.00     0.784 F  
HETATM   29  C   UNL     1      -7.087  21.103  69.357  1.00  0.00     2.273 A  
HETATM   30  C   UNL     1      -7.083  20.934  70.731  1.00  0.00     2.339 A  
ENDBRANCH  19  20
ENDBRANCH  13  19
BRANCH  18  31
HETATM   31  C   UNL     1     -11.373  15.980  70.182  1.00  0.00    -0.365 C  
BRANCH  31  32
HETATM   32  C   UNL     1     -12.766  15.832  69.488  1.00  0.00     0.403 C  
BRANCH  32  33
HETATM   33  N   UNL     1     -13.488  14.577  69.831  1.00  0.00     0.223 NA 
HETATM   34  H   UNL     1     -14.240  14.772  70.491  1.00  0.00     0.000 HD 
BRANCH  33  35
HETATM   35  C   UNL     1     -14.004  13.830  68.687  1.00  0.00     8.624 C  
BRANCH  35  36
HETATM   36  C   UNL     1     -12.880  13.524  67.686  1.00  0.00     1.373 C  
BRANCH  36  37
HETATM   37  C   UNL     1     -13.388  12.929  66.372  1.00  0.00     3.130 C  
HETATM   38  O   UNL     1     -13.962  14.302  64.477  1.00  0.00     2.154 OA 
HETATM   39  C   UNL     1     -13.098  13.809  65.185  1.00  0.00    -0.083 C  
HETATM   40  O   UNL     1     -11.780  13.965  64.933  1.00  0.00    -0.337 OA 
ENDBRANCH  36  37
ENDBRANCH  35  36
ENDBRANCH  33  35
ENDBRANCH  32  33
BRANCH  32  41
HETATM   41  C   UNL     1     -12.668  15.900  67.961  1.00  0.00     1.980 A  
HETATM   42  C   UNL     1     -13.349  15.070  65.775  1.00  0.00     1.573 A  
HETATM   43  C   UNL     1     -11.652  16.772  65.919  1.00  0.00     1.255 A  
HETATM   44  C   UNL     1     -13.460  15.056  67.168  1.00  0.00     4.814 A  
HETATM   45  C   UNL     1     -11.770  16.769  67.312  1.00  0.00     0.989 A  
HETATM   46  C   UNL     1     -12.444  15.924  65.150  1.00  0.00     1.279 A  
ENDBRANCH  32  41
ENDBRANCH  31  32
ENDBRANCH  18  31
ENDBRANCH   6  10
ENDBRANCH   2   3
TORSDOF 11
ENDMDL
MODEL      306
REMARK 921   NORMALIZED FREE ENERGY PREDICTED BY IDOCK:  101.18 KCAL/MOL
REMARK 922        TOTAL FREE ENERGY PREDICTED BY IDOCK:  163.19 KCAL/MOL
REMARK 923 INTER-LIGAND FREE ENERGY PREDICTED BY IDOCK:   56.03 KCAL/MOL
REMARK 924 INTRA-LIGAND FREE ENERGY PREDICTED BY IDOCK:  107.16 KCAL/MOL
REMARK 927      BINDING AFFINITY PREDICTED BY RF-SCORE:    0.00 PKD
ROOT
HETATM    1  C   UNL     1     -14.157   3.396  70.434  1.00  0.00    22.295 C  
HETATM    2  O   UNL     1     -13.503   4.408  69.661  1.00  0.00    19.056 OA 
ENDROOT
BRANCH   2   3
HETATM    3  C   UNL     1     -12.916   5.404  70.396  1.00  0.00     7.197 A  
HETATM    4  C   UNL     1     -11.776   6.012  69.851  1.00  0.00     0.256 A  
HETATM    5  F   UNL     1     -11.314   5.597  68.658  1.00  0.00    -0.239 F  
HETATM    6  C   UNL     1     -11.121   7.053  70.522  1.00  0.00    -0.316 A  
HETATM    7  C   UNL     1     -11.603   7.464  71.773  1.00  0.00    -0.305 A  
HETATM    8  C   UNL     1     -13.374   5.811  71.654  1.00  0.00     1.789 A  
HETATM    9  C   UNL     1     -12.721   6.840  72.334  1.00  0.00     0.146 A  
BRANCH   6  10
HETATM   10  C   UNL     1      -9.977   7.754  69.904  1.00  0.00    -0.191 C  
HETATM   11  C   UNL     1     -11.418   9.588  68.970  1.00  0.00     0.234 C  
HETATM   12  C   UNL     1     -10.087   8.897  69.191  1.00  0.00    -0.197 C  
HETATM   13  N   UNL     1      -8.939   9.508  68.672  1.00  0.00    -0.131 N  
HETATM   14  C   UNL     1      -7.658   9.145  69.097  1.00  0.00    -0.073 C  
HETATM   15  C   UNL     1      -8.628   7.120  70.016  1.00  0.00    -0.141 C  
HETATM   16  O   UNL     1      -6.685   9.892  68.957  1.00  0.00    -0.052 OA 
HETATM   17  O   UNL     1      -8.520   5.954  70.396  1.00  0.00    -0.126 OA 
HETATM   18  N   UNL     1      -7.544   7.905  69.688  1.00  0.00    -0.095 N  
BRANCH  13  19
HETATM   19  C   UNL     1      -8.999  10.661  67.765  1.00  0.00    -0.140 C  
BRANCH  19  20
HETATM   20  C   UNL     1      -7.687  11.137  67.152  1.00  0.00    -0.136 A  
HETATM   21  F   UNL     1      -9.118  13.837  65.421  1.00  0.00     0.169 F  
HETATM   22  C   UNL     1      -8.802  12.525  65.243  1.00  0.00     1.027 C  
HETATM   23  C   UNL     1      -7.632  12.091  66.106  1.00  0.00     0.652 A  
HETATM   24  F   UNL     1      -6.443   9.815  68.696  1.00  0.00    -0.046 F  
HETATM   25  C   UNL     1      -6.392  12.706  65.800  1.00  0.00     4.322 A  
HETATM   26  C   UNL     1      -6.470  10.768  67.757  1.00  0.00    -0.059 A  
HETATM   27  F   UNL     1      -8.515  12.390  63.917  1.00  0.00     1.302 F  
HETATM   28  F   UNL     1      -9.957  11.836  65.422  1.00  0.00    -0.244 F  
HETATM   29  C   UNL     1      -5.252  11.357  67.416  1.00  0.00    -0.054 A  
HETATM   30  C   UNL     1      -5.216  12.354  66.457  1.00  0.00     0.725 A  
ENDBRANCH  19  20
ENDBRANCH  13  19
BRANCH  18  31
HETATM   31  C   UNL     1      -6.197   7.386  69.957  1.00  0.00    -0.027 C  
BRANCH  31  32
HETATM   32  C   UNL     1      -5.618   6.434  68.861  1.00  0.00    -0.016 C  
BRANCH  32  33
HETATM   33  N   UNL     1      -6.223   6.615  67.514  1.00  0.00    -0.037 NA 
HETATM   34  H   UNL     1      -6.203   5.736  66.997  1.00  0.00     0.000 HD 
BRANCH  33  35
HETATM   35  C   UNL     1      -7.575   7.167  67.514  1.00  0.00    -0.110 C  
BRANCH  35  36
HETATM   36  C   UNL     1      -7.836   7.964  68.801  1.00  0.00    -0.118 C  
BRANCH  36  37
HETATM   37  C   UNL     1      -6.558   8.313  69.565  1.00  0.00    -0.038 C  
HETATM   38  O   UNL     1      -6.427   8.203  71.968  1.00  0.00    -0.050 OA 
HETATM   39  C   UNL     1      -6.469   7.617  70.897  1.00  0.00    -0.038 C  
HETATM   40  O   UNL     1      -6.384   6.272  70.804  1.00  0.00    -0.037 OA 
ENDBRANCH  36  37
ENDBRANCH  35  36
ENDBRANCH  33  35
ENDBRANCH  32  33
BRANCH  32  41
HETATM   41  C   UNL     1      -5.766   4.955  69.234  1.00  0.00    -0.016 A  
HETATM   42  C   UNL     1      -6.269   2.665  68.576  1.00  0.00    -0.029 A  
HETATM   43  C   UNL     1      -5.829   3.163  70.891  1.00  0.00    -0.014 A  
HETATM   44  C   UNL     1      -6.082   4.010  68.246  1.00  0.00    -0.031 A  
HETATM   45  C   UNL     1      -5.630   4.507  70.561  1.00  0.00    -0.012 A  
HETATM   46  C   UNL     1      -6.146   2.241  69.897  1.00  0.00    -0.024 A  
ENDBRANCH  32  41
ENDBRANCH  31  32
ENDBRANCH  18  31
ENDBRANCH   6  10
ENDBRANCH   2   3
TORSDOF 11
ENDMDL
