MODEL        1
REMARK 921   NORMALIZED FREE ENERGY PREDICTED BY IDOCK:   -7.21 KCAL/MOL
REMARK 922        TOTAL FREE ENERGY PREDICTED BY IDOCK:  -11.32 KCAL/MOL
REMARK 923 INTER-LIGAND FREE ENERGY PREDICTED BY IDOCK:   -9.74 KCAL/MOL
REMARK 924 INTRA-LIGAND FREE ENERGY PREDICTED BY IDOCK:   -1.58 KCAL/MOL
REMARK 927      BINDING AFFINITY PREDICTED BY RF-SCORE:    0.00 PKD
ROOT
HETATM    1  C   UNL     1      -9.432   9.475  70.387  1.00  0.00    -0.262 C  
HETATM    2  N   UNL     1     -10.842   9.096  70.370  1.00  0.00    -0.230 NA 
HETATM    3  C   UNL     1     -11.014   7.705  70.806  1.00  0.00    -0.252 C  
HETATM    4  C   UNL     1     -12.431   7.662  71.334  1.00  0.00    -0.359 C  
HETATM    5  C   UNL     1     -12.569   8.995  72.040  1.00  0.00    -0.464 C  
HETATM    6  C   UNL     1     -11.677   9.957  71.242  1.00  0.00    -0.392 C  
ENDROOT
BRANCH   6   7
HETATM    7  C   UNL     1     -12.488  10.961  70.382  1.00  0.00    -0.411 C  
BRANCH   7   8
HETATM    8  C   UNL     1     -12.832  12.241  71.098  1.00  0.00    -0.302 A  
HETATM    9  C   UNL     1     -13.615  12.374  72.229  1.00  0.00    -0.269 A  
HETATM   10  N   UNL     1     -13.590  13.688  72.623  1.00  0.00    -0.693 NA 
HETATM   11  C   UNL     1     -12.785  14.419  71.781  1.00  0.00    -0.351 A  
HETATM   12  H   UNL     1     -14.095  14.067  73.424  1.00  0.00     0.000 HD 
HETATM   13  C   UNL     1     -12.361  13.551  70.780  1.00  0.00    -0.440 A  
HETATM   14  C   UNL     1     -11.544  14.060  69.754  1.00  0.00    -0.344 A  
HETATM   15  C   UNL     1     -11.078  15.381  69.789  1.00  0.00    -0.295 A  
HETATM   16  C   UNL     1     -11.499  16.211  70.838  1.00  0.00    -0.421 A  
HETATM   17  C   UNL     1     -12.383  15.758  71.831  1.00  0.00    -0.533 A  
BRANCH  15  18
HETATM   18  C   UNL     1     -10.035  15.867  68.801  1.00  0.00    -0.220 C  
BRANCH  18  19
HETATM   19  C   UNL     1     -10.611  16.595  67.593  1.00  0.00    -0.321 C  
BRANCH  19  20
HETATM   20  S   UNL     1      -9.998  15.941  66.057  1.00  0.00    -0.360 S  
HETATM   21  O   UNL     1      -8.551  16.011  66.077  1.00  0.00    -0.322 OA 
HETATM   22  O   UNL     1     -10.766  16.509  64.971  1.00  0.00    -0.662 OA 
BRANCH  20  23
HETATM   23  C   UNL     1     -10.449  14.222  66.201  1.00  0.00    -0.292 A  
HETATM   24  C   UNL     1      -9.449  13.269  66.423  1.00  0.00    -0.225 A  
HETATM   25  C   UNL     1      -9.795  11.921  66.494  1.00  0.00    -0.225 A  
HETATM   26  C   UNL     1     -11.128  11.531  66.350  1.00  0.00    -0.328 A  
HETATM   27  C   UNL     1     -12.123  12.488  66.144  1.00  0.00    -0.357 A  
HETATM   28  C   UNL     1     -11.788  13.842  66.072  1.00  0.00    -0.415 A  
ENDBRANCH  20  23
ENDBRANCH  19  20
ENDBRANCH  18  19
ENDBRANCH  15  18
ENDBRANCH   7   8
ENDBRANCH   6   7
TORSDOF 6
ENDMDL
MODEL        2
REMARK 921   NORMALIZED FREE ENERGY PREDICTED BY IDOCK:   -7.13 KCAL/MOL
REMARK 922        TOTAL FREE ENERGY PREDICTED BY IDOCK:  -11.21 KCAL/MOL
REMARK 923 INTER-LIGAND FREE ENERGY PREDICTED BY IDOCK:   -9.35 KCAL/MOL
REMARK 924 INTRA-LIGAND FREE ENERGY PREDICTED BY IDOCK:   -1.86 KCAL/MOL
REMARK 927      BINDING AFFINITY PREDICTED BY RF-SCORE:    0.00 PKD
ROOT
HETATM    1  C   UNL     1     -10.747   7.183  67.725  1.00  0.00    -0.212 C  
HETATM    2  N   UNL     1     -10.137   8.510  67.748  1.00  0.00    -0.198 NA 
HETATM    3  C   UNL     1      -9.771   8.941  66.394  1.00  0.00    -0.262 C  
HETATM    4  C   UNL     1      -9.772  10.451  66.481  1.00  0.00    -0.241 C  
HETATM    5  C   UNL     1     -10.960  10.737  67.374  1.00  0.00    -0.361 C  
HETATM    6  C   UNL     1     -11.031   9.540  68.332  1.00  0.00    -0.069 C  
ENDROOT
BRANCH   6   7
HETATM    7  C   UNL     1     -10.574   9.889  69.772  1.00  0.00    -0.296 C  
BRANCH   7   8
HETATM    8  C   UNL     1     -11.683  10.387  70.661  1.00  0.00    -0.444 A  
HETATM    9  C   UNL     1     -12.383   9.658  71.602  1.00  0.00    -0.404 A  
HETATM   10  N   UNL     1     -13.229  10.508  72.270  1.00  0.00    -0.577 NA 
HETATM   11  C   UNL     1     -13.081  11.791  71.798  1.00  0.00    -0.375 A  
HETATM   12  H   UNL     1     -13.874  10.228  73.009  1.00  0.00     0.000 HD 
HETATM   13  C   UNL     1     -12.175  11.726  70.743  1.00  0.00    -0.424 A  
HETATM   14  C   UNL     1     -11.870  12.910  70.049  1.00  0.00    -0.356 A  
HETATM   15  C   UNL     1     -12.379  14.147  70.470  1.00  0.00    -0.434 A  
HETATM   16  C   UNL     1     -13.259  14.171  71.561  1.00  0.00    -0.423 A  
HETATM   17  C   UNL     1     -13.651  12.995  72.222  1.00  0.00    -0.643 A  
BRANCH  15  18
HETATM   18  C   UNL     1     -11.889  15.443  69.854  1.00  0.00    -0.373 C  
BRANCH  18  19
HETATM   19  C   UNL     1     -12.154  15.563  68.359  1.00  0.00     0.044 C  
BRANCH  19  20
HETATM   20  S   UNL     1     -10.653  15.522  67.405  1.00  0.00    -0.295 S  
HETATM   21  O   UNL     1      -9.624  14.885  68.200  1.00  0.00    -0.202 OA 
HETATM   22  O   UNL     1     -10.447  16.824  66.809  1.00  0.00    -0.301 OA 
BRANCH  20  23
HETATM   23  C   UNL     1     -11.095  14.390  66.100  1.00  0.00    -0.330 A  
HETATM   24  C   UNL     1     -12.413  13.930  66.012  1.00  0.00    -0.501 A  
HETATM   25  C   UNL     1     -12.750  13.013  65.018  1.00  0.00    -0.475 A  
HETATM   26  C   UNL     1     -11.781  12.567  64.118  1.00  0.00    -0.471 A  
HETATM   27  C   UNL     1     -10.470  13.042  64.201  1.00  0.00    -0.395 A  
HETATM   28  C   UNL     1     -10.121  13.962  65.192  1.00  0.00    -0.330 A  
ENDBRANCH  20  23
ENDBRANCH  19  20
ENDBRANCH  18  19
ENDBRANCH  15  18
ENDBRANCH   7   8
ENDBRANCH   6   7
TORSDOF 6
ENDMDL
MODEL        3
REMARK 921   NORMALIZED FREE ENERGY PREDICTED BY IDOCK:   -7.03 KCAL/MOL
REMARK 922        TOTAL FREE ENERGY PREDICTED BY IDOCK:  -11.07 KCAL/MOL
REMARK 923 INTER-LIGAND FREE ENERGY PREDICTED BY IDOCK:  -10.11 KCAL/MOL
REMARK 924 INTRA-LIGAND FREE ENERGY PREDICTED BY IDOCK:   -0.96 KCAL/MOL
REMARK 927      BINDING AFFINITY PREDICTED BY RF-SCORE:    0.00 PKD
ROOT
HETATM    1  C   UNL     1     -10.636   7.710  67.301  1.00  0.00    -0.318 C  
HETATM    2  N   UNL     1     -10.131   9.073  67.435  1.00  0.00    -0.212 NA 
HETATM    3  C   UNL     1      -9.842   9.655  66.119  1.00  0.00    -0.265 C  
HETATM    4  C   UNL     1      -9.958  11.146  66.347  1.00  0.00    -0.257 C  
HETATM    5  C   UNL     1     -11.137  11.252  67.291  1.00  0.00    -0.367 C  
HETATM    6  C   UNL     1     -11.084   9.970  68.134  1.00  0.00    -0.193 C  
ENDROOT
BRANCH   6   7
HETATM    7  C   UNL     1     -10.611  10.221  69.590  1.00  0.00    -0.288 C  
BRANCH   7   8
HETATM    8  C   UNL     1     -11.720  10.598  70.536  1.00  0.00    -0.451 A  
HETATM    9  C   UNL     1     -12.371   9.766  71.425  1.00  0.00    -0.388 A  
HETATM   10  N   UNL     1     -13.236  10.522  72.176  1.00  0.00    -0.573 NA 
HETATM   11  C   UNL     1     -13.149  11.845  71.809  1.00  0.00    -0.360 A  
HETATM   12  H   UNL     1     -13.854  10.156  72.901  1.00  0.00     0.000 HD 
HETATM   13  C   UNL     1     -12.264  11.904  70.738  1.00  0.00    -0.401 A  
HETATM   14  C   UNL     1     -12.020  13.153  70.139  1.00  0.00    -0.381 A  
HETATM   15  C   UNL     1     -12.570  14.329  70.670  1.00  0.00    -0.424 A  
HETATM   16  C   UNL     1     -13.427  14.227  71.775  1.00  0.00    -0.464 A  
HETATM   17  C   UNL     1     -13.758  12.985  72.342  1.00  0.00    -0.593 A  
BRANCH  15  18
HETATM   18  C   UNL     1     -12.144  15.690  70.155  1.00  0.00    -0.400 C  
BRANCH  18  19
HETATM   19  C   UNL     1     -10.676  15.775  69.754  1.00  0.00    -0.316 C  
BRANCH  19  20
HETATM   20  S   UNL     1     -10.458  15.741  67.989  1.00  0.00    -0.278 S  
HETATM   21  O   UNL     1     -11.673  15.227  67.390  1.00  0.00    -0.268 OA 
HETATM   22  O   UNL     1      -9.167  15.161  67.693  1.00  0.00    -0.179 OA 
BRANCH  20  23
HETATM   23  C   UNL     1     -10.372  17.481  67.610  1.00  0.00    -0.360 A  
HETATM   24  C   UNL     1     -10.469  17.896  66.278  1.00  0.00    -0.320 A  
HETATM   25  C   UNL     1     -10.360  19.252  65.975  1.00  0.00    -0.556 A  
HETATM   26  C   UNL     1     -10.163  20.183  66.996  1.00  0.00    -0.558 A  
HETATM   27  C   UNL     1     -10.083  19.765  68.326  1.00  0.00    -0.575 A  
HETATM   28  C   UNL     1     -10.191  18.409  68.640  1.00  0.00    -0.370 A  
ENDBRANCH  20  23
ENDBRANCH  19  20
ENDBRANCH  18  19
ENDBRANCH  15  18
ENDBRANCH   7   8
ENDBRANCH   6   7
TORSDOF 6
ENDMDL
MODEL        4
REMARK 921   NORMALIZED FREE ENERGY PREDICTED BY IDOCK:   -6.96 KCAL/MOL
REMARK 922        TOTAL FREE ENERGY PREDICTED BY IDOCK:  -10.97 KCAL/MOL
REMARK 923 INTER-LIGAND FREE ENERGY PREDICTED BY IDOCK:   -9.70 KCAL/MOL
REMARK 924 INTRA-LIGAND FREE ENERGY PREDICTED BY IDOCK:   -1.27 KCAL/MOL
REMARK 927      BINDING AFFINITY PREDICTED BY RF-SCORE:    0.00 PKD
ROOT
HETATM    1  C   UNL     1     -10.864  19.893  65.587  1.00  0.00    -0.194 C  
HETATM    2  N   UNL     1      -9.934  19.252  66.514  1.00  0.00    -0.361 NA 
HETATM    3  C   UNL     1      -9.612  20.147  67.632  1.00  0.00    -0.402 C  
HETATM    4  C   UNL     1      -9.215  19.206  68.748  1.00  0.00    -0.407 C  
HETATM    5  C   UNL     1     -10.191  18.060  68.585  1.00  0.00    -0.385 C  
HETATM    6  C   UNL     1     -10.467  17.988  67.077  1.00  0.00    -0.351 C  
ENDROOT
BRANCH   6   7
HETATM    7  C   UNL     1      -9.789  16.772  66.394  1.00  0.00    -0.312 C  
BRANCH   7   8
HETATM    8  C   UNL     1     -10.721  15.950  65.543  1.00  0.00    -0.386 A  
HETATM    9  C   UNL     1     -11.365  16.354  64.390  1.00  0.00    -0.027 A  
HETATM   10  N   UNL     1     -12.031  15.276  63.863  1.00  0.00    -0.953 NA 
HETATM   11  C   UNL     1     -11.817  14.162  64.640  1.00  0.00    -0.431 A  
HETATM   12  H   UNL     1     -12.601  15.298  63.018  1.00  0.00     0.000 HD 
HETATM   13  C   UNL     1     -11.064  14.576  65.734  1.00  0.00    -0.324 A  
HETATM   14  C   UNL     1     -10.732  13.627  66.717  1.00  0.00    -0.272 A  
HETATM   15  C   UNL     1     -11.059  12.274  66.555  1.00  0.00    -0.343 A  
HETATM   16  C   UNL     1     -11.787  11.893  65.419  1.00  0.00    -0.149 A  
HETATM   17  C   UNL     1     -12.206  12.830  64.461  1.00  0.00    -0.500 A  
BRANCH  15  18
HETATM   18  C   UNL     1     -10.524  11.222  67.508  1.00  0.00    -0.234 C  
BRANCH  18  19
HETATM   19  C   UNL     1     -10.420  11.687  68.956  1.00  0.00    -0.128 C  
BRANCH  19  20
HETATM   20  S   UNL     1     -11.741  11.050  69.963  1.00  0.00    -0.382 S  
HETATM   21  O   UNL     1     -11.162  10.261  71.030  1.00  0.00    -0.315 OA 
HETATM   22  O   UNL     1     -12.765  10.510  69.096  1.00  0.00    -0.075 OA 
BRANCH  20  23
HETATM   23  C   UNL     1     -12.381  12.546  70.693  1.00  0.00    -0.282 A  
HETATM   24  C   UNL     1     -12.104  13.776  70.086  1.00  0.00    -0.429 A  
HETATM   25  C   UNL     1     -12.568  14.949  70.678  1.00  0.00    -0.420 A  
HETATM   26  C   UNL     1     -13.307  14.891  71.861  1.00  0.00    -0.458 A  
HETATM   27  C   UNL     1     -13.594  13.660  72.453  1.00  0.00    -0.703 A  
HETATM   28  C   UNL     1     -13.135  12.478  71.868  1.00  0.00    -0.473 A  
ENDBRANCH  20  23
ENDBRANCH  19  20
ENDBRANCH  18  19
ENDBRANCH  15  18
ENDBRANCH   7   8
ENDBRANCH   6   7
TORSDOF 6
ENDMDL
MODEL        5
REMARK 921   NORMALIZED FREE ENERGY PREDICTED BY IDOCK:   -6.95 KCAL/MOL
REMARK 922        TOTAL FREE ENERGY PREDICTED BY IDOCK:  -10.96 KCAL/MOL
REMARK 923 INTER-LIGAND FREE ENERGY PREDICTED BY IDOCK:   -9.06 KCAL/MOL
REMARK 924 INTRA-LIGAND FREE ENERGY PREDICTED BY IDOCK:   -1.91 KCAL/MOL
REMARK 927      BINDING AFFINITY PREDICTED BY RF-SCORE:    0.00 PKD
ROOT
HETATM    1  C   UNL     1     -12.309  13.677  64.365  1.00  0.00    -0.338 C  
HETATM    2  N   UNL     1     -11.723  12.369  64.647  1.00  0.00    -0.350 NA 
HETATM    3  C   UNL     1     -10.994  11.860  63.479  1.00  0.00    -0.432 C  
HETATM    4  C   UNL     1      -9.977  10.910  64.071  1.00  0.00    -0.403 C  
HETATM    5  C   UNL     1      -9.543  11.624  65.334  1.00  0.00    -0.228 C  
HETATM    6  C   UNL     1     -10.786  12.398  65.796  1.00  0.00    -0.267 C  
ENDROOT
BRANCH   6   7
HETATM    7  C   UNL     1     -11.456  11.774  67.048  1.00  0.00    -0.368 C  
BRANCH   7   8
HETATM    8  C   UNL     1     -11.768  12.770  68.134  1.00  0.00    -0.392 A  
HETATM    9  C   UNL     1     -11.816  14.144  68.011  1.00  0.00    -0.365 A  
HETATM   10  N   UNL     1     -12.241  14.674  69.203  1.00  0.00    -0.549 NA 
HETATM   11  C   UNL     1     -12.496  13.666  70.104  1.00  0.00    -0.239 A  
HETATM   12  H   UNL     1     -12.353  15.670  69.394  1.00  0.00     0.000 HD 
HETATM   13  C   UNL     1     -12.137  12.475  69.482  1.00  0.00    -0.248 A  
HETATM   14  C   UNL     1     -12.264  11.276  70.207  1.00  0.00    -0.428 A  
HETATM   15  C   UNL     1     -12.836  11.263  71.487  1.00  0.00    -0.519 A  
HETATM   16  C   UNL     1     -13.219  12.483  72.061  1.00  0.00    -0.524 A  
HETATM   17  C   UNL     1     -13.027  13.706  71.397  1.00  0.00    -0.427 A  
BRANCH  15  18
HETATM   18  C   UNL     1     -13.163   9.955  72.182  1.00  0.00    -0.511 C  
BRANCH  18  19
HETATM   19  C   UNL     1     -13.117   8.735  71.270  1.00  0.00    -0.177 C  
BRANCH  19  20
HETATM   20  S   UNL     1     -11.709   7.700  71.601  1.00  0.00    -0.293 S  
HETATM   21  O   UNL     1     -12.006   6.362  71.131  1.00  0.00    -0.328 OA 
HETATM   22  O   UNL     1     -11.264   7.942  72.956  1.00  0.00    -0.411 OA 
BRANCH  20  23
HETATM   23  C   UNL     1     -10.493   8.395  70.498  1.00  0.00    -0.207 A  
HETATM   24  C   UNL     1      -9.423   9.122  71.030  1.00  0.00    -0.344 A  
HETATM   25  C   UNL     1      -8.495   9.701  70.167  1.00  0.00    -0.231 A  
HETATM   26  C   UNL     1      -8.632   9.548  68.786  1.00  0.00    -0.123 A  
HETATM   27  C   UNL     1      -9.693   8.807  68.261  1.00  0.00    -0.175 A  
HETATM   28  C   UNL     1     -10.628   8.222  69.116  1.00  0.00    -0.179 A  
ENDBRANCH  20  23
ENDBRANCH  19  20
ENDBRANCH  18  19
ENDBRANCH  15  18
ENDBRANCH   7   8
ENDBRANCH   6   7
TORSDOF 6
ENDMDL
MODEL        6
REMARK 921   NORMALIZED FREE ENERGY PREDICTED BY IDOCK:   -6.94 KCAL/MOL
REMARK 922        TOTAL FREE ENERGY PREDICTED BY IDOCK:  -10.95 KCAL/MOL
REMARK 923 INTER-LIGAND FREE ENERGY PREDICTED BY IDOCK:   -9.55 KCAL/MOL
REMARK 924 INTRA-LIGAND FREE ENERGY PREDICTED BY IDOCK:   -1.39 KCAL/MOL
REMARK 927      BINDING AFFINITY PREDICTED BY RF-SCORE:    0.00 PKD
ROOT
HETATM    1  C   UNL     1     -11.507  15.800  70.126  1.00  0.00    -0.361 C  
HETATM    2  N   UNL     1     -11.516  16.070  68.691  1.00  0.00    -0.387 NA 
HETATM    3  C   UNL     1     -10.654  17.214  68.369  1.00  0.00    -0.371 C  
HETATM    4  C   UNL     1     -10.266  16.981  66.926  1.00  0.00    -0.305 C  
HETATM    5  C   UNL     1     -10.064  15.482  66.868  1.00  0.00    -0.263 C  
HETATM    6  C   UNL     1     -11.059  14.911  67.888  1.00  0.00    -0.298 C  
ENDROOT
BRANCH   6   7
HETATM    7  C   UNL     1     -12.273  14.210  67.223  1.00  0.00    -0.314 C  
BRANCH   7   8
HETATM    8  C   UNL     1     -12.010  13.733  65.819  1.00  0.00    -0.423 A  
HETATM    9  C   UNL     1     -12.266  14.418  64.648  1.00  0.00    -0.464 A  
HETATM   10  N   UNL     1     -11.780  13.681  63.597  1.00  0.00    -0.679 NA 
HETATM   11  C   UNL     1     -11.188  12.529  64.060  1.00  0.00    -0.403 A  
HETATM   12  H   UNL     1     -11.848  13.949  62.615  1.00  0.00     0.000 HD 
HETATM   13  C   UNL     1     -11.385  12.506  65.437  1.00  0.00    -0.363 A  
HETATM   14  C   UNL     1     -10.904  11.402  66.163  1.00  0.00    -0.310 A  
HETATM   15  C   UNL     1     -10.152  10.397  65.538  1.00  0.00    -0.352 A  
HETATM   16  C   UNL     1      -9.945  10.481  64.154  1.00  0.00    -0.385 A  
HETATM   17  C   UNL     1     -10.484  11.526  63.387  1.00  0.00    -0.466 A  
BRANCH  15  18
HETATM   18  C   UNL     1      -9.460   9.321  66.352  1.00  0.00    -0.277 C  
BRANCH  18  19
HETATM   19  C   UNL     1     -10.285   8.792  67.519  1.00  0.00    -0.246 C  
BRANCH  19  20
HETATM   20  S   UNL     1      -9.519   9.126  69.089  1.00  0.00    -0.159 S  
HETATM   21  O   UNL     1      -8.479  10.114  68.889  1.00  0.00    -0.121 OA 
HETATM   22  O   UNL     1      -9.246   7.867  69.748  1.00  0.00    -0.150 OA 
BRANCH  20  23
HETATM   23  C   UNL     1     -10.850   9.922  69.969  1.00  0.00    -0.294 A  
HETATM   24  C   UNL     1     -11.170  11.250  69.668  1.00  0.00    -0.321 A  
HETATM   25  C   UNL     1     -12.182  11.887  70.383  1.00  0.00    -0.399 A  
HETATM   26  C   UNL     1     -12.870  11.200  71.385  1.00  0.00    -0.544 A  
HETATM   27  C   UNL     1     -12.556   9.870  71.671  1.00  0.00    -0.519 A  
HETATM   28  C   UNL     1     -11.545   9.222  70.960  1.00  0.00    -0.380 A  
ENDBRANCH  20  23
ENDBRANCH  19  20
ENDBRANCH  18  19
ENDBRANCH  15  18
ENDBRANCH   7   8
ENDBRANCH   6   7
TORSDOF 6
ENDMDL
MODEL        7
REMARK 921   NORMALIZED FREE ENERGY PREDICTED BY IDOCK:   -6.92 KCAL/MOL
REMARK 922        TOTAL FREE ENERGY PREDICTED BY IDOCK:  -10.93 KCAL/MOL
REMARK 923 INTER-LIGAND FREE ENERGY PREDICTED BY IDOCK:   -8.71 KCAL/MOL
REMARK 924 INTRA-LIGAND FREE ENERGY PREDICTED BY IDOCK:   -2.21 KCAL/MOL
REMARK 927      BINDING AFFINITY PREDICTED BY RF-SCORE:    0.00 PKD
ROOT
HETATM    1  C   UNL     1     -10.455  18.780  67.990  1.00  0.00    -0.352 C  
HETATM    2  N   UNL     1     -10.122  17.359  67.942  1.00  0.00    -0.309 NA 
HETATM    3  C   UNL     1      -8.675  17.165  67.789  1.00  0.00    -0.220 C  
HETATM    4  C   UNL     1      -8.428  15.793  68.375  1.00  0.00    -0.170 C  
HETATM    5  C   UNL     1      -9.357  15.763  69.570  1.00  0.00    -0.238 C  
HETATM    6  C   UNL     1     -10.556  16.628  69.158  1.00  0.00    -0.340 C  
ENDROOT
BRANCH   6   7
HETATM    7  C   UNL     1     -11.828  15.794  68.854  1.00  0.00    -0.354 C  
BRANCH   7   8
HETATM    8  C   UNL     1     -12.324  14.987  70.024  1.00  0.00    -0.353 A  
HETATM    9  C   UNL     1     -13.133  15.428  71.053  1.00  0.00    -0.501 A  
HETATM   10  N   UNL     1     -13.441  14.357  71.854  1.00  0.00    -0.362 NA 
HETATM   11  C   UNL     1     -12.865  13.212  71.356  1.00  0.00    -0.311 A  
HETATM   12  H   UNL     1     -14.015  14.403  72.697  1.00  0.00     0.000 HD 
HETATM   13  C   UNL     1     -12.103  13.595  70.257  1.00  0.00    -0.427 A  
HETATM   14  C   UNL     1     -11.369  12.608  69.575  1.00  0.00    -0.227 A  
HETATM   15  C   UNL     1     -11.479  11.254  69.923  1.00  0.00    -0.373 A  
HETATM   16  C   UNL     1     -12.289  10.909  71.014  1.00  0.00    -0.498 A  
HETATM   17  C   UNL     1     -12.968  11.880  71.768  1.00  0.00    -0.455 A  
BRANCH  15  18
HETATM   18  C   UNL     1     -10.854  10.174  69.062  1.00  0.00    -0.257 C  
BRANCH  18  19
HETATM   19  C   UNL     1     -11.257  10.234  67.594  1.00  0.00    -0.158 C  
BRANCH  19  20
HETATM   20  S   UNL     1      -9.959  10.883  66.566  1.00  0.00    -0.218 S  
HETATM   21  O   UNL     1      -9.818  10.020  65.410  1.00  0.00    -0.281 OA 
HETATM   22  O   UNL     1      -8.826  11.213  67.403  1.00  0.00    -0.138 OA 
BRANCH  20  23
HETATM   23  C   UNL     1     -10.683  12.412  66.004  1.00  0.00    -0.261 A  
HETATM   24  C   UNL     1      -9.859  13.522  65.793  1.00  0.00    -0.218 A  
HETATM   25  C   UNL     1     -10.429  14.729  65.394  1.00  0.00    -0.401 A  
HETATM   26  C   UNL     1     -11.808  14.823  65.201  1.00  0.00    -0.313 A  
HETATM   27  C   UNL     1     -12.624  13.707  65.398  1.00  0.00    -0.533 A  
HETATM   28  C   UNL     1     -12.064  12.492  65.797  1.00  0.00    -0.443 A  
ENDBRANCH  20  23
ENDBRANCH  19  20
ENDBRANCH  18  19
ENDBRANCH  15  18
ENDBRANCH   7   8
ENDBRANCH   6   7
TORSDOF 6
ENDMDL
MODEL        8
REMARK 921   NORMALIZED FREE ENERGY PREDICTED BY IDOCK:   -6.91 KCAL/MOL
REMARK 922        TOTAL FREE ENERGY PREDICTED BY IDOCK:  -10.91 KCAL/MOL
REMARK 923 INTER-LIGAND FREE ENERGY PREDICTED BY IDOCK:   -9.85 KCAL/MOL
REMARK 924 INTRA-LIGAND FREE ENERGY PREDICTED BY IDOCK:   -1.06 KCAL/MOL
REMARK 927      BINDING AFFINITY PREDICTED BY RF-SCORE:    0.00 PKD
ROOT
HETATM    1  C   UNL     1     -10.800  11.020  64.791  1.00  0.00    -0.163 C  
HETATM    2  N   UNL     1     -10.956  12.463  64.951  1.00  0.00    -0.292 NA 
HETATM    3  C   UNL     1     -11.652  13.045  63.797  1.00  0.00    -0.457 C  
HETATM    4  C   UNL     1     -12.280  14.306  64.349  1.00  0.00    -0.471 C  
HETATM    5  C   UNL     1     -12.736  13.880  65.728  1.00  0.00    -0.503 C  
HETATM    6  C   UNL     1     -11.712  12.826  66.174  1.00  0.00    -0.403 C  
ENDROOT
BRANCH   6   7
HETATM    7  C   UNL     1     -10.743  13.347  67.266  1.00  0.00    -0.265 C  
BRANCH   7   8
HETATM    8  C   UNL     1     -11.432  14.018  68.425  1.00  0.00    -0.340 A  
HETATM    9  C   UNL     1     -11.751  15.357  68.539  1.00  0.00    -0.338 A  
HETATM   10  N   UNL     1     -12.468  15.537  69.695  1.00  0.00    -0.591 NA 
HETATM   11  C   UNL     1     -12.645  14.333  70.335  1.00  0.00    -0.343 A  
HETATM   12  H   UNL     1     -12.818  16.435  70.031  1.00  0.00     0.000 HD 
HETATM   13  C   UNL     1     -11.944  13.383  69.598  1.00  0.00    -0.386 A  
HETATM   14  C   UNL     1     -11.930  12.055  70.060  1.00  0.00    -0.400 A  
HETATM   15  C   UNL     1     -12.687  11.669  71.176  1.00  0.00    -0.426 A  
HETATM   16  C   UNL     1     -13.409  12.652  71.866  1.00  0.00    -0.485 A  
HETATM   17  C   UNL     1     -13.376  14.002  71.480  1.00  0.00    -0.422 A  
BRANCH  15  18
HETATM   18  C   UNL     1     -12.836  10.207  71.549  1.00  0.00    -0.548 C  
BRANCH  18  19
HETATM   19  C   UNL     1     -11.515   9.460  71.690  1.00  0.00    -0.393 C  
BRANCH  19  20
HETATM   20  S   UNL     1     -11.694   7.715  71.394  1.00  0.00    -0.293 S  
HETATM   21  O   UNL     1     -13.106   7.392  71.410  1.00  0.00    -0.364 OA 
HETATM   22  O   UNL     1     -10.749   7.005  72.226  1.00  0.00    -0.210 OA 
BRANCH  20  23
HETATM   23  C   UNL     1     -11.138   7.585  69.705  1.00  0.00    -0.129 A  
HETATM   24  C   UNL     1     -10.674   8.729  69.047  1.00  0.00    -0.134 A  
HETATM   25  C   UNL     1     -10.278   8.637  67.715  1.00  0.00    -0.282 A  
HETATM   26  C   UNL     1     -10.339   7.412  67.049  1.00  0.00    -0.384 A  
HETATM   27  C   UNL     1     -10.788   6.270  67.715  1.00  0.00    -0.424 A  
HETATM   28  C   UNL     1     -11.186   6.350  69.050  1.00  0.00    -0.402 A  
ENDBRANCH  20  23
ENDBRANCH  19  20
ENDBRANCH  18  19
ENDBRANCH  15  18
ENDBRANCH   7   8
ENDBRANCH   6   7
TORSDOF 6
ENDMDL
MODEL        9
REMARK 921   NORMALIZED FREE ENERGY PREDICTED BY IDOCK:   -6.76 KCAL/MOL
REMARK 922        TOTAL FREE ENERGY PREDICTED BY IDOCK:  -10.70 KCAL/MOL
REMARK 923 INTER-LIGAND FREE ENERGY PREDICTED BY IDOCK:   -9.51 KCAL/MOL
REMARK 924 INTRA-LIGAND FREE ENERGY PREDICTED BY IDOCK:   -1.19 KCAL/MOL
REMARK 927      BINDING AFFINITY PREDICTED BY RF-SCORE:    0.00 PKD
ROOT
HETATM    1  C   UNL     1     -10.598  19.482  65.756  1.00  0.00    -0.427 C  
HETATM    2  N   UNL     1      -9.703  18.621  66.525  1.00  0.00    -0.337 NA 
HETATM    3  C   UNL     1      -9.320  19.261  67.789  1.00  0.00    -0.312 C  
HETATM    4  C   UNL     1      -8.974  18.100  68.694  1.00  0.00    -0.289 C  
HETATM    5  C   UNL     1     -10.018  17.066  68.331  1.00  0.00    -0.289 C  
HETATM    6  C   UNL     1     -10.308  17.305  66.842  1.00  0.00    -0.310 C  
ENDROOT
BRANCH   6   7
HETATM    7  C   UNL     1      -9.708  16.207  65.925  1.00  0.00    -0.374 C  
BRANCH   7   8
HETATM    8  C   UNL     1     -10.738  15.437  65.140  1.00  0.00    -0.460 A  
HETATM    9  C   UNL     1     -11.762  15.962  64.377  1.00  0.00    -0.179 A  
HETATM   10  N   UNL     1     -12.404  14.928  63.741  1.00  0.00    -1.071 NA 
HETATM   11  C   UNL     1     -11.804  13.732  64.057  1.00  0.00    -0.370 A  
HETATM   12  H   UNL     1     -13.209  15.033  63.123  1.00  0.00     0.000 HD 
HETATM   13  C   UNL     1     -10.809  14.019  64.986  1.00  0.00    -0.401 A  
HETATM   14  C   UNL     1     -10.055  12.953  65.511  1.00  0.00    -0.270 A  
HETATM   15  C   UNL     1     -10.226  11.645  65.036  1.00  0.00    -0.321 A  
HETATM   16  C   UNL     1     -11.214  11.407  64.070  1.00  0.00    -0.350 A  
HETATM   17  C   UNL     1     -12.041  12.436  63.589  1.00  0.00    -0.648 A  
BRANCH  15  18
HETATM   18  C   UNL     1      -9.277  10.536  65.447  1.00  0.00    -0.229 C  
BRANCH  18  19
HETATM   19  C   UNL     1      -8.929  10.530  66.931  1.00  0.00    -0.140 C  
BRANCH  19  20
HETATM   20  S   UNL     1      -9.718   9.195  67.802  1.00  0.00    -0.162 S  
HETATM   21  O   UNL     1      -8.703   8.463  68.531  1.00  0.00    -0.135 OA 
HETATM   22  O   UNL     1     -10.627   8.526  66.898  1.00  0.00    -0.298 OA 
BRANCH  20  23
HETATM   23  C   UNL     1     -10.697  10.084  68.998  1.00  0.00    -0.220 A  
HETATM   24  C   UNL     1     -11.063   9.448  70.190  1.00  0.00    -0.277 A  
HETATM   25  C   UNL     1     -11.862  10.127  71.107  1.00  0.00    -0.472 A  
HETATM   26  C   UNL     1     -12.287  11.429  70.838  1.00  0.00    -0.483 A  
HETATM   27  C   UNL     1     -11.905  12.064  69.654  1.00  0.00    -0.401 A  
HETATM   28  C   UNL     1     -11.104  11.394  68.728  1.00  0.00    -0.290 A  
ENDBRANCH  20  23
ENDBRANCH  19  20
ENDBRANCH  18  19
ENDBRANCH  15  18
ENDBRANCH   7   8
ENDBRANCH   6   7
TORSDOF 6
ENDMDL
MODEL       10
REMARK 921   NORMALIZED FREE ENERGY PREDICTED BY IDOCK:   -6.73 KCAL/MOL
REMARK 922        TOTAL FREE ENERGY PREDICTED BY IDOCK:  -10.66 KCAL/MOL
REMARK 923 INTER-LIGAND FREE ENERGY PREDICTED BY IDOCK:   -9.02 KCAL/MOL
REMARK 924 INTRA-LIGAND FREE ENERGY PREDICTED BY IDOCK:   -1.64 KCAL/MOL
REMARK 927      BINDING AFFINITY PREDICTED BY RF-SCORE:    0.00 PKD
ROOT
HETATM    1  C   UNL     1      -8.497  17.776  68.484  1.00  0.00    -0.296 C  
HETATM    2  N   UNL     1      -8.952  16.418  68.197  1.00  0.00    -0.193 NA 
HETATM    3  C   UNL     1      -9.324  15.719  69.433  1.00  0.00    -0.269 C  
HETATM    4  C   UNL     1     -10.312  14.670  68.974  1.00  0.00    -0.237 C  
HETATM    5  C   UNL     1     -11.111  15.400  67.915  1.00  0.00    -0.323 C  
HETATM    6  C   UNL     1     -10.119  16.386  67.283  1.00  0.00    -0.270 C  
ENDROOT
BRANCH   6   7
HETATM    7  C   UNL     1      -9.670  15.965  65.859  1.00  0.00    -0.386 C  
BRANCH   7   8
HETATM    8  C   UNL     1     -10.734  15.247  65.070  1.00  0.00    -0.461 A  
HETATM    9  C   UNL     1     -11.748  15.822  64.330  1.00  0.00    -0.201 A  
HETATM   10  N   UNL     1     -12.432  14.826  63.680  1.00  0.00    -1.051 NA 
HETATM   11  C   UNL     1     -11.870  13.603  63.964  1.00  0.00    -0.400 A  
HETATM   12  H   UNL     1     -13.239  14.970  63.074  1.00  0.00     0.000 HD 
HETATM   13  C   UNL     1     -10.855  13.835  64.888  1.00  0.00    -0.398 A  
HETATM   14  C   UNL     1     -10.134  12.734  65.381  1.00  0.00    -0.274 A  
HETATM   15  C   UNL     1     -10.354  11.442  64.881  1.00  0.00    -0.347 A  
HETATM   16  C   UNL     1     -11.361  11.259  63.922  1.00  0.00    -0.147 A  
HETATM   17  C   UNL     1     -12.156  12.326  63.472  1.00  0.00    -0.649 A  
BRANCH  15  18
HETATM   18  C   UNL     1      -9.439  10.293  65.259  1.00  0.00    -0.296 C  
BRANCH  18  19
HETATM   19  C   UNL     1      -9.010  10.291  66.721  1.00  0.00    -0.132 C  
BRANCH  19  20
HETATM   20  S   UNL     1      -9.719   8.936  67.628  1.00  0.00    -0.170 S  
HETATM   21  O   UNL     1      -8.659   8.271  68.358  1.00  0.00    -0.131 OA 
HETATM   22  O   UNL     1     -10.604   8.202  66.750  1.00  0.00    -0.313 OA 
BRANCH  20  23
HETATM   23  C   UNL     1     -10.728   9.797  68.819  1.00  0.00    -0.215 A  
HETATM   24  C   UNL     1     -11.417  10.949  68.426  1.00  0.00    -0.374 A  
HETATM   25  C   UNL     1     -12.172  11.647  69.367  1.00  0.00    -0.246 A  
HETATM   26  C   UNL     1     -12.242  11.193  70.685  1.00  0.00    -0.492 A  
HETATM   27  C   UNL     1     -11.565  10.034  71.068  1.00  0.00    -0.476 A  
HETATM   28  C   UNL     1     -10.806   9.326  70.134  1.00  0.00    -0.275 A  
ENDBRANCH  20  23
ENDBRANCH  19  20
ENDBRANCH  18  19
ENDBRANCH  15  18
ENDBRANCH   7   8
ENDBRANCH   6   7
TORSDOF 6
ENDMDL
MODEL       11
REMARK 921   NORMALIZED FREE ENERGY PREDICTED BY IDOCK:   -6.72 KCAL/MOL
REMARK 922        TOTAL FREE ENERGY PREDICTED BY IDOCK:  -10.65 KCAL/MOL
REMARK 923 INTER-LIGAND FREE ENERGY PREDICTED BY IDOCK:   -8.86 KCAL/MOL
REMARK 924 INTRA-LIGAND FREE ENERGY PREDICTED BY IDOCK:   -1.79 KCAL/MOL
REMARK 927      BINDING AFFINITY PREDICTED BY RF-SCORE:    0.00 PKD
ROOT
HETATM    1  C   UNL     1      -9.555   8.577  72.124  1.00  0.00    -0.312 C  
HETATM    2  N   UNL     1      -9.373   8.803  70.692  1.00  0.00    -0.179 NA 
HETATM    3  C   UNL     1      -8.494   7.782  70.109  1.00  0.00    -0.134 C  
HETATM    4  C   UNL     1      -8.896   7.746  68.652  1.00  0.00    -0.131 C  
HETATM    5  C   UNL     1     -10.400   7.907  68.712  1.00  0.00    -0.220 C  
HETATM    6  C   UNL     1     -10.653   8.788  69.943  1.00  0.00    -0.224 C  
ENDROOT
BRANCH   6   7
HETATM    7  C   UNL     1     -11.073  10.235  69.577  1.00  0.00    -0.310 C  
BRANCH   7   8
HETATM    8  C   UNL     1     -12.055  10.849  70.540  1.00  0.00    -0.464 A  
HETATM    9  C   UNL     1     -12.841  10.184  71.460  1.00  0.00    -0.443 A  
HETATM   10  N   UNL     1     -13.511  11.115  72.214  1.00  0.00    -0.527 NA 
HETATM   11  C   UNL     1     -13.161  12.385  71.818  1.00  0.00    -0.334 A  
HETATM   12  H   UNL     1     -14.171  10.897  72.960  1.00  0.00     0.000 HD 
HETATM   13  C   UNL     1     -12.311  12.242  70.726  1.00  0.00    -0.383 A  
HETATM   14  C   UNL     1     -11.830  13.404  70.096  1.00  0.00    -0.342 A  
HETATM   15  C   UNL     1     -12.110  14.676  70.615  1.00  0.00    -0.385 A  
HETATM   16  C   UNL     1     -12.941  14.772  71.740  1.00  0.00    -0.410 A  
HETATM   17  C   UNL     1     -13.506  13.635  72.341  1.00  0.00    -0.685 A  
BRANCH  15  18
HETATM   18  C   UNL     1     -11.425  15.912  70.062  1.00  0.00    -0.354 C  
BRANCH  18  19
HETATM   19  C   UNL     1     -10.013  15.664  69.545  1.00  0.00    -0.285 C  
BRANCH  19  20
HETATM   20  S   UNL     1      -9.853  16.051  67.817  1.00  0.00    -0.233 S  
HETATM   21  O   UNL     1      -8.443  16.093  67.487  1.00  0.00    -0.158 OA 
HETATM   22  O   UNL     1     -10.733  17.156  67.505  1.00  0.00    -0.342 OA 
BRANCH  20  23
HETATM   23  C   UNL     1     -10.533  14.586  67.062  1.00  0.00    -0.268 A  
HETATM   24  C   UNL     1     -11.828  14.627  66.534  1.00  0.00    -0.317 A  
HETATM   25  C   UNL     1     -12.376  13.471  65.981  1.00  0.00    -0.486 A  
HETATM   26  C   UNL     1     -11.634  12.289  65.952  1.00  0.00    -0.450 A  
HETATM   27  C   UNL     1     -10.337  12.258  66.467  1.00  0.00    -0.250 A  
HETATM   28  C   UNL     1      -9.777  13.410  67.022  1.00  0.00    -0.239 A  
ENDBRANCH  20  23
ENDBRANCH  19  20
ENDBRANCH  18  19
ENDBRANCH  15  18
ENDBRANCH   7   8
ENDBRANCH   6   7
TORSDOF 6
ENDMDL
MODEL       12
REMARK 921   NORMALIZED FREE ENERGY PREDICTED BY IDOCK:   -6.71 KCAL/MOL
REMARK 922        TOTAL FREE ENERGY PREDICTED BY IDOCK:  -10.64 KCAL/MOL
REMARK 923 INTER-LIGAND FREE ENERGY PREDICTED BY IDOCK:   -9.53 KCAL/MOL
REMARK 924 INTRA-LIGAND FREE ENERGY PREDICTED BY IDOCK:   -1.11 KCAL/MOL
REMARK 927      BINDING AFFINITY PREDICTED BY RF-SCORE:    0.00 PKD
ROOT
HETATM    1  C   UNL     1     -10.522   8.387  72.236  1.00  0.00    -0.337 C  
HETATM    2  N   UNL     1     -11.784   8.406  71.501  1.00  0.00    -0.277 NA 
HETATM    3  C   UNL     1     -12.589   7.220  71.815  1.00  0.00    -0.341 C  
HETATM    4  C   UNL     1     -14.009   7.661  71.536  1.00  0.00    -0.500 C  
HETATM    5  C   UNL     1     -14.025   9.088  72.041  1.00  0.00    -0.472 C  
HETATM    6  C   UNL     1     -12.601   9.607  71.799  1.00  0.00    -0.409 C  
ENDROOT
BRANCH   6   7
HETATM    7  C   UNL     1     -12.517  10.615  70.623  1.00  0.00    -0.462 C  
BRANCH   7   8
HETATM    8  C   UNL     1     -12.743  12.048  71.029  1.00  0.00    -0.337 A  
HETATM    9  C   UNL     1     -13.160  12.505  72.264  1.00  0.00    -0.230 A  
HETATM   10  N   UNL     1     -13.135  13.877  72.252  1.00  0.00    -0.405 NA 
HETATM   11  C   UNL     1     -12.686  14.331  71.034  1.00  0.00    -0.359 A  
HETATM   12  H   UNL     1     -13.409  14.473  73.033  1.00  0.00     0.000 HD 
HETATM   13  C   UNL     1     -12.506  13.209  70.231  1.00  0.00    -0.233 A  
HETATM   14  C   UNL     1     -12.082  13.397  68.903  1.00  0.00    -0.289 A  
HETATM   15  C   UNL     1     -11.745  14.671  68.425  1.00  0.00    -0.352 A  
HETATM   16  C   UNL     1     -11.905  15.771  69.281  1.00  0.00    -0.358 A  
HETATM   17  C   UNL     1     -12.408  15.626  70.584  1.00  0.00    -0.457 A  
BRANCH  15  18
HETATM   18  C   UNL     1     -11.093  14.848  67.068  1.00  0.00    -0.338 C  
BRANCH  18  19
HETATM   19  C   UNL     1     -10.218  13.677  66.638  1.00  0.00    -0.276 C  
BRANCH  19  20
HETATM   20  S   UNL     1     -10.989  12.688  65.378  1.00  0.00    -0.296 S  
HETATM   21  O   UNL     1     -10.428  13.063  64.096  1.00  0.00    -0.413 OA 
HETATM   22  O   UNL     1     -12.418  12.682  65.602  1.00  0.00    -0.622 OA 
BRANCH  20  23
HETATM   23  C   UNL     1     -10.370  11.063  65.775  1.00  0.00    -0.257 A  
HETATM   24  C   UNL     1      -9.574  10.389  64.843  1.00  0.00    -0.348 A  
HETATM   25  C   UNL     1      -9.123   9.103  65.135  1.00  0.00    -0.234 A  
HETATM   26  C   UNL     1      -9.462   8.501  66.348  1.00  0.00    -0.297 A  
HETATM   27  C   UNL     1     -10.244   9.185  67.281  1.00  0.00    -0.319 A  
HETATM   28  C   UNL     1     -10.699  10.474  66.999  1.00  0.00    -0.310 A  
ENDBRANCH  20  23
ENDBRANCH  19  20
ENDBRANCH  18  19
ENDBRANCH  15  18
ENDBRANCH   7   8
ENDBRANCH   6   7
TORSDOF 6
ENDMDL
MODEL       13
REMARK 921   NORMALIZED FREE ENERGY PREDICTED BY IDOCK:   -6.61 KCAL/MOL
REMARK 922        TOTAL FREE ENERGY PREDICTED BY IDOCK:  -10.51 KCAL/MOL
REMARK 923 INTER-LIGAND FREE ENERGY PREDICTED BY IDOCK:   -9.74 KCAL/MOL
REMARK 924 INTRA-LIGAND FREE ENERGY PREDICTED BY IDOCK:   -0.76 KCAL/MOL
REMARK 927      BINDING AFFINITY PREDICTED BY RF-SCORE:    0.00 PKD
ROOT
HETATM    1  C   UNL     1     -11.266   6.147  69.564  1.00  0.00    -0.411 C  
HETATM    2  N   UNL     1     -11.406   7.363  70.361  1.00  0.00    -0.271 NA 
HETATM    3  C   UNL     1     -11.331   7.061  71.795  1.00  0.00    -0.258 C  
HETATM    4  C   UNL     1     -10.860   8.356  72.416  1.00  0.00    -0.416 C  
HETATM    5  C   UNL     1      -9.850   8.866  71.410  1.00  0.00    -0.376 C  
HETATM    6  C   UNL     1     -10.366   8.374  70.050  1.00  0.00    -0.211 C  
ENDROOT
BRANCH   6   7
HETATM    7  C   UNL     1     -10.967   9.510  69.183  1.00  0.00    -0.148 C  
BRANCH   7   8
HETATM    8  C   UNL     1     -10.463   9.529  67.764  1.00  0.00    -0.309 A  
HETATM    9  C   UNL     1      -9.793   8.515  67.108  1.00  0.00    -0.206 A  
HETATM   10  N   UNL     1      -9.609   8.889  65.801  1.00  0.00    -0.427 NA 
HETATM   11  C   UNL     1     -10.168  10.126  65.580  1.00  0.00    -0.218 A  
HETATM   12  H   UNL     1      -9.129   8.330  65.095  1.00  0.00     0.000 HD 
HETATM   13  C   UNL     1     -10.641  10.576  66.808  1.00  0.00    -0.284 A  
HETATM   14  C   UNL     1     -11.234  11.849  66.872  1.00  0.00    -0.382 A  
HETATM   15  C   UNL     1     -11.442  12.609  65.712  1.00  0.00    -0.399 A  
HETATM   16  C   UNL     1     -10.983  12.101  64.489  1.00  0.00    -0.361 A  
HETATM   17  C   UNL     1     -10.311  10.870  64.404  1.00  0.00    -0.430 A  
BRANCH  15  18
HETATM   18  C   UNL     1     -12.263  13.883  65.751  1.00  0.00    -0.488 C  
BRANCH  18  19
HETATM   19  C   UNL     1     -11.622  15.016  66.544  1.00  0.00    -0.184 C  
BRANCH  19  20
HETATM   20  S   UNL     1     -10.481  15.962  65.561  1.00  0.00    -0.403 S  
HETATM   21  O   UNL     1     -11.126  16.297  64.308  1.00  0.00    -0.762 OA 
HETATM   22  O   UNL     1      -9.190  15.310  65.593  1.00  0.00    -0.231 OA 
BRANCH  20  23
HETATM   23  C   UNL     1     -10.355  17.464  66.513  1.00  0.00    -0.312 A  
HETATM   24  C   UNL     1     -10.262  17.384  67.907  1.00  0.00    -0.348 A  
HETATM   25  C   UNL     1     -10.206  18.558  68.656  1.00  0.00    -0.363 A  
HETATM   26  C   UNL     1     -10.236  19.798  68.016  1.00  0.00    -0.581 A  
HETATM   27  C   UNL     1     -10.312  19.872  66.624  1.00  0.00    -0.608 A  
HETATM   28  C   UNL     1     -10.368  18.702  65.864  1.00  0.00    -0.358 A  
ENDBRANCH  20  23
ENDBRANCH  19  20
ENDBRANCH  18  19
ENDBRANCH  15  18
ENDBRANCH   7   8
ENDBRANCH   6   7
TORSDOF 6
ENDMDL
MODEL       14
REMARK 921   NORMALIZED FREE ENERGY PREDICTED BY IDOCK:   -6.60 KCAL/MOL
REMARK 922        TOTAL FREE ENERGY PREDICTED BY IDOCK:  -10.50 KCAL/MOL
REMARK 923 INTER-LIGAND FREE ENERGY PREDICTED BY IDOCK:   -9.51 KCAL/MOL
REMARK 924 INTRA-LIGAND FREE ENERGY PREDICTED BY IDOCK:   -0.99 KCAL/MOL
REMARK 927      BINDING AFFINITY PREDICTED BY RF-SCORE:    0.00 PKD
ROOT
HETATM    1  C   UNL     1     -10.721   7.151  73.100  1.00  0.00    -0.346 C  
HETATM    2  N   UNL     1     -10.317   7.152  71.697  1.00  0.00    -0.198 NA 
HETATM    3  C   UNL     1      -9.821   5.830  71.295  1.00  0.00    -0.179 C  
HETATM    4  C   UNL     1     -10.050   5.795  69.801  1.00  0.00    -0.273 C  
HETATM    5  C   UNL     1     -11.385   6.492  69.647  1.00  0.00    -0.443 C  
HETATM    6  C   UNL     1     -11.424   7.524  70.783  1.00  0.00    -0.284 C  
ENDROOT
BRANCH   6   7
HETATM    7  C   UNL     1     -11.237   8.981  70.284  1.00  0.00    -0.232 C  
BRANCH   7   8
HETATM    8  C   UNL     1     -12.126   9.982  70.975  1.00  0.00    -0.469 A  
HETATM    9  C   UNL     1     -12.934   9.756  72.072  1.00  0.00    -0.423 A  
HETATM   10  N   UNL     1     -13.491  10.950  72.455  1.00  0.00    -0.460 NA 
HETATM   11  C   UNL     1     -13.046  11.964  71.639  1.00  0.00    -0.328 A  
HETATM   12  H   UNL     1     -14.142  11.069  73.232  1.00  0.00     0.000 HD 
HETATM   13  C   UNL     1     -12.251  11.370  70.663  1.00  0.00    -0.484 A  
HETATM   14  C   UNL     1     -11.692  12.189  69.666  1.00  0.00    -0.396 A  
HETATM   15  C   UNL     1     -11.840  13.583  69.708  1.00  0.00    -0.395 A  
HETATM   16  C   UNL     1     -12.618  14.142  70.731  1.00  0.00    -0.432 A  
HETATM   17  C   UNL     1     -13.260  13.345  71.692  1.00  0.00    -0.449 A  
BRANCH  15  18
HETATM   18  C   UNL     1     -11.068  14.478  68.757  1.00  0.00    -0.267 C  
BRANCH  18  19
HETATM   19  C   UNL     1     -11.640  14.530  67.346  1.00  0.00    -0.385 C  
BRANCH  19  20
HETATM   20  S   UNL     1     -10.372  14.720  66.113  1.00  0.00    -0.320 S  
HETATM   21  O   UNL     1      -9.128  15.039  66.783  1.00  0.00    -0.229 OA 
HETATM   22  O   UNL     1     -10.886  15.547  65.043  1.00  0.00    -0.407 OA 
BRANCH  20  23
HETATM   23  C   UNL     1     -10.231  13.055  65.492  1.00  0.00    -0.285 A  
HETATM   24  C   UNL     1      -9.884  12.024  66.372  1.00  0.00    -0.238 A  
HETATM   25  C   UNL     1      -9.733  10.729  65.880  1.00  0.00    -0.272 A  
HETATM   26  C   UNL     1      -9.932  10.467  64.523  1.00  0.00    -0.413 A  
HETATM   27  C   UNL     1     -10.293  11.497  63.653  1.00  0.00    -0.467 A  
HETATM   28  C   UNL     1     -10.449  12.798  64.134  1.00  0.00    -0.437 A  
ENDBRANCH  20  23
ENDBRANCH  19  20
ENDBRANCH  18  19
ENDBRANCH  15  18
ENDBRANCH   7   8
ENDBRANCH   6   7
TORSDOF 6
ENDMDL
MODEL       15
REMARK 921   NORMALIZED FREE ENERGY PREDICTED BY IDOCK:   -6.59 KCAL/MOL
REMARK 922        TOTAL FREE ENERGY PREDICTED BY IDOCK:  -10.47 KCAL/MOL
REMARK 923 INTER-LIGAND FREE ENERGY PREDICTED BY IDOCK:   -9.64 KCAL/MOL
REMARK 924 INTRA-LIGAND FREE ENERGY PREDICTED BY IDOCK:   -0.84 KCAL/MOL
REMARK 927      BINDING AFFINITY PREDICTED BY RF-SCORE:    0.00 PKD
ROOT
HETATM    1  C   UNL     1      -7.623   8.909  68.945  1.00  0.00    -0.087 C  
HETATM    2  N   UNL     1      -8.231   8.395  67.721  1.00  0.00    -0.125 NA 
HETATM    3  C   UNL     1      -9.083   7.235  68.007  1.00  0.00    -0.133 C  
HETATM    4  C   UNL     1     -10.077   7.224  66.867  1.00  0.00    -0.317 C  
HETATM    5  C   UNL     1     -10.365   8.695  66.657  1.00  0.00    -0.303 C  
HETATM    6  C   UNL     1      -9.056   9.409  67.022  1.00  0.00    -0.134 C  
ENDROOT
BRANCH   6   7
HETATM    7  C   UNL     1      -8.298   9.954  65.783  1.00  0.00    -0.131 C  
BRANCH   7   8
HETATM    8  C   UNL     1      -9.198  10.514  64.713  1.00  0.00    -0.266 A  
HETATM    9  C   UNL     1      -9.340  10.047  63.421  1.00  0.00    -0.257 A  
HETATM   10  N   UNL     1     -10.336  10.764  62.806  1.00  0.00    -0.764 NA 
HETATM   11  C   UNL     1     -10.867  11.683  63.681  1.00  0.00    -0.432 A  
HETATM   12  H   UNL     1     -10.638  10.635  61.841  1.00  0.00     0.000 HD 
HETATM   13  C   UNL     1     -10.122  11.594  64.853  1.00  0.00    -0.303 A  
HETATM   14  C   UNL     1     -10.437  12.462  65.914  1.00  0.00    -0.284 A  
HETATM   15  C   UNL     1     -11.539  13.326  65.839  1.00  0.00    -0.380 A  
HETATM   16  C   UNL     1     -12.286  13.355  64.652  1.00  0.00    -0.456 A  
HETATM   17  C   UNL     1     -11.946  12.562  63.544  1.00  0.00    -0.629 A  
BRANCH  15  18
HETATM   18  C   UNL     1     -12.002  14.108  67.053  1.00  0.00    -0.471 C  
BRANCH  18  19
HETATM   19  C   UNL     1     -11.212  13.814  68.323  1.00  0.00    -0.273 C  
BRANCH  19  20
HETATM   20  S   UNL     1     -10.813  15.294  69.224  1.00  0.00    -0.273 S  
HETATM   21  O   UNL     1     -11.350  16.428  68.500  1.00  0.00    -0.371 OA 
HETATM   22  O   UNL     1      -9.421  15.239  69.613  1.00  0.00    -0.237 OA 
BRANCH  20  23
HETATM   23  C   UNL     1     -11.797  15.088  70.697  1.00  0.00    -0.313 A  
HETATM   24  C   UNL     1     -12.626  13.967  70.813  1.00  0.00    -0.431 A  
HETATM   25  C   UNL     1     -13.427  13.825  71.945  1.00  0.00    -0.514 A  
HETATM   26  C   UNL     1     -13.393  14.792  72.952  1.00  0.00    -0.582 A  
HETATM   27  C   UNL     1     -12.552  15.900  72.837  1.00  0.00    -0.581 A  
HETATM   28  C   UNL     1     -11.745  16.052  71.708  1.00  0.00    -0.593 A  
ENDBRANCH  20  23
ENDBRANCH  19  20
ENDBRANCH  18  19
ENDBRANCH  15  18
ENDBRANCH   7   8
ENDBRANCH   6   7
TORSDOF 6
ENDMDL
MODEL       16
REMARK 921   NORMALIZED FREE ENERGY PREDICTED BY IDOCK:   -6.59 KCAL/MOL
REMARK 922        TOTAL FREE ENERGY PREDICTED BY IDOCK:  -10.47 KCAL/MOL
REMARK 923 INTER-LIGAND FREE ENERGY PREDICTED BY IDOCK:   -9.87 KCAL/MOL
REMARK 924 INTRA-LIGAND FREE ENERGY PREDICTED BY IDOCK:   -0.60 KCAL/MOL
REMARK 927      BINDING AFFINITY PREDICTED BY RF-SCORE:    0.00 PKD
ROOT
HETATM    1  C   UNL     1     -10.320   8.667  72.115  1.00  0.00    -0.333 C  
HETATM    2  N   UNL     1     -11.638   8.595  71.490  1.00  0.00    -0.282 NA 
HETATM    3  C   UNL     1     -12.263   7.290  71.738  1.00  0.00    -0.334 C  
HETATM    4  C   UNL     1     -13.745   7.569  71.623  1.00  0.00    -0.465 C  
HETATM    5  C   UNL     1     -13.885   8.926  72.279  1.00  0.00    -0.536 C  
HETATM    6  C   UNL     1     -12.562   9.646  71.980  1.00  0.00    -0.361 C  
ENDROOT
BRANCH   6   7
HETATM    7  C   UNL     1     -12.709  10.766  70.917  1.00  0.00    -0.478 C  
BRANCH   7   8
HETATM    8  C   UNL     1     -12.969  12.130  71.499  1.00  0.00    -0.398 A  
HETATM    9  C   UNL     1     -13.610  12.417  72.688  1.00  0.00     0.337 A  
HETATM   10  N   UNL     1     -13.542  13.771  72.903  1.00  0.00    -0.632 NA 
HETATM   11  C   UNL     1     -12.846  14.378  71.885  1.00  0.00    -0.349 A  
HETATM   12  H   UNL     1     -13.949  14.256  73.704  1.00  0.00     0.000 HD 
HETATM   13  C   UNL     1     -12.543  13.383  70.960  1.00  0.00    -0.425 A  
HETATM   14  C   UNL     1     -11.857  13.746  69.787  1.00  0.00    -0.394 A  
HETATM   15  C   UNL     1     -11.393  15.055  69.596  1.00  0.00    -0.309 A  
HETATM   16  C   UNL     1     -11.688  16.018  70.572  1.00  0.00    -0.350 A  
HETATM   17  C   UNL     1     -12.445  15.707  71.713  1.00  0.00    -0.507 A  
BRANCH  15  18
HETATM   18  C   UNL     1     -10.478  15.397  68.436  1.00  0.00    -0.239 C  
BRANCH  18  19
HETATM   19  C   UNL     1     -11.195  15.555  67.101  1.00  0.00    -0.204 C  
BRANCH  19  20
HETATM   20  S   UNL     1     -10.120  16.183  65.831  1.00  0.00    -0.361 S  
HETATM   21  O   UNL     1     -10.907  16.405  64.635  1.00  0.00    -0.717 OA 
HETATM   22  O   UNL     1      -8.917  15.381  65.803  1.00  0.00    -0.197 OA 
BRANCH  20  23
HETATM   23  C   UNL     1      -9.691  17.783  66.490  1.00  0.00    -0.320 A  
HETATM   24  C   UNL     1      -8.493  17.933  67.197  1.00  0.00    -0.242 A  
HETATM   25  C   UNL     1      -8.176  19.172  67.749  1.00  0.00    -0.319 A  
HETATM   26  C   UNL     1      -9.046  20.252  67.590  1.00  0.00    -0.423 A  
HETATM   27  C   UNL     1     -10.233  20.101  66.871  1.00  0.00    -0.566 A  
HETATM   28  C   UNL     1     -10.560  18.864  66.313  1.00  0.00    -0.463 A  
ENDBRANCH  20  23
ENDBRANCH  19  20
ENDBRANCH  18  19
ENDBRANCH  15  18
ENDBRANCH   7   8
ENDBRANCH   6   7
TORSDOF 6
ENDMDL
MODEL       17
REMARK 921   NORMALIZED FREE ENERGY PREDICTED BY IDOCK:   -6.58 KCAL/MOL
REMARK 922        TOTAL FREE ENERGY PREDICTED BY IDOCK:  -10.46 KCAL/MOL
REMARK 923 INTER-LIGAND FREE ENERGY PREDICTED BY IDOCK:   -9.49 KCAL/MOL
REMARK 924 INTRA-LIGAND FREE ENERGY PREDICTED BY IDOCK:   -0.98 KCAL/MOL
REMARK 927      BINDING AFFINITY PREDICTED BY RF-SCORE:    0.00 PKD
ROOT
HETATM    1  C   UNL     1     -12.080  11.181  70.104  1.00  0.00    -0.362 C  
HETATM    2  N   UNL     1     -11.093  10.164  70.457  1.00  0.00    -0.313 NA 
HETATM    3  C   UNL     1     -11.549   9.369  71.603  1.00  0.00    -0.396 C  
HETATM    4  C   UNL     1     -10.817   8.055  71.449  1.00  0.00    -0.271 C  
HETATM    5  C   UNL     1     -10.845   7.827  69.953  1.00  0.00    -0.228 C  
HETATM    6  C   UNL     1     -10.805   9.233  69.339  1.00  0.00    -0.169 C  
ENDROOT
BRANCH   6   7
HETATM    7  C   UNL     1      -9.436   9.576  68.698  1.00  0.00    -0.143 C  
BRANCH   7   8
HETATM    8  C   UNL     1      -9.468   9.659  67.194  1.00  0.00    -0.185 A  
HETATM    9  C   UNL     1      -8.994   8.718  66.301  1.00  0.00    -0.173 A  
HETATM   10  N   UNL     1      -9.314   9.124  65.030  1.00  0.00    -0.452 NA 
HETATM   11  C   UNL     1     -10.010  10.309  65.073  1.00  0.00    -0.323 A  
HETATM   12  H   UNL     1      -9.070   8.620  64.177  1.00  0.00     0.000 HD 
HETATM   13  C   UNL     1     -10.054  10.698  66.408  1.00  0.00    -0.279 A  
HETATM   14  C   UNL     1     -10.685  11.913  66.732  1.00  0.00    -0.282 A  
HETATM   15  C   UNL     1     -11.348  12.666  65.752  1.00  0.00    -0.370 A  
HETATM   16  C   UNL     1     -11.312  12.217  64.425  1.00  0.00    -0.407 A  
HETATM   17  C   UNL     1     -10.618  11.053  64.056  1.00  0.00    -0.395 A  
BRANCH  15  18
HETATM   18  C   UNL     1     -12.201  13.861  66.133  1.00  0.00    -0.498 C  
BRANCH  18  19
HETATM   19  C   UNL     1     -11.458  14.934  66.918  1.00  0.00    -0.313 C  
BRANCH  19  20
HETATM   20  S   UNL     1     -10.308  15.835  65.902  1.00  0.00    -0.376 S  
HETATM   21  O   UNL     1     -10.918  16.054  64.606  1.00  0.00    -0.590 OA 
HETATM   22  O   UNL     1      -9.003  15.225  66.027  1.00  0.00    -0.292 OA 
BRANCH  20  23
HETATM   23  C   UNL     1     -10.256  17.409  66.738  1.00  0.00    -0.318 A  
HETATM   24  C   UNL     1     -10.535  18.575  66.018  1.00  0.00    -0.433 A  
HETATM   25  C   UNL     1     -10.453  19.809  66.660  1.00  0.00    -0.615 A  
HETATM   26  C   UNL     1     -10.103  19.875  68.010  1.00  0.00    -0.572 A  
HETATM   27  C   UNL     1      -9.841  18.706  68.727  1.00  0.00    -0.422 A  
HETATM   28  C   UNL     1      -9.920  17.464  68.095  1.00  0.00    -0.308 A  
ENDBRANCH  20  23
ENDBRANCH  19  20
ENDBRANCH  18  19
ENDBRANCH  15  18
ENDBRANCH   7   8
ENDBRANCH   6   7
TORSDOF 6
ENDMDL
MODEL       18
REMARK 921   NORMALIZED FREE ENERGY PREDICTED BY IDOCK:   -6.56 KCAL/MOL
REMARK 922        TOTAL FREE ENERGY PREDICTED BY IDOCK:  -10.44 KCAL/MOL
REMARK 923 INTER-LIGAND FREE ENERGY PREDICTED BY IDOCK:   -9.61 KCAL/MOL
REMARK 924 INTRA-LIGAND FREE ENERGY PREDICTED BY IDOCK:   -0.83 KCAL/MOL
REMARK 927      BINDING AFFINITY PREDICTED BY RF-SCORE:    0.00 PKD
ROOT
HETATM    1  C   UNL     1      -9.360   8.376  72.352  1.00  0.00    -0.285 C  
HETATM    2  N   UNL     1      -9.198   8.582  70.916  1.00  0.00    -0.162 NA 
HETATM    3  C   UNL     1      -8.318   7.559  70.338  1.00  0.00    -0.128 C  
HETATM    4  C   UNL     1      -8.737   7.497  68.886  1.00  0.00    -0.132 C  
HETATM    5  C   UNL     1     -10.241   7.646  68.963  1.00  0.00    -0.211 C  
HETATM    6  C   UNL     1     -10.487   8.544  70.183  1.00  0.00    -0.220 C  
ENDROOT
BRANCH   6   7
HETATM    7  C   UNL     1     -10.924   9.982  69.798  1.00  0.00    -0.317 C  
BRANCH   7   8
HETATM    8  C   UNL     1     -11.984  10.560  70.699  1.00  0.00    -0.455 A  
HETATM    9  C   UNL     1     -12.716   9.886  71.657  1.00  0.00    -0.429 A  
HETATM   10  N   UNL     1     -13.494  10.795  72.330  1.00  0.00    -0.539 NA 
HETATM   11  C   UNL     1     -13.268  12.062  71.844  1.00  0.00    -0.364 A  
HETATM   12  H   UNL     1     -14.144  10.565  73.081  1.00  0.00     0.000 HD 
HETATM   13  C   UNL     1     -12.385  11.929  70.777  1.00  0.00    -0.416 A  
HETATM   14  C   UNL     1     -12.013  13.084  70.067  1.00  0.00    -0.383 A  
HETATM   15  C   UNL     1     -12.433  14.355  70.484  1.00  0.00    -0.416 A  
HETATM   16  C   UNL     1     -13.292  14.447  71.588  1.00  0.00    -0.442 A  
HETATM   17  C   UNL     1     -13.751  13.305  72.265  1.00  0.00    -0.686 A  
BRANCH  15  18
HETATM   18  C   UNL     1     -11.867  15.611  69.850  1.00  0.00    -0.374 C  
BRANCH  18  19
HETATM   19  C   UNL     1     -11.483  15.451  68.384  1.00  0.00    -0.355 C  
BRANCH  19  20
HETATM   20  S   UNL     1      -9.785  15.886  68.082  1.00  0.00    -0.214 S  
HETATM   21  O   UNL     1      -9.320  15.140  66.930  1.00  0.00    -0.212 OA 
HETATM   22  O   UNL     1      -9.069  15.857  69.338  1.00  0.00    -0.250 OA 
BRANCH  20  23
HETATM   23  C   UNL     1      -9.940  17.591  67.584  1.00  0.00    -0.309 A  
HETATM   24  C   UNL     1      -9.635  18.602  68.502  1.00  0.00    -0.399 A  
HETATM   25  C   UNL     1      -9.796  19.935  68.128  1.00  0.00    -0.524 A  
HETATM   26  C   UNL     1     -10.251  20.253  66.847  1.00  0.00    -0.504 A  
HETATM   27  C   UNL     1     -10.539  19.240  65.930  1.00  0.00    -0.521 A  
HETATM   28  C   UNL     1     -10.381  17.902  66.294  1.00  0.00    -0.364 A  
ENDBRANCH  20  23
ENDBRANCH  19  20
ENDBRANCH  18  19
ENDBRANCH  15  18
ENDBRANCH   7   8
ENDBRANCH   6   7
TORSDOF 6
ENDMDL
MODEL       19
REMARK 921   NORMALIZED FREE ENERGY PREDICTED BY IDOCK:   -6.55 KCAL/MOL
REMARK 922        TOTAL FREE ENERGY PREDICTED BY IDOCK:  -10.42 KCAL/MOL
REMARK 923 INTER-LIGAND FREE ENERGY PREDICTED BY IDOCK:   -9.75 KCAL/MOL
REMARK 924 INTRA-LIGAND FREE ENERGY PREDICTED BY IDOCK:   -0.67 KCAL/MOL
REMARK 927      BINDING AFFINITY PREDICTED BY RF-SCORE:    0.00 PKD
ROOT
HETATM    1  C   UNL     1      -9.281   9.825  69.892  1.00  0.00    -0.234 C  
HETATM    2  N   UNL     1     -10.624   9.265  70.013  1.00  0.00    -0.216 NA 
HETATM    3  C   UNL     1     -10.568   7.856  70.419  1.00  0.00    -0.228 C  
HETATM    4  C   UNL     1     -11.900   7.618  71.094  1.00  0.00    -0.314 C  
HETATM    5  C   UNL     1     -12.128   8.907  71.854  1.00  0.00    -0.443 C  
HETATM    6  C   UNL     1     -11.461   9.993  70.998  1.00  0.00    -0.383 C  
ENDROOT
BRANCH   6   7
HETATM    7  C   UNL     1     -12.483  10.899  70.264  1.00  0.00    -0.383 C  
BRANCH   7   8
HETATM    8  C   UNL     1     -12.774  12.194  70.976  1.00  0.00    -0.322 A  
HETATM    9  C   UNL     1     -13.408  12.347  72.194  1.00  0.00    -0.403 A  
HETATM   10  N   UNL     1     -13.375  13.675  72.537  1.00  0.00    -0.539 NA 
HETATM   11  C   UNL     1     -12.711  14.397  71.573  1.00  0.00    -0.345 A  
HETATM   12  H   UNL     1     -13.785  14.070  73.384  1.00  0.00     0.000 HD 
HETATM   13  C   UNL     1     -12.392  13.505  70.555  1.00  0.00    -0.412 A  
HETATM   14  C   UNL     1     -11.733  13.997  69.415  1.00  0.00    -0.365 A  
HETATM   15  C   UNL     1     -11.309  15.332  69.345  1.00  0.00    -0.304 A  
HETATM   16  C   UNL     1     -11.619  16.189  70.411  1.00  0.00    -0.293 A  
HETATM   17  C   UNL     1     -12.351  15.748  71.525  1.00  0.00    -0.514 A  
BRANCH  15  18
HETATM   18  C   UNL     1     -10.421  15.810  68.213  1.00  0.00    -0.259 C  
BRANCH  18  19
HETATM   19  C   UNL     1     -10.523  17.303  67.926  1.00  0.00    -0.382 C  
BRANCH  19  20
HETATM   20  S   UNL     1      -9.684  17.759  66.425  1.00  0.00    -0.288 S  
HETATM   21  O   UNL     1     -10.611  18.497  65.591  1.00  0.00    -0.616 OA 
HETATM   22  O   UNL     1      -8.973  16.604  65.923  1.00  0.00    -0.482 OA 
BRANCH  20  23
HETATM   23  C   UNL     1      -8.475  18.919  67.034  1.00  0.00    -0.281 A  
HETATM   24  C   UNL     1      -7.993  19.916  66.179  1.00  0.00    -0.345 A  
HETATM   25  C   UNL     1      -7.017  20.797  66.640  1.00  0.00    -0.311 A  
HETATM   26  C   UNL     1      -6.534  20.686  67.945  1.00  0.00    -0.355 A  
HETATM   27  C   UNL     1      -7.030  19.699  68.799  1.00  0.00    -0.374 A  
HETATM   28  C   UNL     1      -8.008  18.811  68.348  1.00  0.00    -0.365 A  
ENDBRANCH  20  23
ENDBRANCH  19  20
ENDBRANCH  18  19
ENDBRANCH  15  18
ENDBRANCH   7   8
ENDBRANCH   6   7
TORSDOF 6
ENDMDL
MODEL       20
REMARK 921   NORMALIZED FREE ENERGY PREDICTED BY IDOCK:   -6.55 KCAL/MOL
REMARK 922        TOTAL FREE ENERGY PREDICTED BY IDOCK:  -10.42 KCAL/MOL
REMARK 923 INTER-LIGAND FREE ENERGY PREDICTED BY IDOCK:   -8.42 KCAL/MOL
REMARK 924 INTRA-LIGAND FREE ENERGY PREDICTED BY IDOCK:   -2.00 KCAL/MOL
REMARK 927      BINDING AFFINITY PREDICTED BY RF-SCORE:    0.00 PKD
ROOT
HETATM    1  C   UNL     1     -10.774   8.350  72.168  1.00  0.00    -0.337 C  
HETATM    2  N   UNL     1     -11.403   8.961  71.000  1.00  0.00    -0.276 NA 
HETATM    3  C   UNL     1     -12.203  10.129  71.388  1.00  0.00    -0.397 C  
HETATM    4  C   UNL     1     -12.242  10.975  70.135  1.00  0.00    -0.424 C  
HETATM    5  C   UNL     1     -10.845  10.814  69.575  1.00  0.00    -0.288 C  
HETATM    6  C   UNL     1     -10.418   9.397  69.982  1.00  0.00    -0.234 C  
ENDROOT
BRANCH   6   7
HETATM    7  C   UNL     1     -10.406   8.403  68.791  1.00  0.00    -0.225 C  
BRANCH   7   8
HETATM    8  C   UNL     1      -9.226   8.569  67.869  1.00  0.00    -0.148 A  
HETATM    9  C   UNL     1      -7.973   8.006  68.015  1.00  0.00    -0.128 A  
HETATM   10  N   UNL     1      -7.226   8.315  66.907  1.00  0.00    -0.081 NA 
HETATM   11  C   UNL     1      -7.974   9.055  66.022  1.00  0.00    -0.103 A  
HETATM   12  H   UNL     1      -6.255   8.036  66.760  1.00  0.00     0.000 HD 
HETATM   13  C   UNL     1      -9.201   9.288  66.634  1.00  0.00    -0.190 A  
HETATM   14  C   UNL     1     -10.155  10.063  65.951  1.00  0.00    -0.319 A  
HETATM   15  C   UNL     1      -9.922  10.506  64.641  1.00  0.00    -0.415 A  
HETATM   16  C   UNL     1      -8.685  10.217  64.047  1.00  0.00    -0.224 A  
HETATM   17  C   UNL     1      -7.680   9.517  64.735  1.00  0.00    -0.119 A  
BRANCH  15  18
HETATM   18  C   UNL     1     -11.025  11.161  63.832  1.00  0.00    -0.271 C  
BRANCH  18  19
HETATM   19  C   UNL     1     -10.892  12.674  63.705  1.00  0.00    -0.426 C  
BRANCH  19  20
HETATM   20  S   UNL     1     -12.201  13.536  64.546  1.00  0.00    -0.384 S  
HETATM   21  O   UNL     1     -13.281  12.602  64.789  1.00  0.00    -0.846 OA 
HETATM   22  O   UNL     1     -12.431  14.797  63.875  1.00  0.00    -0.811 OA 
BRANCH  20  23
HETATM   23  C   UNL     1     -11.438  13.888  66.119  1.00  0.00    -0.345 A  
HETATM   24  C   UNL     1     -10.045  13.837  66.230  1.00  0.00    -0.304 A  
HETATM   25  C   UNL     1      -9.450  14.071  67.467  1.00  0.00    -0.221 A  
HETATM   26  C   UNL     1     -10.240  14.360  68.581  1.00  0.00    -0.245 A  
HETATM   27  C   UNL     1     -11.630  14.426  68.461  1.00  0.00    -0.347 A  
HETATM   28  C   UNL     1     -12.237  14.194  67.226  1.00  0.00    -0.314 A  
ENDBRANCH  20  23
ENDBRANCH  19  20
ENDBRANCH  18  19
ENDBRANCH  15  18
ENDBRANCH   7   8
ENDBRANCH   6   7
TORSDOF 6
ENDMDL
MODEL       21
REMARK 921   NORMALIZED FREE ENERGY PREDICTED BY IDOCK:   -6.48 KCAL/MOL
REMARK 922        TOTAL FREE ENERGY PREDICTED BY IDOCK:  -10.33 KCAL/MOL
REMARK 923 INTER-LIGAND FREE ENERGY PREDICTED BY IDOCK:   -9.50 KCAL/MOL
REMARK 924 INTRA-LIGAND FREE ENERGY PREDICTED BY IDOCK:   -0.83 KCAL/MOL
REMARK 927      BINDING AFFINITY PREDICTED BY RF-SCORE:    0.00 PKD
ROOT
HETATM    1  C   UNL     1     -11.028   6.445  69.209  1.00  0.00    -0.356 C  
HETATM    2  N   UNL     1     -11.132   7.684  69.974  1.00  0.00    -0.231 NA 
HETATM    3  C   UNL     1     -10.915   7.436  71.404  1.00  0.00    -0.235 C  
HETATM    4  C   UNL     1     -10.430   8.766  71.935  1.00  0.00    -0.423 C  
HETATM    5  C   UNL     1      -9.534   9.267  70.823  1.00  0.00    -0.336 C  
HETATM    6  C   UNL     1     -10.157   8.712  69.534  1.00  0.00    -0.203 C  
ENDROOT
BRANCH   6   7
HETATM    7  C   UNL     1     -10.872   9.799  68.690  1.00  0.00    -0.223 C  
BRANCH   7   8
HETATM    8  C   UNL     1     -10.424   9.850  67.253  1.00  0.00    -0.319 A  
HETATM    9  C   UNL     1      -9.914   8.806  66.506  1.00  0.00    -0.290 A  
HETATM   10  N   UNL     1      -9.734   9.241  65.217  1.00  0.00    -0.454 NA 
HETATM   11  C   UNL     1     -10.139  10.550  65.098  1.00  0.00    -0.314 A  
HETATM   12  H   UNL     1      -9.356   8.675  64.457  1.00  0.00     0.000 HD 
HETATM   13  C   UNL     1     -10.504  10.972  66.373  1.00  0.00    -0.312 A  
HETATM   14  C   UNL     1     -10.927  12.302  66.542  1.00  0.00    -0.320 A  
HETATM   15  C   UNL     1     -11.081  13.158  65.442  1.00  0.00    -0.299 A  
HETATM   16  C   UNL     1     -10.738  12.679  64.169  1.00  0.00    -0.435 A  
HETATM   17  C   UNL     1     -10.232  11.383  63.978  1.00  0.00    -0.398 A  
BRANCH  15  18
HETATM   18  C   UNL     1     -11.732  14.519  65.597  1.00  0.00    -0.335 C  
BRANCH  18  19
HETATM   19  C   UNL     1     -10.745  15.669  65.753  1.00  0.00    -0.341 C  
BRANCH  19  20
HETATM   20  S   UNL     1     -10.430  16.058  67.460  1.00  0.00    -0.300 S  
HETATM   21  O   UNL     1      -9.151  15.487  67.830  1.00  0.00    -0.177 OA 
HETATM   22  O   UNL     1     -11.627  15.786  68.225  1.00  0.00    -0.361 OA 
BRANCH  20  23
HETATM   23  C   UNL     1     -10.222  17.827  67.386  1.00  0.00    -0.353 A  
HETATM   24  C   UNL     1     -10.315  18.476  66.150  1.00  0.00    -0.457 A  
HETATM   25  C   UNL     1     -10.111  19.853  66.084  1.00  0.00    -0.611 A  
HETATM   26  C   UNL     1      -9.824  20.574  67.244  1.00  0.00    -0.581 A  
HETATM   27  C   UNL     1      -9.748  19.924  68.478  1.00  0.00    -0.421 A  
HETATM   28  C   UNL     1      -9.951  18.545  68.555  1.00  0.00    -0.419 A  
ENDBRANCH  20  23
ENDBRANCH  19  20
ENDBRANCH  18  19
ENDBRANCH  15  18
ENDBRANCH   7   8
ENDBRANCH   6   7
TORSDOF 6
ENDMDL
MODEL       22
REMARK 921   NORMALIZED FREE ENERGY PREDICTED BY IDOCK:   -6.48 KCAL/MOL
REMARK 922        TOTAL FREE ENERGY PREDICTED BY IDOCK:  -10.33 KCAL/MOL
REMARK 923 INTER-LIGAND FREE ENERGY PREDICTED BY IDOCK:   -8.64 KCAL/MOL
REMARK 924 INTRA-LIGAND FREE ENERGY PREDICTED BY IDOCK:   -1.69 KCAL/MOL
REMARK 927      BINDING AFFINITY PREDICTED BY RF-SCORE:    0.00 PKD
ROOT
HETATM    1  C   UNL     1     -10.800   6.820  70.631  1.00  0.00    -0.250 C  
HETATM    2  N   UNL     1     -11.910   7.770  70.617  1.00  0.00    -0.189 NA 
HETATM    3  C   UNL     1     -12.981   7.336  71.523  1.00  0.00    -0.389 C  
HETATM    4  C   UNL     1     -13.693   8.620  71.884  1.00  0.00    -0.462 C  
HETATM    5  C   UNL     1     -12.557   9.610  72.022  1.00  0.00    -0.443 C  
HETATM    6  C   UNL     1     -11.498   9.137  71.016  1.00  0.00    -0.306 C  
ENDROOT
BRANCH   6   7
HETATM    7  C   UNL     1     -11.400  10.051  69.766  1.00  0.00    -0.281 C  
BRANCH   7   8
HETATM    8  C   UNL     1     -10.014  10.146  69.185  1.00  0.00    -0.221 A  
HETATM    9  C   UNL     1      -8.822   9.904  69.840  1.00  0.00    -0.195 A  
HETATM   10  N   UNL     1      -7.799   9.993  68.928  1.00  0.00    -0.089 NA 
HETATM   11  C   UNL     1      -8.302  10.269  67.678  1.00  0.00    -0.114 A  
HETATM   12  H   UNL     1      -6.810   9.872  69.147  1.00  0.00     0.000 HD 
HETATM   13  C   UNL     1      -9.674  10.441  67.830  1.00  0.00    -0.181 A  
HETATM   14  C   UNL     1     -10.436  10.774  66.695  1.00  0.00    -0.302 A  
HETATM   15  C   UNL     1      -9.852  10.828  65.422  1.00  0.00    -0.317 A  
HETATM   16  C   UNL     1      -8.471  10.610  65.310  1.00  0.00    -0.152 A  
HETATM   17  C   UNL     1      -7.668  10.360  66.435  1.00  0.00    -0.125 A  
BRANCH  15  18
HETATM   18  C   UNL     1     -10.705  10.981  64.178  1.00  0.00    -0.344 C  
BRANCH  18  19
HETATM   19  C   UNL     1     -10.796  12.409  63.654  1.00  0.00    -0.462 C  
BRANCH  19  20
HETATM   20  S   UNL     1     -12.171  13.295  64.351  1.00  0.00    -0.379 S  
HETATM   21  O   UNL     1     -13.223  12.345  64.647  1.00  0.00    -0.822 OA 
HETATM   22  O   UNL     1     -12.421  14.471  63.546  1.00  0.00    -0.727 OA 
BRANCH  20  23
HETATM   23  C   UNL     1     -11.489  13.837  65.907  1.00  0.00    -0.322 A  
HETATM   24  C   UNL     1     -10.189  14.351  65.942  1.00  0.00    -0.341 A  
HETATM   25  C   UNL     1      -9.639  14.736  67.164  1.00  0.00    -0.231 A  
HETATM   26  C   UNL     1     -10.386  14.613  68.337  1.00  0.00    -0.237 A  
HETATM   27  C   UNL     1     -11.690  14.115  68.293  1.00  0.00    -0.383 A  
HETATM   28  C   UNL     1     -12.250  13.727  67.075  1.00  0.00    -0.381 A  
ENDBRANCH  20  23
ENDBRANCH  19  20
ENDBRANCH  18  19
ENDBRANCH  15  18
ENDBRANCH   7   8
ENDBRANCH   6   7
TORSDOF 6
ENDMDL
MODEL       23
REMARK 921   NORMALIZED FREE ENERGY PREDICTED BY IDOCK:   -6.47 KCAL/MOL
REMARK 922        TOTAL FREE ENERGY PREDICTED BY IDOCK:  -10.32 KCAL/MOL
REMARK 923 INTER-LIGAND FREE ENERGY PREDICTED BY IDOCK:   -8.91 KCAL/MOL
REMARK 924 INTRA-LIGAND FREE ENERGY PREDICTED BY IDOCK:   -1.41 KCAL/MOL
REMARK 927      BINDING AFFINITY PREDICTED BY RF-SCORE:    0.00 PKD
ROOT
HETATM    1  C   UNL     1     -12.111  16.558  73.682  1.00  0.00    -0.354 C  
HETATM    2  N   UNL     1     -12.195  15.461  72.722  1.00  0.00    -0.383 NA 
HETATM    3  C   UNL     1     -13.398  14.653  72.955  1.00  0.00    -0.487 C  
HETATM    4  C   UNL     1     -13.681  14.026  71.608  1.00  0.00    -0.419 C  
HETATM    5  C   UNL     1     -13.354  15.143  70.640  1.00  0.00    -0.304 C  
HETATM    6  C   UNL     1     -12.223  15.931  71.316  1.00  0.00    -0.422 C  
ENDROOT
BRANCH   6   7
HETATM    7  C   UNL     1     -10.842  15.703  70.648  1.00  0.00    -0.319 C  
BRANCH   7   8
HETATM    8  C   UNL     1     -10.710  16.331  69.286  1.00  0.00    -0.307 A  
HETATM    9  C   UNL     1     -10.310  17.622  69.002  1.00  0.00    -0.272 A  
HETATM   10  N   UNL     1     -10.219  17.760  67.640  1.00  0.00    -0.342 NA 
HETATM   11  C   UNL     1     -10.532  16.573  67.022  1.00  0.00    -0.289 A  
HETATM   12  H   UNL     1      -9.956  18.620  67.156  1.00  0.00     0.000 HD 
HETATM   13  C   UNL     1     -10.913  15.689  68.026  1.00  0.00    -0.318 A  
HETATM   14  C   UNL     1     -11.325  14.395  67.658  1.00  0.00    -0.348 A  
HETATM   15  C   UNL     1     -11.255  13.965  66.325  1.00  0.00    -0.310 A  
HETATM   16  C   UNL     1     -10.828  14.878  65.350  1.00  0.00    -0.379 A  
HETATM   17  C   UNL     1     -10.492  16.203  65.674  1.00  0.00    -0.402 A  
BRANCH  15  18
HETATM   18  C   UNL     1     -11.499  12.514  65.960  1.00  0.00    -0.423 C  
BRANCH  18  19
HETATM   19  C   UNL     1     -11.876  11.628  67.141  1.00  0.00    -0.006 C  
BRANCH  19  20
HETATM   20  S   UNL     1     -10.512  10.628  67.694  1.00  0.00    -0.246 S  
HETATM   21  O   UNL     1      -9.366  11.491  67.893  1.00  0.00    -0.161 OA 
HETATM   22  O   UNL     1     -10.433   9.450  66.859  1.00  0.00    -0.245 OA 
BRANCH  20  23
HETATM   23  C   UNL     1     -11.080  10.116  69.304  1.00  0.00    -0.225 A  
HETATM   24  C   UNL     1     -10.614   8.911  69.842  1.00  0.00    -0.229 A  
HETATM   25  C   UNL     1     -11.088   8.489  71.082  1.00  0.00    -0.312 A  
HETATM   26  C   UNL     1     -12.015   9.267  71.779  1.00  0.00    -0.455 A  
HETATM   27  C   UNL     1     -12.464  10.475  71.245  1.00  0.00    -0.524 A  
HETATM   28  C   UNL     1     -11.995  10.909  70.004  1.00  0.00    -0.429 A  
ENDBRANCH  20  23
ENDBRANCH  19  20
ENDBRANCH  18  19
ENDBRANCH  15  18
ENDBRANCH   7   8
ENDBRANCH   6   7
TORSDOF 6
ENDMDL
MODEL       24
REMARK 921   NORMALIZED FREE ENERGY PREDICTED BY IDOCK:   -6.46 KCAL/MOL
REMARK 922        TOTAL FREE ENERGY PREDICTED BY IDOCK:  -10.30 KCAL/MOL
REMARK 923 INTER-LIGAND FREE ENERGY PREDICTED BY IDOCK:   -9.27 KCAL/MOL
REMARK 924 INTRA-LIGAND FREE ENERGY PREDICTED BY IDOCK:   -1.03 KCAL/MOL
REMARK 927      BINDING AFFINITY PREDICTED BY RF-SCORE:    0.00 PKD
ROOT
HETATM    1  C   UNL     1     -10.969   5.939  69.656  1.00  0.00    -0.377 C  
HETATM    2  N   UNL     1     -11.287   7.108  70.471  1.00  0.00    -0.288 NA 
HETATM    3  C   UNL     1     -11.301   6.763  71.897  1.00  0.00    -0.271 C  
HETATM    4  C   UNL     1     -11.006   8.073  72.592  1.00  0.00    -0.448 C  
HETATM    5  C   UNL     1      -9.970   8.708  71.689  1.00  0.00    -0.353 C  
HETATM    6  C   UNL     1     -10.325   8.219  70.277  1.00  0.00    -0.209 C  
ENDROOT
BRANCH   6   7
HETATM    7  C   UNL     1     -10.958   9.326  69.395  1.00  0.00    -0.138 C  
BRANCH   7   8
HETATM    8  C   UNL     1     -10.487   9.312  67.964  1.00  0.00    -0.275 A  
HETATM    9  C   UNL     1     -10.107   8.208  67.227  1.00  0.00    -0.241 A  
HETATM   10  N   UNL     1      -9.853   8.610  65.940  1.00  0.00    -0.464 NA 
HETATM   11  C   UNL     1     -10.080   9.961  65.813  1.00  0.00    -0.247 A  
HETATM   12  H   UNL     1      -9.541   7.997  65.187  1.00  0.00     0.000 HD 
HETATM   13  C   UNL     1     -10.405  10.432  67.081  1.00  0.00    -0.290 A  
HETATM   14  C   UNL     1     -10.652  11.807  67.241  1.00  0.00    -0.259 A  
HETATM   15  C   UNL     1     -10.676  12.671  66.137  1.00  0.00    -0.293 A  
HETATM   16  C   UNL     1     -10.380  12.146  64.871  1.00  0.00    -0.321 A  
HETATM   17  C   UNL     1     -10.045  10.794  64.690  1.00  0.00    -0.410 A  
BRANCH  15  18
HETATM   18  C   UNL     1     -11.144  14.106  66.280  1.00  0.00    -0.318 C  
BRANCH  18  19
HETATM   19  C   UNL     1     -12.118  14.334  67.429  1.00  0.00    -0.336 C  
BRANCH  19  20
HETATM   20  S   UNL     1     -11.348  15.142  68.814  1.00  0.00    -0.319 S  
HETATM   21  O   UNL     1     -11.606  16.564  68.714  1.00  0.00    -0.251 OA 
HETATM   22  O   UNL     1     -10.005  14.628  68.962  1.00  0.00    -0.226 OA 
BRANCH  20  23
HETATM   23  C   UNL     1     -12.322  14.519  70.172  1.00  0.00    -0.342 A  
HETATM   24  C   UNL     1     -13.111  15.406  70.911  1.00  0.00    -0.528 A  
HETATM   25  C   UNL     1     -13.840  14.928  71.998  1.00  0.00    -0.563 A  
HETATM   26  C   UNL     1     -13.784  13.576  72.339  1.00  0.00    -0.704 A  
HETATM   27  C   UNL     1     -13.006  12.692  71.588  1.00  0.00    -0.400 A  
HETATM   28  C   UNL     1     -12.273  13.159  70.496  1.00  0.00    -0.405 A  
ENDBRANCH  20  23
ENDBRANCH  19  20
ENDBRANCH  18  19
ENDBRANCH  15  18
ENDBRANCH   7   8
ENDBRANCH   6   7
TORSDOF 6
ENDMDL
MODEL       25
REMARK 921   NORMALIZED FREE ENERGY PREDICTED BY IDOCK:   -6.44 KCAL/MOL
REMARK 922        TOTAL FREE ENERGY PREDICTED BY IDOCK:  -10.28 KCAL/MOL
REMARK 923 INTER-LIGAND FREE ENERGY PREDICTED BY IDOCK:   -9.15 KCAL/MOL
REMARK 924 INTRA-LIGAND FREE ENERGY PREDICTED BY IDOCK:   -1.13 KCAL/MOL
REMARK 927      BINDING AFFINITY PREDICTED BY RF-SCORE:    0.00 PKD
ROOT
HETATM    1  C   UNL     1      -8.172   4.954  71.647  1.00  0.00    -0.114 C  
HETATM    2  N   UNL     1      -8.992   6.066  72.120  1.00  0.00    -0.142 NA 
HETATM    3  C   UNL     1      -8.409   6.671  73.323  1.00  0.00    -0.119 C  
HETATM    4  C   UNL     1      -8.940   8.087  73.311  1.00  0.00    -0.338 C  
HETATM    5  C   UNL     1      -8.898   8.452  71.843  1.00  0.00    -0.267 C  
HETATM    6  C   UNL     1      -9.153   7.132  71.102  1.00  0.00    -0.152 C  
ENDROOT
BRANCH   6   7
HETATM    7  C   UNL     1     -10.567   7.056  70.468  1.00  0.00    -0.245 C  
BRANCH   7   8
HETATM    8  C   UNL     1     -11.584   7.945  71.135  1.00  0.00    -0.302 A  
HETATM    9  C   UNL     1     -12.373   7.632  72.224  1.00  0.00    -0.191 A  
HETATM   10  N   UNL     1     -13.081   8.751  72.585  1.00  0.00    -0.608 NA 
HETATM   11  C   UNL     1     -12.754   9.803  71.762  1.00  0.00    -0.426 A  
HETATM   12  H   UNL     1     -13.752   8.795  73.352  1.00  0.00     0.000 HD 
HETATM   13  C   UNL     1     -11.877   9.304  70.804  1.00  0.00    -0.303 A  
HETATM   14  C   UNL     1     -11.411  10.175  69.804  1.00  0.00    -0.312 A  
HETATM   15  C   UNL     1     -11.733  11.540  69.827  1.00  0.00    -0.426 A  
HETATM   16  C   UNL     1     -12.589  12.008  70.833  1.00  0.00    -0.347 A  
HETATM   17  C   UNL     1     -13.140  11.147  71.796  1.00  0.00    -0.536 A  
BRANCH  15  18
HETATM   18  C   UNL     1     -11.066  12.514  68.875  1.00  0.00    -0.309 C  
BRANCH  18  19
HETATM   19  C   UNL     1     -11.875  13.777  68.606  1.00  0.00    -0.374 C  
BRANCH  19  20
HETATM   20  S   UNL     1     -11.146  15.215  69.359  1.00  0.00    -0.295 S  
HETATM   21  O   UNL     1     -11.506  16.375  68.569  1.00  0.00    -0.351 OA 
HETATM   22  O   UNL     1      -9.767  14.921  69.681  1.00  0.00    -0.103 OA 
BRANCH  20  23
HETATM   23  C   UNL     1     -12.054  15.311  70.890  1.00  0.00    -0.344 A  
HETATM   24  C   UNL     1     -13.447  15.430  70.853  1.00  0.00    -0.427 A  
HETATM   25  C   UNL     1     -14.155  15.547  72.047  1.00  0.00    -0.598 A  
HETATM   26  C   UNL     1     -13.476  15.538  73.267  1.00  0.00    -0.512 A  
HETATM   27  C   UNL     1     -12.086  15.402  73.299  1.00  0.00    -0.591 A  
HETATM   28  C   UNL     1     -11.368  15.284  72.108  1.00  0.00    -0.414 A  
ENDBRANCH  20  23
ENDBRANCH  19  20
ENDBRANCH  18  19
ENDBRANCH  15  18
ENDBRANCH   7   8
ENDBRANCH   6   7
TORSDOF 6
ENDMDL
MODEL       26
REMARK 921   NORMALIZED FREE ENERGY PREDICTED BY IDOCK:   -6.43 KCAL/MOL
REMARK 922        TOTAL FREE ENERGY PREDICTED BY IDOCK:  -10.27 KCAL/MOL
REMARK 923 INTER-LIGAND FREE ENERGY PREDICTED BY IDOCK:   -8.52 KCAL/MOL
REMARK 924 INTRA-LIGAND FREE ENERGY PREDICTED BY IDOCK:   -1.74 KCAL/MOL
REMARK 927      BINDING AFFINITY PREDICTED BY RF-SCORE:    0.00 PKD
ROOT
HETATM    1  C   UNL     1     -11.681  16.136  71.550  1.00  0.00    -0.464 C  
HETATM    2  N   UNL     1     -11.724  15.682  70.163  1.00  0.00    -0.333 NA 
HETATM    3  C   UNL     1     -10.860  16.513  69.314  1.00  0.00    -0.326 C  
HETATM    4  C   UNL     1     -10.510  15.607  68.155  1.00  0.00    -0.259 C  
HETATM    5  C   UNL     1     -10.322  14.262  68.823  1.00  0.00    -0.239 C  
HETATM    6  C   UNL     1     -11.296  14.271  70.009  1.00  0.00    -0.165 C  
ENDROOT
BRANCH   6   7
HETATM    7  C   UNL     1     -12.532  13.360  69.785  1.00  0.00    -0.112 C  
BRANCH   7   8
HETATM    8  C   UNL     1     -12.541  12.121  70.641  1.00  0.00    -0.255 A  
HETATM    9  C   UNL     1     -13.279  11.910  71.789  1.00  0.00    -0.321 A  
HETATM   10  N   UNL     1     -13.084  10.616  72.201  1.00  0.00    -0.546 NA 
HETATM   11  C   UNL     1     -12.244   9.963  71.329  1.00  0.00    -0.387 A  
HETATM   12  H   UNL     1     -13.501  10.198  73.033  1.00  0.00     0.000 HD 
HETATM   13  C   UNL     1     -11.835  10.905  70.390  1.00  0.00    -0.449 A  
HETATM   14  C   UNL     1     -10.929  10.504  69.391  1.00  0.00    -0.297 A  
HETATM   15  C   UNL     1     -10.526   9.166  69.275  1.00  0.00    -0.231 A  
HETATM   16  C   UNL     1     -10.994   8.242  70.221  1.00  0.00    -0.233 A  
HETATM   17  C   UNL     1     -11.831   8.628  71.280  1.00  0.00    -0.344 A  
BRANCH  15  18
HETATM   18  C   UNL     1      -9.719   8.695  68.080  1.00  0.00    -0.178 C  
BRANCH  18  19
HETATM   19  C   UNL     1     -10.343   9.034  66.732  1.00  0.00    -0.240 C  
BRANCH  19  20
HETATM   20  S   UNL     1      -9.308  10.107  65.763  1.00  0.00    -0.205 S  
HETATM   21  O   UNL     1      -8.884   9.386  64.580  1.00  0.00    -0.201 OA 
HETATM   22  O   UNL     1      -8.350  10.744  66.640  1.00  0.00    -0.131 OA 
BRANCH  20  23
HETATM   23  C   UNL     1     -10.476  11.348  65.240  1.00  0.00    -0.283 A  
HETATM   24  C   UNL     1     -10.529  11.713  63.891  1.00  0.00    -0.433 A  
HETATM   25  C   UNL     1     -11.412  12.712  63.488  1.00  0.00    -0.557 A  
HETATM   26  C   UNL     1     -12.239  13.336  64.424  1.00  0.00    -0.449 A  
HETATM   27  C   UNL     1     -12.193  12.957  65.767  1.00  0.00    -0.498 A  
HETATM   28  C   UNL     1     -11.312  11.956  66.182  1.00  0.00    -0.383 A  
ENDBRANCH  20  23
ENDBRANCH  19  20
ENDBRANCH  18  19
ENDBRANCH  15  18
ENDBRANCH   7   8
ENDBRANCH   6   7
TORSDOF 6
ENDMDL
MODEL       27
REMARK 921   NORMALIZED FREE ENERGY PREDICTED BY IDOCK:   -6.41 KCAL/MOL
REMARK 922        TOTAL FREE ENERGY PREDICTED BY IDOCK:  -10.24 KCAL/MOL
REMARK 923 INTER-LIGAND FREE ENERGY PREDICTED BY IDOCK:   -9.38 KCAL/MOL
REMARK 924 INTRA-LIGAND FREE ENERGY PREDICTED BY IDOCK:   -0.86 KCAL/MOL
REMARK 927      BINDING AFFINITY PREDICTED BY RF-SCORE:    0.00 PKD
ROOT
HETATM    1  C   UNL     1     -10.529  19.427  65.982  1.00  0.00    -0.505 C  
HETATM    2  N   UNL     1      -9.549  18.544  66.607  1.00  0.00    -0.309 NA 
HETATM    3  C   UNL     1      -9.057  19.117  67.866  1.00  0.00    -0.302 C  
HETATM    4  C   UNL     1      -8.604  17.913  68.661  1.00  0.00    -0.272 C  
HETATM    5  C   UNL     1      -9.660  16.877  68.336  1.00  0.00    -0.255 C  
HETATM    6  C   UNL     1     -10.097  17.197  66.899  1.00  0.00    -0.298 C  
ENDROOT
BRANCH   6   7
HETATM    7  C   UNL     1      -9.570  16.170  65.864  1.00  0.00    -0.359 C  
BRANCH   7   8
HETATM    8  C   UNL     1     -10.656  15.464  65.095  1.00  0.00    -0.458 A  
HETATM    9  C   UNL     1     -11.668  16.051  64.361  1.00  0.00    -0.134 A  
HETATM   10  N   UNL     1     -12.378  15.061  63.730  1.00  0.00    -1.058 NA 
HETATM   11  C   UNL     1     -11.836  13.831  64.020  1.00  0.00    -0.370 A  
HETATM   12  H   UNL     1     -13.190  15.215  63.131  1.00  0.00     0.000 HD 
HETATM   13  C   UNL     1     -10.806  14.053  64.930  1.00  0.00    -0.421 A  
HETATM   14  C   UNL     1     -10.100  12.943  65.426  1.00  0.00    -0.265 A  
HETATM   15  C   UNL     1     -10.351  11.651  64.943  1.00  0.00    -0.331 A  
HETATM   16  C   UNL     1     -11.372  11.477  63.998  1.00  0.00    -0.380 A  
HETATM   17  C   UNL     1     -12.152  12.554  63.546  1.00  0.00    -0.653 A  
BRANCH  15  18
HETATM   18  C   UNL     1      -9.454  10.489  65.322  1.00  0.00    -0.281 C  
BRANCH  18  19
HETATM   19  C   UNL     1     -10.134   9.429  66.180  1.00  0.00    -0.254 C  
BRANCH  19  20
HETATM   20  S   UNL     1     -10.502  10.023  67.816  1.00  0.00    -0.251 S  
HETATM   21  O   UNL     1     -11.817  10.631  67.796  1.00  0.00    -0.460 OA 
HETATM   22  O   UNL     1      -9.349  10.737  68.320  1.00  0.00    -0.149 OA 
BRANCH  20  23
HETATM   23  C   UNL     1     -10.635   8.495  68.725  1.00  0.00    -0.133 A  
HETATM   24  C   UNL     1     -10.705   8.534  70.121  1.00  0.00    -0.240 A  
HETATM   25  C   UNL     1     -10.767   7.339  70.835  1.00  0.00    -0.251 A  
HETATM   26  C   UNL     1     -10.766   6.118  70.158  1.00  0.00    -0.366 A  
HETATM   27  C   UNL     1     -10.713   6.086  68.763  1.00  0.00    -0.375 A  
HETATM   28  C   UNL     1     -10.651   7.277  68.038  1.00  0.00    -0.247 A  
ENDBRANCH  20  23
ENDBRANCH  19  20
ENDBRANCH  18  19
ENDBRANCH  15  18
ENDBRANCH   7   8
ENDBRANCH   6   7
TORSDOF 6
ENDMDL
MODEL       28
REMARK 921   NORMALIZED FREE ENERGY PREDICTED BY IDOCK:   -6.41 KCAL/MOL
REMARK 922        TOTAL FREE ENERGY PREDICTED BY IDOCK:  -10.23 KCAL/MOL
REMARK 923 INTER-LIGAND FREE ENERGY PREDICTED BY IDOCK:   -8.41 KCAL/MOL
REMARK 924 INTRA-LIGAND FREE ENERGY PREDICTED BY IDOCK:   -1.82 KCAL/MOL
REMARK 927      BINDING AFFINITY PREDICTED BY RF-SCORE:    0.00 PKD
ROOT
HETATM    1  C   UNL     1     -10.521  19.291  65.954  1.00  0.00    -0.451 C  
HETATM    2  N   UNL     1      -9.491  18.415  66.507  1.00  0.00    -0.312 NA 
HETATM    3  C   UNL     1      -8.920  18.988  67.732  1.00  0.00    -0.293 C  
HETATM    4  C   UNL     1      -8.401  17.786  68.488  1.00  0.00    -0.298 C  
HETATM    5  C   UNL     1      -9.466  16.740  68.231  1.00  0.00    -0.240 C  
HETATM    6  C   UNL     1     -10.003  17.062  66.829  1.00  0.00    -0.295 C  
ENDROOT
BRANCH   6   7
HETATM    7  C   UNL     1      -9.537  16.045  65.755  1.00  0.00    -0.311 C  
BRANCH   7   8
HETATM    8  C   UNL     1     -10.667  15.350  65.040  1.00  0.00    -0.460 A  
HETATM    9  C   UNL     1     -11.777  15.942  64.470  1.00  0.00    -0.161 A  
HETATM   10  N   UNL     1     -12.505  14.972  63.827  1.00  0.00    -1.049 NA 
HETATM   11  C   UNL     1     -11.880  13.753  63.947  1.00  0.00    -0.327 A  
HETATM   12  H   UNL     1     -13.382  15.133  63.332  1.00  0.00     0.000 HD 
HETATM   13  C   UNL     1     -10.770  13.952  64.762  1.00  0.00    -0.437 A  
HETATM   14  C   UNL     1      -9.965  12.844  65.080  1.00  0.00    -0.175 A  
HETATM   15  C   UNL     1     -10.208  11.587  64.509  1.00  0.00    -0.338 A  
HETATM   16  C   UNL     1     -11.315  11.439  63.662  1.00  0.00    -0.299 A  
HETATM   17  C   UNL     1     -12.187  12.507  63.392  1.00  0.00    -0.613 A  
BRANCH  15  18
HETATM   18  C   UNL     1      -9.224  10.446  64.686  1.00  0.00    -0.282 C  
BRANCH  18  19
HETATM   19  C   UNL     1      -9.752   9.291  65.527  1.00  0.00    -0.177 C  
BRANCH  19  20
HETATM   20  S   UNL     1      -9.138   9.338  67.196  1.00  0.00    -0.131 S  
HETATM   21  O   UNL     1      -7.702   9.523  67.148  1.00  0.00    -0.091 OA 
HETATM   22  O   UNL     1      -9.734   8.249  67.940  1.00  0.00    -0.152 OA 
BRANCH  20  23
HETATM   23  C   UNL     1      -9.851  10.859  67.793  1.00  0.00    -0.175 A  
HETATM   24  C   UNL     1     -11.242  10.964  67.904  1.00  0.00    -0.387 A  
HETATM   25  C   UNL     1     -11.803  12.166  68.331  1.00  0.00    -0.360 A  
HETATM   26  C   UNL     1     -10.981  13.249  68.648  1.00  0.00    -0.294 A  
HETATM   27  C   UNL     1      -9.593  13.133  68.550  1.00  0.00    -0.118 A  
HETATM   28  C   UNL     1      -9.020  11.933  68.125  1.00  0.00    -0.185 A  
ENDBRANCH  20  23
ENDBRANCH  19  20
ENDBRANCH  18  19
ENDBRANCH  15  18
ENDBRANCH   7   8
ENDBRANCH   6   7
TORSDOF 6
ENDMDL
MODEL       29
REMARK 921   NORMALIZED FREE ENERGY PREDICTED BY IDOCK:   -6.37 KCAL/MOL
REMARK 922        TOTAL FREE ENERGY PREDICTED BY IDOCK:  -10.19 KCAL/MOL
REMARK 923 INTER-LIGAND FREE ENERGY PREDICTED BY IDOCK:   -8.61 KCAL/MOL
REMARK 924 INTRA-LIGAND FREE ENERGY PREDICTED BY IDOCK:   -1.57 KCAL/MOL
REMARK 927      BINDING AFFINITY PREDICTED BY RF-SCORE:    0.00 PKD
ROOT
HETATM    1  C   UNL     1      -8.476  10.257  69.659  1.00  0.00    -0.115 C  
HETATM    2  N   UNL     1      -8.661   9.285  68.585  1.00  0.00    -0.131 NA 
HETATM    3  C   UNL     1      -9.228   8.034  69.105  1.00  0.00    -0.151 C  
HETATM    4  C   UNL     1      -9.926   7.427  67.909  1.00  0.00    -0.201 C  
HETATM    5  C   UNL     1     -10.531   8.633  67.222  1.00  0.00    -0.360 C  
HETATM    6  C   UNL     1      -9.555   9.782  67.511  1.00  0.00    -0.150 C  
ENDROOT
BRANCH   6   7
HETATM    7  C   UNL     1      -8.720  10.194  66.271  1.00  0.00    -0.152 C  
BRANCH   7   8
HETATM    8  C   UNL     1      -9.529  10.840  65.177  1.00  0.00    -0.271 A  
HETATM    9  C   UNL     1      -9.723  10.364  63.896  1.00  0.00    -0.305 A  
HETATM   10  N   UNL     1     -10.609  11.191  63.253  1.00  0.00    -0.727 NA 
HETATM   11  C   UNL     1     -11.019  12.195  64.099  1.00  0.00    -0.361 A  
HETATM   12  H   UNL     1     -10.919  11.078  62.287  1.00  0.00     0.000 HD 
HETATM   13  C   UNL     1     -10.302  12.038  65.280  1.00  0.00    -0.311 A  
HETATM   14  C   UNL     1     -10.505  12.968  66.316  1.00  0.00    -0.285 A  
HETATM   15  C   UNL     1     -11.481  13.969  66.207  1.00  0.00    -0.358 A  
HETATM   16  C   UNL     1     -12.208  14.067  65.012  1.00  0.00    -0.448 A  
HETATM   17  C   UNL     1     -11.969  13.207  63.928  1.00  0.00    -0.550 A  
BRANCH  15  18
HETATM   18  C   UNL     1     -11.843  14.837  67.397  1.00  0.00    -0.320 C  
BRANCH  18  19
HETATM   19  C   UNL     1     -10.928  14.658  68.602  1.00  0.00    -0.256 C  
BRANCH  19  20
HETATM   20  S   UNL     1     -11.797  14.858  70.141  1.00  0.00    -0.331 S  
HETATM   21  O   UNL     1     -13.036  15.562  69.878  1.00  0.00    -0.082 OA 
HETATM   22  O   UNL     1     -10.864  15.323  71.143  1.00  0.00    -0.281 OA 
BRANCH  20  23
HETATM   23  C   UNL     1     -12.217  13.169  70.532  1.00  0.00    -0.328 A  
HETATM   24  C   UNL     1     -11.787  12.144  69.682  1.00  0.00    -0.391 A  
HETATM   25  C   UNL     1     -12.149  10.828  69.963  1.00  0.00    -0.423 A  
HETATM   26  C   UNL     1     -12.927  10.541  71.086  1.00  0.00    -0.506 A  
HETATM   27  C   UNL     1     -13.340  11.566  71.939  1.00  0.00    -0.408 A  
HETATM   28  C   UNL     1     -12.982  12.888  71.667  1.00  0.00    -0.410 A  
ENDBRANCH  20  23
ENDBRANCH  19  20
ENDBRANCH  18  19
ENDBRANCH  15  18
ENDBRANCH   7   8
ENDBRANCH   6   7
TORSDOF 6
ENDMDL
MODEL       30
REMARK 921   NORMALIZED FREE ENERGY PREDICTED BY IDOCK:   -6.35 KCAL/MOL
REMARK 922        TOTAL FREE ENERGY PREDICTED BY IDOCK:  -10.15 KCAL/MOL
REMARK 923 INTER-LIGAND FREE ENERGY PREDICTED BY IDOCK:   -9.18 KCAL/MOL
REMARK 924 INTRA-LIGAND FREE ENERGY PREDICTED BY IDOCK:   -0.98 KCAL/MOL
REMARK 927      BINDING AFFINITY PREDICTED BY RF-SCORE:    0.00 PKD
ROOT
HETATM    1  C   UNL     1      -7.949   7.549  70.505  1.00  0.00    -0.098 C  
HETATM    2  N   UNL     1      -9.389   7.771  70.598  1.00  0.00    -0.162 NA 
HETATM    3  C   UNL     1      -9.769   8.175  71.957  1.00  0.00    -0.227 C  
HETATM    4  C   UNL     1     -11.054   8.948  71.761  1.00  0.00    -0.433 C  
HETATM    5  C   UNL     1     -10.792   9.720  70.485  1.00  0.00    -0.387 C  
HETATM    6  C   UNL     1      -9.869   8.814  69.659  1.00  0.00    -0.183 C  
ENDROOT
BRANCH   6   7
HETATM    7  C   UNL     1     -10.587   8.156  68.452  1.00  0.00    -0.148 C  
BRANCH   7   8
HETATM    8  C   UNL     1     -10.116   8.657  67.112  1.00  0.00    -0.329 A  
HETATM    9  C   UNL     1      -9.527   7.913  66.108  1.00  0.00    -0.088 A  
HETATM   10  N   UNL     1      -9.350   8.722  65.014  1.00  0.00    -0.402 NA 
HETATM   11  C   UNL     1      -9.833   9.983  65.275  1.00  0.00    -0.318 A  
HETATM   12  H   UNL     1      -8.922   8.431  64.135  1.00  0.00     0.000 HD 
HETATM   13  C   UNL     1     -10.248   9.985  66.603  1.00  0.00    -0.288 A  
HETATM   14  C   UNL     1     -10.756  11.180  67.144  1.00  0.00    -0.305 A  
HETATM   15  C   UNL     1     -10.942  12.315  66.342  1.00  0.00    -0.326 A  
HETATM   16  C   UNL     1     -10.545  12.257  64.999  1.00  0.00    -0.322 A  
HETATM   17  C   UNL     1      -9.955  11.107  64.450  1.00  0.00    -0.354 A  
BRANCH  15  18
HETATM   18  C   UNL     1     -11.679  13.531  66.870  1.00  0.00    -0.424 C  
BRANCH  18  19
HETATM   19  C   UNL     1     -11.842  13.552  68.385  1.00  0.00    -0.373 C  
BRANCH  19  20
HETATM   20  S   UNL     1     -11.176  15.032  69.112  1.00  0.00    -0.301 S  
HETATM   21  O   UNL     1     -11.719  16.173  68.404  1.00  0.00    -0.320 OA 
HETATM   22  O   UNL     1      -9.750  14.862  69.286  1.00  0.00    -0.203 OA 
BRANCH  20  23
HETATM   23  C   UNL     1     -11.928  15.001  70.729  1.00  0.00    -0.318 A  
HETATM   24  C   UNL     1     -11.714  16.072  71.603  1.00  0.00    -0.583 A  
HETATM   25  C   UNL     1     -12.267  16.030  72.882  1.00  0.00    -0.621 A  
HETATM   26  C   UNL     1     -13.030  14.931  73.279  1.00  0.00    -0.635 A  
HETATM   27  C   UNL     1     -13.253  13.872  72.396  1.00  0.00    -0.587 A  
HETATM   28  C   UNL     1     -12.705  13.904  71.113  1.00  0.00    -0.441 A  
ENDBRANCH  20  23
ENDBRANCH  19  20
ENDBRANCH  18  19
ENDBRANCH  15  18
ENDBRANCH   7   8
ENDBRANCH   6   7
TORSDOF 6
ENDMDL
MODEL       31
REMARK 921   NORMALIZED FREE ENERGY PREDICTED BY IDOCK:   -6.35 KCAL/MOL
REMARK 922        TOTAL FREE ENERGY PREDICTED BY IDOCK:  -10.15 KCAL/MOL
REMARK 923 INTER-LIGAND FREE ENERGY PREDICTED BY IDOCK:   -8.72 KCAL/MOL
REMARK 924 INTRA-LIGAND FREE ENERGY PREDICTED BY IDOCK:   -1.43 KCAL/MOL
REMARK 927      BINDING AFFINITY PREDICTED BY RF-SCORE:    0.00 PKD
ROOT
HETATM    1  C   UNL     1     -10.613  11.971  63.349  1.00  0.00    -0.428 C  
HETATM    2  N   UNL     1     -10.314  11.249  64.583  1.00  0.00    -0.293 NA 
HETATM    3  C   UNL     1      -9.026  10.552  64.480  1.00  0.00    -0.209 C  
HETATM    4  C   UNL     1      -8.570  10.417  65.916  1.00  0.00    -0.165 C  
HETATM    5  C   UNL     1      -8.989  11.737  66.528  1.00  0.00    -0.196 C  
HETATM    6  C   UNL     1     -10.261  12.138  65.768  1.00  0.00    -0.254 C  
ENDROOT
BRANCH   6   7
HETATM    7  C   UNL     1     -11.549  11.976  66.615  1.00  0.00    -0.389 C  
BRANCH   7   8
HETATM    8  C   UNL     1     -11.723  13.035  67.673  1.00  0.00    -0.415 A  
HETATM    9  C   UNL     1     -11.698  14.403  67.489  1.00  0.00    -0.387 A  
HETATM   10  N   UNL     1     -12.005  15.008  68.681  1.00  0.00    -0.545 NA 
HETATM   11  C   UNL     1     -12.253  14.058  69.644  1.00  0.00    -0.332 A  
HETATM   12  H   UNL     1     -12.044  16.017  68.832  1.00  0.00     0.000 HD 
HETATM   13  C   UNL     1     -12.011  12.821  69.056  1.00  0.00    -0.288 A  
HETATM   14  C   UNL     1     -12.156  11.665  69.843  1.00  0.00    -0.373 A  
HETATM   15  C   UNL     1     -12.634  11.742  71.159  1.00  0.00    -0.412 A  
HETATM   16  C   UNL     1     -12.902  13.007  71.700  1.00  0.00    -0.376 A  
HETATM   17  C   UNL     1     -12.687  14.186  70.968  1.00  0.00    -0.433 A  
BRANCH  15  18
HETATM   18  C   UNL     1     -12.987  10.487  71.935  1.00  0.00    -0.553 C  
BRANCH  18  19
HETATM   19  C   UNL     1     -13.257   9.268  71.062  1.00  0.00    -0.090 C  
BRANCH  19  20
HETATM   20  S   UNL     1     -12.405   7.821  71.647  1.00  0.00    -0.331 S  
HETATM   21  O   UNL     1     -13.367   6.745  71.774  1.00  0.00    -0.296 OA 
HETATM   22  O   UNL     1     -11.549   8.200  72.749  1.00  0.00    -0.411 OA 
BRANCH  20  23
HETATM   23  C   UNL     1     -11.360   7.439  70.253  1.00  0.00    -0.221 A  
HETATM   24  C   UNL     1     -11.282   6.118  69.799  1.00  0.00    -0.494 A  
HETATM   25  C   UNL     1     -10.434   5.811  68.737  1.00  0.00    -0.312 A  
HETATM   26  C   UNL     1      -9.677   6.816  68.132  1.00  0.00    -0.129 A  
HETATM   27  C   UNL     1      -9.771   8.135  68.579  1.00  0.00    -0.170 A  
HETATM   28  C   UNL     1     -10.618   8.454  69.642  1.00  0.00    -0.219 A  
ENDBRANCH  20  23
ENDBRANCH  19  20
ENDBRANCH  18  19
ENDBRANCH  15  18
ENDBRANCH   7   8
ENDBRANCH   6   7
TORSDOF 6
ENDMDL
MODEL       32
REMARK 921   NORMALIZED FREE ENERGY PREDICTED BY IDOCK:   -6.27 KCAL/MOL
REMARK 922        TOTAL FREE ENERGY PREDICTED BY IDOCK:  -10.05 KCAL/MOL
REMARK 923 INTER-LIGAND FREE ENERGY PREDICTED BY IDOCK:   -9.12 KCAL/MOL
REMARK 924 INTRA-LIGAND FREE ENERGY PREDICTED BY IDOCK:   -0.92 KCAL/MOL
REMARK 927      BINDING AFFINITY PREDICTED BY RF-SCORE:    0.00 PKD
ROOT
HETATM    1  C   UNL     1     -11.372  16.315  64.478  1.00  0.00    -0.202 C  
HETATM    2  N   UNL     1     -10.954  15.089  65.151  1.00  0.00    -0.380 NA 
HETATM    3  C   UNL     1      -9.663  15.277  65.825  1.00  0.00    -0.350 C  
HETATM    4  C   UNL     1      -9.676  14.244  66.930  1.00  0.00    -0.268 C  
HETATM    5  C   UNL     1     -11.111  14.282  67.410  1.00  0.00    -0.314 C  
HETATM    6  C   UNL     1     -11.936  14.628  66.162  1.00  0.00    -0.241 C  
ENDROOT
BRANCH   6   7
HETATM    7  C   UNL     1     -12.739  13.419  65.614  1.00  0.00    -0.432 C  
BRANCH   7   8
HETATM    8  C   UNL     1     -11.912  12.448  64.813  1.00  0.00    -0.462 A  
HETATM    9  C   UNL     1     -11.719  12.453  63.445  1.00  0.00    -0.472 A  
HETATM   10  N   UNL     1     -10.814  11.471  63.130  1.00  0.00    -0.749 NA 
HETATM   11  C   UNL     1     -10.391  10.832  64.272  1.00  0.00    -0.331 A  
HETATM   12  H   UNL     1     -10.501  11.247  62.185  1.00  0.00     0.000 HD 
HETATM   13  C   UNL     1     -11.118  11.376  65.326  1.00  0.00    -0.198 A  
HETATM   14  C   UNL     1     -10.905  10.868  66.620  1.00  0.00    -0.258 A  
HETATM   15  C   UNL     1      -9.910   9.911  66.865  1.00  0.00    -0.252 A  
HETATM   16  C   UNL     1      -9.174   9.418  65.779  1.00  0.00    -0.276 A  
HETATM   17  C   UNL     1      -9.422   9.843  64.463  1.00  0.00    -0.328 A  
BRANCH  15  18
HETATM   18  C   UNL     1      -9.539   9.518  68.282  1.00  0.00    -0.151 C  
BRANCH  18  19
HETATM   19  C   UNL     1     -10.148   8.199  68.744  1.00  0.00    -0.199 C  
BRANCH  19  20
HETATM   20  S   UNL     1      -9.953   7.945  70.493  1.00  0.00    -0.191 S  
HETATM   21  O   UNL     1      -9.120   9.007  71.019  1.00  0.00    -0.222 OA 
HETATM   22  O   UNL     1      -9.638   6.553  70.727  1.00  0.00    -0.177 OA 
BRANCH  20  23
HETATM   23  C   UNL     1     -11.613   8.232  71.078  1.00  0.00    -0.275 A  
HETATM   24  C   UNL     1     -12.518   7.166  71.117  1.00  0.00    -0.400 A  
HETATM   25  C   UNL     1     -13.827   7.397  71.535  1.00  0.00    -0.483 A  
HETATM   26  C   UNL     1     -14.224   8.680  71.916  1.00  0.00    -0.507 A  
HETATM   27  C   UNL     1     -13.312   9.737  71.890  1.00  0.00    -0.530 A  
HETATM   28  C   UNL     1     -11.998   9.516  71.474  1.00  0.00    -0.475 A  
ENDBRANCH  20  23
ENDBRANCH  19  20
ENDBRANCH  18  19
ENDBRANCH  15  18
ENDBRANCH   7   8
ENDBRANCH   6   7
TORSDOF 6
ENDMDL
MODEL       33
REMARK 921   NORMALIZED FREE ENERGY PREDICTED BY IDOCK:   -6.26 KCAL/MOL
REMARK 922        TOTAL FREE ENERGY PREDICTED BY IDOCK:  -10.03 KCAL/MOL
REMARK 923 INTER-LIGAND FREE ENERGY PREDICTED BY IDOCK:   -8.35 KCAL/MOL
REMARK 924 INTRA-LIGAND FREE ENERGY PREDICTED BY IDOCK:   -1.68 KCAL/MOL
REMARK 927      BINDING AFFINITY PREDICTED BY RF-SCORE:    0.00 PKD
ROOT
HETATM    1  C   UNL     1     -10.705  10.829  66.815  1.00  0.00    -0.231 C  
HETATM    2  N   UNL     1     -10.083  11.299  65.581  1.00  0.00    -0.236 NA 
HETATM    3  C   UNL     1      -9.664  10.169  64.743  1.00  0.00    -0.322 C  
HETATM    4  C   UNL     1      -9.653  10.739  63.342  1.00  0.00    -0.375 C  
HETATM    5  C   UNL     1     -10.869  11.640  63.335  1.00  0.00    -0.453 C  
HETATM    6  C   UNL     1     -10.986  12.157  64.776  1.00  0.00    -0.310 C  
ENDROOT
BRANCH   6   7
HETATM    7  C   UNL     1     -10.576  13.646  64.920  1.00  0.00    -0.421 C  
BRANCH   7   8
HETATM    8  C   UNL     1     -11.028  14.282  66.209  1.00  0.00    -0.317 A  
HETATM    9  C   UNL     1     -12.279  14.191  66.785  1.00  0.00    -0.394 A  
HETATM   10  N   UNL     1     -12.244  14.820  68.004  1.00  0.00    -0.580 NA 
HETATM   11  C   UNL     1     -10.982  15.307  68.249  1.00  0.00    -0.276 A  
HETATM   12  H   UNL     1     -13.039  14.914  68.636  1.00  0.00     0.000 HD 
HETATM   13  C   UNL     1     -10.226  15.047  67.110  1.00  0.00    -0.249 A  
HETATM   14  C   UNL     1      -8.888  15.480  67.081  1.00  0.00    -0.233 A  
HETATM   15  C   UNL     1      -8.293  16.066  68.208  1.00  0.00    -0.164 A  
HETATM   16  C   UNL     1      -9.082  16.275  69.348  1.00  0.00    -0.091 A  
HETATM   17  C   UNL     1     -10.443  15.931  69.379  1.00  0.00    -0.265 A  
BRANCH  15  18
HETATM   18  C   UNL     1      -6.803  16.342  68.247  1.00  0.00    -0.134 C  
BRANCH  18  19
HETATM   19  C   UNL     1      -6.314  17.293  67.161  1.00  0.00    -0.163 C  
BRANCH  19  20
HETATM   20  S   UNL     1      -6.419  18.996  67.662  1.00  0.00    -0.202 S  
HETATM   21  O   UNL     1      -5.746  19.807  66.667  1.00  0.00    -0.170 OA 
HETATM   22  O   UNL     1      -6.079  19.089  69.065  1.00  0.00    -0.224 OA 
BRANCH  20  23
HETATM   23  C   UNL     1      -8.168  19.304  67.505  1.00  0.00    -0.288 A  
HETATM   24  C   UNL     1      -8.901  19.675  68.637  1.00  0.00    -0.323 A  
HETATM   25  C   UNL     1     -10.276  19.875  68.525  1.00  0.00    -0.529 A  
HETATM   26  C   UNL     1     -10.908  19.712  67.292  1.00  0.00    -0.519 A  
HETATM   27  C   UNL     1     -10.169  19.357  66.162  1.00  0.00    -0.570 A  
HETATM   28  C   UNL     1      -8.792  19.155  66.263  1.00  0.00    -0.308 A  
ENDBRANCH  20  23
ENDBRANCH  19  20
ENDBRANCH  18  19
ENDBRANCH  15  18
ENDBRANCH   7   8
ENDBRANCH   6   7
TORSDOF 6
ENDMDL
MODEL       34
REMARK 921   NORMALIZED FREE ENERGY PREDICTED BY IDOCK:   -6.24 KCAL/MOL
REMARK 922        TOTAL FREE ENERGY PREDICTED BY IDOCK:  -10.00 KCAL/MOL
REMARK 923 INTER-LIGAND FREE ENERGY PREDICTED BY IDOCK:   -9.03 KCAL/MOL
REMARK 924 INTRA-LIGAND FREE ENERGY PREDICTED BY IDOCK:   -0.97 KCAL/MOL
REMARK 927      BINDING AFFINITY PREDICTED BY RF-SCORE:    0.00 PKD
ROOT
HETATM    1  C   UNL     1     -10.690   8.053  67.178  1.00  0.00    -0.215 C  
HETATM    2  N   UNL     1     -10.214   9.433  67.150  1.00  0.00    -0.236 NA 
HETATM    3  C   UNL     1      -9.997   9.884  65.769  1.00  0.00    -0.277 C  
HETATM    4  C   UNL     1     -10.140  11.387  65.851  1.00  0.00    -0.286 C  
HETATM    5  C   UNL     1     -11.279  11.565  66.833  1.00  0.00    -0.363 C  
HETATM    6  C   UNL     1     -11.156  10.377  67.797  1.00  0.00    -0.299 C  
ENDROOT
BRANCH   6   7
HETATM    7  C   UNL     1     -10.626  10.785  69.197  1.00  0.00    -0.254 C  
BRANCH   7   8
HETATM    8  C   UNL     1     -11.671  11.398  70.091  1.00  0.00    -0.414 A  
HETATM    9  C   UNL     1     -12.425  10.751  71.050  1.00  0.00    -0.420 A  
HETATM   10  N   UNL     1     -13.178  11.686  71.716  1.00  0.00    -0.421 NA 
HETATM   11  C   UNL     1     -12.915  12.943  71.224  1.00  0.00    -0.228 A  
HETATM   12  H   UNL     1     -13.837  11.479  72.467  1.00  0.00     0.000 HD 
HETATM   13  C   UNL     1     -12.033  12.779  70.161  1.00  0.00    -0.371 A  
HETATM   14  C   UNL     1     -11.625  13.919  69.446  1.00  0.00    -0.350 A  
HETATM   15  C   UNL     1     -12.009  15.204  69.855  1.00  0.00    -0.372 A  
HETATM   16  C   UNL     1     -12.869  15.326  70.956  1.00  0.00    -0.505 A  
HETATM   17  C   UNL     1     -13.362  14.202  71.638  1.00  0.00    -0.440 A  
BRANCH  15  18
HETATM   18  C   UNL     1     -11.406  16.440  69.216  1.00  0.00    -0.225 C  
BRANCH  18  19
HETATM   19  C   UNL     1     -10.803  16.198  67.838  1.00  0.00    -0.332 C  
BRANCH  19  20
HETATM   20  S   UNL     1     -10.142  17.687  67.122  1.00  0.00    -0.341 S  
HETATM   21  O   UNL     1     -11.029  18.784  67.451  1.00  0.00    -0.422 OA 
HETATM   22  O   UNL     1      -9.757  17.412  65.755  1.00  0.00    -0.533 OA 
BRANCH  20  23
HETATM   23  C   UNL     1      -8.651  17.904  68.074  1.00  0.00    -0.256 A  
HETATM   24  C   UNL     1      -8.286  19.189  68.490  1.00  0.00    -0.399 A  
HETATM   25  C   UNL     1      -7.100  19.367  69.198  1.00  0.00    -0.384 A  
HETATM   26  C   UNL     1      -6.289  18.269  69.493  1.00  0.00    -0.236 A  
HETATM   27  C   UNL     1      -6.666  16.987  69.089  1.00  0.00    -0.241 A  
HETATM   28  C   UNL     1      -7.853  16.797  68.380  1.00  0.00    -0.214 A  
ENDBRANCH  20  23
ENDBRANCH  19  20
ENDBRANCH  18  19
ENDBRANCH  15  18
ENDBRANCH   7   8
ENDBRANCH   6   7
TORSDOF 6
ENDMDL
MODEL       35
REMARK 921   NORMALIZED FREE ENERGY PREDICTED BY IDOCK:   -6.23 KCAL/MOL
REMARK 922        TOTAL FREE ENERGY PREDICTED BY IDOCK:   -9.99 KCAL/MOL
REMARK 923 INTER-LIGAND FREE ENERGY PREDICTED BY IDOCK:   -9.06 KCAL/MOL
REMARK 924 INTRA-LIGAND FREE ENERGY PREDICTED BY IDOCK:   -0.93 KCAL/MOL
REMARK 927      BINDING AFFINITY PREDICTED BY RF-SCORE:    0.00 PKD
ROOT
HETATM    1  C   UNL     1     -11.916  13.015  69.773  1.00  0.00    -0.308 C  
HETATM    2  N   UNL     1     -12.112  14.199  68.941  1.00  0.00    -0.336 NA 
HETATM    3  C   UNL     1     -11.574  15.395  69.600  1.00  0.00    -0.331 C  
HETATM    4  C   UNL     1     -11.267  16.334  68.455  1.00  0.00    -0.349 C  
HETATM    5  C   UNL     1     -10.724  15.404  67.391  1.00  0.00    -0.296 C  
HETATM    6  C   UNL     1     -11.466  14.078  67.612  1.00  0.00    -0.334 C  
ENDROOT
BRANCH   6   7
HETATM    7  C   UNL     1     -12.533  13.793  66.523  1.00  0.00    -0.356 C  
BRANCH   7   8
HETATM    8  C   UNL     1     -11.972  13.205  65.255  1.00  0.00    -0.437 A  
HETATM    9  C   UNL     1     -12.005  13.768  63.994  1.00  0.00    -0.408 A  
HETATM   10  N   UNL     1     -11.289  12.966  63.141  1.00  0.00    -0.720 NA 
HETATM   11  C   UNL     1     -10.767  11.894  63.825  1.00  0.00    -0.418 A  
HETATM   12  H   UNL     1     -11.163  13.140  62.143  1.00  0.00     0.000 HD 
HETATM   13  C   UNL     1     -11.242  11.984  65.130  1.00  0.00    -0.368 A  
HETATM   14  C   UNL     1     -10.884  10.976  66.044  1.00  0.00    -0.189 A  
HETATM   15  C   UNL     1      -9.986   9.961  65.685  1.00  0.00    -0.353 A  
HETATM   16  C   UNL     1      -9.502   9.930  64.370  1.00  0.00    -0.304 A  
HETATM   17  C   UNL     1      -9.907  10.872  63.410  1.00  0.00    -0.408 A  
BRANCH  15  18
HETATM   18  C   UNL     1      -9.440   9.000  66.724  1.00  0.00    -0.238 C  
BRANCH  18  19
HETATM   19  C   UNL     1     -10.499   8.125  67.382  1.00  0.00    -0.285 C  
BRANCH  19  20
HETATM   20  S   UNL     1      -9.839   7.166  68.728  1.00  0.00    -0.162 S  
HETATM   21  O   UNL     1      -8.477   7.598  68.970  1.00  0.00    -0.130 OA 
HETATM   22  O   UNL     1     -10.160   5.774  68.506  1.00  0.00    -0.152 OA 
BRANCH  20  23
HETATM   23  C   UNL     1     -10.831   7.742  70.092  1.00  0.00    -0.244 A  
HETATM   24  C   UNL     1     -10.570   9.001  70.644  1.00  0.00    -0.290 A  
HETATM   25  C   UNL     1     -11.317   9.435  71.737  1.00  0.00    -0.387 A  
HETATM   26  C   UNL     1     -12.319   8.621  72.269  1.00  0.00    -0.449 A  
HETATM   27  C   UNL     1     -12.585   7.372  71.704  1.00  0.00    -0.391 A  
HETATM   28  C   UNL     1     -11.844   6.928  70.608  1.00  0.00    -0.418 A  
ENDBRANCH  20  23
ENDBRANCH  19  20
ENDBRANCH  18  19
ENDBRANCH  15  18
ENDBRANCH   7   8
ENDBRANCH   6   7
TORSDOF 6
ENDMDL
MODEL       36
REMARK 921   NORMALIZED FREE ENERGY PREDICTED BY IDOCK:   -6.23 KCAL/MOL
REMARK 922        TOTAL FREE ENERGY PREDICTED BY IDOCK:   -9.98 KCAL/MOL
REMARK 923 INTER-LIGAND FREE ENERGY PREDICTED BY IDOCK:   -8.52 KCAL/MOL
REMARK 924 INTRA-LIGAND FREE ENERGY PREDICTED BY IDOCK:   -1.47 KCAL/MOL
REMARK 927      BINDING AFFINITY PREDICTED BY RF-SCORE:    0.00 PKD
ROOT
HETATM    1  C   UNL     1     -12.408  12.629  70.848  1.00  0.00    -0.260 C  
HETATM    2  N   UNL     1     -12.905  13.992  71.013  1.00  0.00    -0.341 NA 
HETATM    3  C   UNL     1     -13.465  14.185  72.356  1.00  0.00    -0.517 C  
HETATM    4  C   UNL     1     -13.338  15.673  72.592  1.00  0.00    -0.623 C  
HETATM    5  C   UNL     1     -11.996  16.000  71.972  1.00  0.00    -0.622 C  
HETATM    6  C   UNL     1     -11.852  15.015  70.804  1.00  0.00    -0.320 C  
ENDROOT
BRANCH   6   7
HETATM    7  C   UNL     1     -12.028  15.688  69.418  1.00  0.00    -0.349 C  
BRANCH   7   8
HETATM    8  C   UNL     1     -10.745  16.202  68.820  1.00  0.00    -0.294 A  
HETATM    9  C   UNL     1     -10.341  17.520  68.732  1.00  0.00    -0.358 A  
HETATM   10  N   UNL     1      -9.067  17.551  68.223  1.00  0.00    -0.266 NA 
HETATM   11  C   UNL     1      -8.617  16.272  67.994  1.00  0.00    -0.176 A  
HETATM   12  H   UNL     1      -8.531  18.400  68.040  1.00  0.00     0.000 HD 
HETATM   13  C   UNL     1      -9.675  15.418  68.290  1.00  0.00    -0.209 A  
HETATM   14  C   UNL     1      -9.493  14.036  68.103  1.00  0.00    -0.215 A  
HETATM   15  C   UNL     1      -8.246  13.516  67.729  1.00  0.00    -0.176 A  
HETATM   16  C   UNL     1      -7.196  14.410  67.477  1.00  0.00    -0.202 A  
HETATM   17  C   UNL     1      -7.370  15.800  67.572  1.00  0.00    -0.205 A  
BRANCH  15  18
HETATM   18  C   UNL     1      -7.993  12.020  67.730  1.00  0.00    -0.147 C  
BRANCH  18  19
HETATM   19  C   UNL     1      -9.184  11.186  68.184  1.00  0.00    -0.166 C  
BRANCH  19  20
HETATM   20  S   UNL     1      -9.693  10.012  66.948  1.00  0.00    -0.198 S  
HETATM   21  O   UNL     1     -10.638   9.095  67.551  1.00  0.00    -0.267 OA 
HETATM   22  O   UNL     1      -8.519   9.535  66.251  1.00  0.00    -0.114 OA 
BRANCH  20  23
HETATM   23  C   UNL     1     -10.605  11.055  65.825  1.00  0.00    -0.195 A  
HETATM   24  C   UNL     1     -11.597  11.901  66.331  1.00  0.00    -0.315 A  
HETATM   25  C   UNL     1     -12.339  12.685  65.451  1.00  0.00    -0.499 A  
HETATM   26  C   UNL     1     -12.087  12.628  64.079  1.00  0.00    -0.542 A  
HETATM   27  C   UNL     1     -11.085  11.793  63.581  1.00  0.00    -0.518 A  
HETATM   28  C   UNL     1     -10.334  11.004  64.454  1.00  0.00    -0.424 A  
ENDBRANCH  20  23
ENDBRANCH  19  20
ENDBRANCH  18  19
ENDBRANCH  15  18
ENDBRANCH   7   8
ENDBRANCH   6   7
TORSDOF 6
ENDMDL
MODEL       37
REMARK 921   NORMALIZED FREE ENERGY PREDICTED BY IDOCK:   -6.21 KCAL/MOL
REMARK 922        TOTAL FREE ENERGY PREDICTED BY IDOCK:   -9.97 KCAL/MOL
REMARK 923 INTER-LIGAND FREE ENERGY PREDICTED BY IDOCK:   -7.83 KCAL/MOL
REMARK 924 INTRA-LIGAND FREE ENERGY PREDICTED BY IDOCK:   -2.13 KCAL/MOL
REMARK 927      BINDING AFFINITY PREDICTED BY RF-SCORE:    0.00 PKD
ROOT
HETATM    1  C   UNL     1     -10.645  17.011  65.629  1.00  0.00    -0.197 C  
HETATM    2  N   UNL     1      -9.978  15.929  66.347  1.00  0.00    -0.270 NA 
HETATM    3  C   UNL     1      -8.520  16.085  66.289  1.00  0.00    -0.302 C  
HETATM    4  C   UNL     1      -8.027  15.351  67.517  1.00  0.00    -0.192 C  
HETATM    5  C   UNL     1      -9.066  15.702  68.560  1.00  0.00    -0.196 C  
HETATM    6  C   UNL     1     -10.376  15.859  67.774  1.00  0.00    -0.278 C  
ENDROOT
BRANCH   6   7
HETATM    7  C   UNL     1     -11.361  14.682  67.997  1.00  0.00    -0.329 C  
BRANCH   7   8
HETATM    8  C   UNL     1     -12.012  14.678  69.355  1.00  0.00    -0.351 A  
HETATM    9  C   UNL     1     -12.594  15.753  69.999  1.00  0.00    -0.049 A  
HETATM   10  N   UNL     1     -13.166  15.304  71.163  1.00  0.00    -0.469 NA 
HETATM   11  C   UNL     1     -12.987  13.946  71.286  1.00  0.00    -0.341 A  
HETATM   12  H   UNL     1     -13.652  15.893  71.839  1.00  0.00     0.000 HD 
HETATM   13  C   UNL     1     -12.206  13.547  70.206  1.00  0.00    -0.417 A  
HETATM   14  C   UNL     1     -11.840  12.193  70.108  1.00  0.00    -0.368 A  
HETATM   15  C   UNL     1     -12.333  11.244  71.015  1.00  0.00    -0.472 A  
HETATM   16  C   UNL     1     -13.149  11.684  72.067  1.00  0.00    -0.433 A  
HETATM   17  C   UNL     1     -13.463  13.042  72.240  1.00  0.00    -0.645 A  
BRANCH  15  18
HETATM   18  C   UNL     1     -12.108   9.761  70.790  1.00  0.00    -0.364 C  
BRANCH  18  19
HETATM   19  C   UNL     1     -10.704   9.282  71.135  1.00  0.00    -0.333 C  
BRANCH  19  20
HETATM   20  S   UNL     1      -9.922   8.452  69.771  1.00  0.00    -0.195 S  
HETATM   21  O   UNL     1     -10.869   7.514  69.203  1.00  0.00    -0.189 OA 
HETATM   22  O   UNL     1      -8.599   8.032  70.180  1.00  0.00    -0.127 OA 
BRANCH  20  23
HETATM   23  C   UNL     1      -9.732   9.788  68.606  1.00  0.00    -0.155 A  
HETATM   24  C   UNL     1     -10.587   9.858  67.501  1.00  0.00    -0.333 A  
HETATM   25  C   UNL     1     -10.413  10.878  66.567  1.00  0.00    -0.308 A  
HETATM   26  C   UNL     1      -9.399  11.821  66.741  1.00  0.00    -0.199 A  
HETATM   27  C   UNL     1      -8.558  11.755  67.854  1.00  0.00    -0.156 A  
HETATM   28  C   UNL     1      -8.724  10.738  68.796  1.00  0.00    -0.163 A  
ENDBRANCH  20  23
ENDBRANCH  19  20
ENDBRANCH  18  19
ENDBRANCH  15  18
ENDBRANCH   7   8
ENDBRANCH   6   7
TORSDOF 6
ENDMDL
MODEL       38
REMARK 921   NORMALIZED FREE ENERGY PREDICTED BY IDOCK:   -6.21 KCAL/MOL
REMARK 922        TOTAL FREE ENERGY PREDICTED BY IDOCK:   -9.96 KCAL/MOL
REMARK 923 INTER-LIGAND FREE ENERGY PREDICTED BY IDOCK:   -8.35 KCAL/MOL
REMARK 924 INTRA-LIGAND FREE ENERGY PREDICTED BY IDOCK:   -1.61 KCAL/MOL
REMARK 927      BINDING AFFINITY PREDICTED BY RF-SCORE:    0.00 PKD
ROOT
HETATM    1  C   UNL     1     -12.950  10.318  71.116  1.00  0.00    -0.409 C  
HETATM    2  N   UNL     1     -11.669  10.754  70.567  1.00  0.00    -0.333 NA 
HETATM    3  C   UNL     1     -10.724   9.633  70.493  1.00  0.00    -0.311 C  
HETATM    4  C   UNL     1      -9.767  10.035  69.393  1.00  0.00    -0.240 C  
HETATM    5  C   UNL     1     -10.678  10.692  68.377  1.00  0.00    -0.260 C  
HETATM    6  C   UNL     1     -11.796  11.337  69.209  1.00  0.00    -0.354 C  
ENDROOT
BRANCH   6   7
HETATM    7  C   UNL     1     -11.685  12.882  69.279  1.00  0.00    -0.378 C  
BRANCH   7   8
HETATM    8  C   UNL     1     -11.498  13.543  67.939  1.00  0.00    -0.353 A  
HETATM    9  C   UNL     1     -12.410  13.591  66.903  1.00  0.00    -0.238 A  
HETATM   10  N   UNL     1     -11.894  14.379  65.905  1.00  0.00    -0.374 NA 
HETATM   11  C   UNL     1     -10.664  14.868  66.276  1.00  0.00    -0.320 A  
HETATM   12  H   UNL     1     -12.356  14.573  65.016  1.00  0.00     0.000 HD 
HETATM   13  C   UNL     1     -10.365  14.300  67.511  1.00  0.00    -0.248 A  
HETATM   14  C   UNL     1      -9.129  14.608  68.108  1.00  0.00    -0.187 A  
HETATM   15  C   UNL     1      -8.261  15.546  67.531  1.00  0.00    -0.182 A  
HETATM   16  C   UNL     1      -8.620  16.124  66.305  1.00  0.00    -0.373 A  
HETATM   17  C   UNL     1      -9.807  15.773  65.641  1.00  0.00    -0.357 A  
BRANCH  15  18
HETATM   18  C   UNL     1      -7.032  16.032  68.274  1.00  0.00    -0.123 C  
BRANCH  18  19
HETATM   19  C   UNL     1      -6.217  17.075  67.519  1.00  0.00    -0.147 C  
BRANCH  19  20
HETATM   20  S   UNL     1      -6.346  18.690  68.254  1.00  0.00    -0.216 S  
HETATM   21  O   UNL     1      -5.393  19.565  67.602  1.00  0.00    -0.176 OA 
HETATM   22  O   UNL     1      -6.373  18.544  69.692  1.00  0.00    -0.262 OA 
BRANCH  20  23
HETATM   23  C   UNL     1      -7.974  19.189  67.727  1.00  0.00    -0.273 A  
HETATM   24  C   UNL     1      -9.057  19.016  68.596  1.00  0.00    -0.401 A  
HETATM   25  C   UNL     1     -10.336  19.367  68.170  1.00  0.00    -0.525 A  
HETATM   26  C   UNL     1     -10.530  19.890  66.890  1.00  0.00    -0.577 A  
HETATM   27  C   UNL     1      -9.443  20.075  66.033  1.00  0.00    -0.384 A  
HETATM   28  C   UNL     1      -8.157  19.728  66.449  1.00  0.00    -0.350 A  
ENDBRANCH  20  23
ENDBRANCH  19  20
ENDBRANCH  18  19
ENDBRANCH  15  18
ENDBRANCH   7   8
ENDBRANCH   6   7
TORSDOF 6
ENDMDL
MODEL       39
REMARK 921   NORMALIZED FREE ENERGY PREDICTED BY IDOCK:   -6.19 KCAL/MOL
REMARK 922        TOTAL FREE ENERGY PREDICTED BY IDOCK:   -9.94 KCAL/MOL
REMARK 923 INTER-LIGAND FREE ENERGY PREDICTED BY IDOCK:   -8.76 KCAL/MOL
REMARK 924 INTRA-LIGAND FREE ENERGY PREDICTED BY IDOCK:   -1.18 KCAL/MOL
REMARK 927      BINDING AFFINITY PREDICTED BY RF-SCORE:    0.00 PKD
ROOT
HETATM    1  C   UNL     1      -7.585   5.849  67.749  1.00  0.00    -0.089 C  
HETATM    2  N   UNL     1      -8.747   6.713  67.938  1.00  0.00    -0.117 NA 
HETATM    3  C   UNL     1      -9.605   6.701  66.747  1.00  0.00    -0.166 C  
HETATM    4  C   UNL     1     -10.973   7.065  67.280  1.00  0.00    -0.372 C  
HETATM    5  C   UNL     1     -11.026   6.331  68.603  1.00  0.00    -0.423 C  
HETATM    6  C   UNL     1      -9.574   6.314  69.102  1.00  0.00    -0.135 C  
ENDROOT
BRANCH   6   7
HETATM    7  C   UNL     1      -9.330   7.283  70.288  1.00  0.00    -0.158 C  
BRANCH   7   8
HETATM    8  C   UNL     1     -10.575   7.630  71.061  1.00  0.00    -0.226 A  
HETATM    9  C   UNL     1     -11.173   6.878  72.053  1.00  0.00    -0.257 A  
HETATM   10  N   UNL     1     -12.219   7.597  72.574  1.00  0.00    -0.547 NA 
HETATM   11  C   UNL     1     -12.307   8.822  71.955  1.00  0.00    -0.363 A  
HETATM   12  H   UNL     1     -12.841   7.271  73.314  1.00  0.00     0.000 HD 
HETATM   13  C   UNL     1     -11.337   8.834  70.956  1.00  0.00    -0.332 A  
HETATM   14  C   UNL     1     -11.236   9.972  70.136  1.00  0.00    -0.367 A  
HETATM   15  C   UNL     1     -12.017  11.111  70.379  1.00  0.00    -0.469 A  
HETATM   16  C   UNL     1     -12.955  11.068  71.420  1.00  0.00    -0.517 A  
HETATM   17  C   UNL     1     -13.140   9.917  72.203  1.00  0.00    -0.497 A  
BRANCH  15  18
HETATM   18  C   UNL     1     -11.763  12.405  69.630  1.00  0.00    -0.377 C  
BRANCH  18  19
HETATM   19  C   UNL     1     -10.621  12.331  68.625  1.00  0.00    -0.224 C  
BRANCH  19  20
HETATM   20  S   UNL     1     -10.772  13.556  67.344  1.00  0.00    -0.265 S  
HETATM   21  O   UNL     1      -9.599  14.405  67.384  1.00  0.00    -0.210 OA 
HETATM   22  O   UNL     1     -12.106  14.111  67.389  1.00  0.00    -0.402 OA 
BRANCH  20  23
HETATM   23  C   UNL     1     -10.651  12.550  65.877  1.00  0.00    -0.265 A  
HETATM   24  C   UNL     1     -10.254  11.213  65.995  1.00  0.00    -0.300 A  
HETATM   25  C   UNL     1     -10.119  10.437  64.846  1.00  0.00    -0.382 A  
HETATM   26  C   UNL     1     -10.385  10.991  63.592  1.00  0.00    -0.415 A  
HETATM   27  C   UNL     1     -10.796  12.321  63.481  1.00  0.00    -0.508 A  
HETATM   28  C   UNL     1     -10.935  13.107  64.626  1.00  0.00    -0.374 A  
ENDBRANCH  20  23
ENDBRANCH  19  20
ENDBRANCH  18  19
ENDBRANCH  15  18
ENDBRANCH   7   8
ENDBRANCH   6   7
TORSDOF 6
ENDMDL
MODEL       40
REMARK 921   NORMALIZED FREE ENERGY PREDICTED BY IDOCK:   -6.18 KCAL/MOL
REMARK 922        TOTAL FREE ENERGY PREDICTED BY IDOCK:   -9.93 KCAL/MOL
REMARK 923 INTER-LIGAND FREE ENERGY PREDICTED BY IDOCK:   -7.94 KCAL/MOL
REMARK 924 INTRA-LIGAND FREE ENERGY PREDICTED BY IDOCK:   -1.99 KCAL/MOL
REMARK 927      BINDING AFFINITY PREDICTED BY RF-SCORE:    0.00 PKD
ROOT
HETATM    1  C   UNL     1      -9.752   7.055  70.588  1.00  0.00    -0.172 C  
HETATM    2  N   UNL     1      -9.448   7.972  69.492  1.00  0.00    -0.160 NA 
HETATM    3  C   UNL     1      -8.969   7.238  68.315  1.00  0.00    -0.125 C  
HETATM    4  C   UNL     1      -9.303   8.152  67.157  1.00  0.00    -0.183 C  
HETATM    5  C   UNL     1     -10.652   8.715  67.549  1.00  0.00    -0.292 C  
HETATM    6  C   UNL     1     -10.620   8.782  69.082  1.00  0.00    -0.184 C  
ENDROOT
BRANCH   6   7
HETATM    7  C   UNL     1     -10.484  10.230  69.622  1.00  0.00    -0.286 C  
BRANCH   7   8
HETATM    8  C   UNL     1     -11.603  10.648  70.539  1.00  0.00    -0.444 A  
HETATM    9  C   UNL     1     -12.271   9.853  71.449  1.00  0.00    -0.408 A  
HETATM   10  N   UNL     1     -13.142  10.641  72.160  1.00  0.00    -0.546 NA 
HETATM   11  C   UNL     1     -13.041  11.949  71.746  1.00  0.00    -0.360 A  
HETATM   12  H   UNL     1     -13.771  10.306  72.889  1.00  0.00     0.000 HD 
HETATM   13  C   UNL     1     -12.141  11.964  70.685  1.00  0.00    -0.389 A  
HETATM   14  C   UNL     1     -11.881  13.188  70.045  1.00  0.00    -0.360 A  
HETATM   15  C   UNL     1     -12.430  14.386  70.524  1.00  0.00    -0.416 A  
HETATM   16  C   UNL     1     -13.303  14.330  71.620  1.00  0.00    -0.442 A  
HETATM   17  C   UNL     1     -13.649  13.112  72.228  1.00  0.00    -0.677 A  
BRANCH  15  18
HETATM   18  C   UNL     1     -11.989  15.725  69.966  1.00  0.00    -0.352 C  
BRANCH  18  19
HETATM   19  C   UNL     1     -10.478  15.888  69.855  1.00  0.00    -0.310 C  
BRANCH  19  20
HETATM   20  S   UNL     1      -9.943  16.063  68.167  1.00  0.00    -0.231 S  
HETATM   21  O   UNL     1      -8.759  16.897  68.148  1.00  0.00    -0.213 OA 
HETATM   22  O   UNL     1     -11.093  16.367  67.346  1.00  0.00    -0.209 OA 
BRANCH  20  23
HETATM   23  C   UNL     1      -9.427  14.399  67.786  1.00  0.00    -0.211 A  
HETATM   24  C   UNL     1      -8.259  13.895  68.368  1.00  0.00    -0.153 A  
HETATM   25  C   UNL     1      -7.832  12.610  68.039  1.00  0.00    -0.149 A  
HETATM   26  C   UNL     1      -8.570  11.835  67.142  1.00  0.00    -0.168 A  
HETATM   27  C   UNL     1      -9.744  12.338  66.576  1.00  0.00    -0.242 A  
HETATM   28  C   UNL     1     -10.181  13.624  66.900  1.00  0.00    -0.261 A  
ENDBRANCH  20  23
ENDBRANCH  19  20
ENDBRANCH  18  19
ENDBRANCH  15  18
ENDBRANCH   7   8
ENDBRANCH   6   7
TORSDOF 6
ENDMDL
MODEL       41
REMARK 921   NORMALIZED FREE ENERGY PREDICTED BY IDOCK:   -6.18 KCAL/MOL
REMARK 922        TOTAL FREE ENERGY PREDICTED BY IDOCK:   -9.93 KCAL/MOL
REMARK 923 INTER-LIGAND FREE ENERGY PREDICTED BY IDOCK:   -8.95 KCAL/MOL
REMARK 924 INTRA-LIGAND FREE ENERGY PREDICTED BY IDOCK:   -0.98 KCAL/MOL
REMARK 927      BINDING AFFINITY PREDICTED BY RF-SCORE:    0.00 PKD
ROOT
HETATM    1  C   UNL     1      -8.510   9.116  63.217  1.00  0.00    -0.195 C  
HETATM    2  N   UNL     1      -8.928  10.392  63.791  1.00  0.00    -0.209 NA 
HETATM    3  C   UNL     1      -9.525  11.256  62.765  1.00  0.00    -0.326 C  
HETATM    4  C   UNL     1     -10.433  12.177  63.549  1.00  0.00    -0.490 C  
HETATM    5  C   UNL     1     -11.019  11.259  64.600  1.00  0.00    -0.281 C  
HETATM    6  C   UNL     1      -9.915  10.231  64.886  1.00  0.00    -0.323 C  
ENDROOT
BRANCH   6   7
HETATM    7  C   UNL     1      -9.227  10.447  66.259  1.00  0.00    -0.195 C  
BRANCH   7   8
HETATM    8  C   UNL     1     -10.068  10.025  67.436  1.00  0.00    -0.256 A  
HETATM    9  C   UNL     1     -10.172   8.755  67.969  1.00  0.00    -0.213 A  
HETATM   10  N   UNL     1     -10.951   8.819  69.097  1.00  0.00    -0.432 NA 
HETATM   11  C   UNL     1     -11.344  10.116  69.328  1.00  0.00    -0.156 A  
HETATM   12  H   UNL     1     -11.202   8.020  69.679  1.00  0.00     0.000 HD 
HETATM   13  C   UNL     1     -10.866  10.874  68.263  1.00  0.00    -0.272 A  
HETATM   14  C   UNL     1     -11.163  12.248  68.232  1.00  0.00    -0.315 A  
HETATM   15  C   UNL     1     -11.834  12.867  69.297  1.00  0.00    -0.363 A  
HETATM   16  C   UNL     1     -12.266  12.072  70.368  1.00  0.00    -0.379 A  
HETATM   17  C   UNL     1     -12.059  10.683  70.388  1.00  0.00    -0.430 A  
BRANCH  15  18
HETATM   18  C   UNL     1     -11.972  14.376  69.360  1.00  0.00    -0.370 C  
BRANCH  18  19
HETATM   19  C   UNL     1     -11.521  15.098  68.097  1.00  0.00    -0.342 C  
BRANCH  19  20
HETATM   20  S   UNL     1      -9.835  15.654  68.205  1.00  0.00    -0.213 S  
HETATM   21  O   UNL     1      -9.062  14.968  67.190  1.00  0.00    -0.194 OA 
HETATM   22  O   UNL     1      -9.432  15.644  69.594  1.00  0.00    -0.282 OA 
BRANCH  20  23
HETATM   23  C   UNL     1      -9.991  17.355  67.696  1.00  0.00    -0.300 A  
HETATM   24  C   UNL     1      -9.835  18.370  68.646  1.00  0.00    -0.403 A  
HETATM   25  C   UNL     1      -9.997  19.699  68.258  1.00  0.00    -0.543 A  
HETATM   26  C   UNL     1     -10.307  20.009  66.933  1.00  0.00    -0.567 A  
HETATM   27  C   UNL     1     -10.446  18.992  65.985  1.00  0.00    -0.530 A  
HETATM   28  C   UNL     1     -10.284  17.658  66.362  1.00  0.00    -0.364 A  
ENDBRANCH  20  23
ENDBRANCH  19  20
ENDBRANCH  18  19
ENDBRANCH  15  18
ENDBRANCH   7   8
ENDBRANCH   6   7
TORSDOF 6
ENDMDL
MODEL       42
REMARK 921   NORMALIZED FREE ENERGY PREDICTED BY IDOCK:   -6.17 KCAL/MOL
REMARK 922        TOTAL FREE ENERGY PREDICTED BY IDOCK:   -9.91 KCAL/MOL
REMARK 923 INTER-LIGAND FREE ENERGY PREDICTED BY IDOCK:   -9.50 KCAL/MOL
REMARK 924 INTRA-LIGAND FREE ENERGY PREDICTED BY IDOCK:   -0.41 KCAL/MOL
REMARK 927      BINDING AFFINITY PREDICTED BY RF-SCORE:    0.00 PKD
ROOT
HETATM    1  C   UNL     1     -10.889  15.096  71.289  1.00  0.00     0.030 C  
HETATM    2  N   UNL     1     -12.041  14.752  72.117  1.00  0.00    -0.329 NA 
HETATM    3  C   UNL     1     -12.702  15.962  72.621  1.00  0.00    -0.463 C  
HETATM    4  C   UNL     1     -14.126  15.519  72.877  1.00  0.00    -0.268 C  
HETATM    5  C   UNL     1     -14.406  14.594  71.712  1.00  0.00    -0.638 C  
HETATM    6  C   UNL     1     -13.051  13.948  71.387  1.00  0.00    -0.340 C  
ENDROOT
BRANCH   6   7
HETATM    7  C   UNL     1     -12.968  12.463  71.824  1.00  0.00    -0.422 C  
BRANCH   7   8
HETATM    8  C   UNL     1     -12.115  11.608  70.924  1.00  0.00    -0.312 A  
HETATM    9  C   UNL     1     -11.613  10.352  71.204  1.00  0.00    -0.228 A  
HETATM   10  N   UNL     1     -10.982   9.875  70.083  1.00  0.00    -0.279 NA 
HETATM   11  C   UNL     1     -11.079  10.790  69.060  1.00  0.00    -0.253 A  
HETATM   12  H   UNL     1     -10.510   8.973  70.017  1.00  0.00     0.000 HD 
HETATM   13  C   UNL     1     -11.718  11.909  69.585  1.00  0.00    -0.413 A  
HETATM   14  C   UNL     1     -11.913  13.022  68.749  1.00  0.00    -0.302 A  
HETATM   15  C   UNL     1     -11.571  12.974  67.390  1.00  0.00    -0.407 A  
HETATM   16  C   UNL     1     -10.964  11.812  66.894  1.00  0.00    -0.333 A  
HETATM   17  C   UNL     1     -10.678  10.715  67.723  1.00  0.00    -0.302 A  
BRANCH  15  18
HETATM   18  C   UNL     1     -11.970  14.092  66.445  1.00  0.00    -0.462 C  
BRANCH  18  19
HETATM   19  C   UNL     1     -11.591  15.485  66.932  1.00  0.00     0.099 C  
BRANCH  19  20
HETATM   20  S   UNL     1     -10.581  16.357  65.755  1.00  0.00    -0.261 S  
HETATM   21  O   UNL     1     -11.389  16.651  64.590  1.00  0.00    -0.679 OA 
HETATM   22  O   UNL     1      -9.311  15.674  65.640  1.00  0.00    -0.301 OA 
BRANCH  20  23
HETATM   23  C   UNL     1     -10.294  17.896  66.608  1.00  0.00    -0.361 A  
HETATM   24  C   UNL     1     -10.296  19.091  65.880  1.00  0.00    -0.435 A  
HETATM   25  C   UNL     1     -10.031  20.291  66.537  1.00  0.00    -0.528 A  
HETATM   26  C   UNL     1      -9.773  20.295  67.909  1.00  0.00    -0.472 A  
HETATM   27  C   UNL     1      -9.788  19.101  68.633  1.00  0.00    -0.485 A  
HETATM   28  C   UNL     1     -10.053  17.894  67.985  1.00  0.00    -0.360 A  
ENDBRANCH  20  23
ENDBRANCH  19  20
ENDBRANCH  18  19
ENDBRANCH  15  18
ENDBRANCH   7   8
ENDBRANCH   6   7
TORSDOF 6
ENDMDL
MODEL       43
REMARK 921   NORMALIZED FREE ENERGY PREDICTED BY IDOCK:   -6.15 KCAL/MOL
REMARK 922        TOTAL FREE ENERGY PREDICTED BY IDOCK:   -9.89 KCAL/MOL
REMARK 923 INTER-LIGAND FREE ENERGY PREDICTED BY IDOCK:   -8.33 KCAL/MOL
REMARK 924 INTRA-LIGAND FREE ENERGY PREDICTED BY IDOCK:   -1.56 KCAL/MOL
REMARK 927      BINDING AFFINITY PREDICTED BY RF-SCORE:    0.00 PKD
ROOT
HETATM    1  C   UNL     1      -9.945  18.950  68.766  1.00  0.00    -0.408 C  
HETATM    2  N   UNL     1     -10.149  17.864  67.812  1.00  0.00    -0.330 NA 
HETATM    3  C   UNL     1      -9.056  17.815  66.833  1.00  0.00    -0.258 C  
HETATM    4  C   UNL     1      -9.047  16.376  66.369  1.00  0.00    -0.341 C  
HETATM    5  C   UNL     1      -9.333  15.609  67.642  1.00  0.00    -0.206 C  
HETATM    6  C   UNL     1     -10.238  16.536  68.466  1.00  0.00    -0.266 C  
ENDROOT
BRANCH   6   7
HETATM    7  C   UNL     1     -11.713  16.060  68.510  1.00  0.00    -0.244 C  
BRANCH   7   8
HETATM    8  C   UNL     1     -12.034  15.169  69.681  1.00  0.00    -0.359 A  
HETATM    9  C   UNL     1     -12.546  15.557  70.903  1.00  0.00    -0.456 A  
HETATM   10  N   UNL     1     -12.795  14.432  71.648  1.00  0.00    -0.326 NA 
HETATM   11  C   UNL     1     -12.474  13.306  70.926  1.00  0.00    -0.342 A  
HETATM   12  H   UNL     1     -13.164  14.431  72.599  1.00  0.00     0.000 HD 
HETATM   13  C   UNL     1     -11.929  13.745  69.724  1.00  0.00    -0.406 A  
HETATM   14  C   UNL     1     -11.477  12.783  68.803  1.00  0.00    -0.347 A  
HETATM   15  C   UNL     1     -11.664  11.413  69.038  1.00  0.00    -0.409 A  
HETATM   16  C   UNL     1     -12.253  11.016  70.247  1.00  0.00    -0.447 A  
HETATM   17  C   UNL     1     -12.638  11.949  71.224  1.00  0.00    -0.383 A  
BRANCH  15  18
HETATM   18  C   UNL     1     -11.367  10.389  67.959  1.00  0.00    -0.277 C  
BRANCH  18  19
HETATM   19  C   UNL     1      -9.903   9.976  67.877  1.00  0.00    -0.145 C  
BRANCH  19  20
HETATM   20  S   UNL     1      -9.685   8.225  68.102  1.00  0.00    -0.163 S  
HETATM   21  O   UNL     1      -8.268   7.930  68.040  1.00  0.00    -0.124 OA 
HETATM   22  O   UNL     1     -10.637   7.528  67.265  1.00  0.00    -0.290 OA 
BRANCH  20  23
HETATM   23  C   UNL     1     -10.199   8.020  69.797  1.00  0.00    -0.206 A  
HETATM   24  C   UNL     1      -9.482   8.663  70.811  1.00  0.00    -0.231 A  
HETATM   25  C   UNL     1      -9.857   8.471  72.139  1.00  0.00    -0.388 A  
HETATM   26  C   UNL     1     -10.941   7.648  72.449  1.00  0.00    -0.353 A  
HETATM   27  C   UNL     1     -11.663   7.021  71.431  1.00  0.00    -0.344 A  
HETATM   28  C   UNL     1     -11.297   7.208  70.097  1.00  0.00    -0.277 A  
ENDBRANCH  20  23
ENDBRANCH  19  20
ENDBRANCH  18  19
ENDBRANCH  15  18
ENDBRANCH   7   8
ENDBRANCH   6   7
TORSDOF 6
ENDMDL
MODEL       44
REMARK 921   NORMALIZED FREE ENERGY PREDICTED BY IDOCK:   -6.15 KCAL/MOL
REMARK 922        TOTAL FREE ENERGY PREDICTED BY IDOCK:   -9.88 KCAL/MOL
REMARK 923 INTER-LIGAND FREE ENERGY PREDICTED BY IDOCK:   -9.07 KCAL/MOL
REMARK 924 INTRA-LIGAND FREE ENERGY PREDICTED BY IDOCK:   -0.80 KCAL/MOL
REMARK 927      BINDING AFFINITY PREDICTED BY RF-SCORE:    0.00 PKD
ROOT
HETATM    1  C   UNL     1      -8.136  15.382  69.268  1.00  0.00    -0.246 C  
HETATM    2  N   UNL     1      -9.356  15.248  68.478  1.00  0.00    -0.193 NA 
HETATM    3  C   UNL     1     -10.521  15.034  69.346  1.00  0.00    -0.247 C  
HETATM    4  C   UNL     1     -11.685  15.538  68.523  1.00  0.00    -0.351 C  
HETATM    5  C   UNL     1     -11.112  16.761  67.840  1.00  0.00    -0.178 C  
HETATM    6  C   UNL     1      -9.626  16.438  67.634  1.00  0.00    -0.227 C  
ENDROOT
BRANCH   6   7
HETATM    7  C   UNL     1      -9.271  16.135  66.155  1.00  0.00    -0.382 C  
BRANCH   7   8
HETATM    8  C   UNL     1     -10.396  15.513  65.372  1.00  0.00    -0.422 A  
HETATM    9  C   UNL     1     -11.296  16.164  64.552  1.00  0.00    -0.267 A  
HETATM   10  N   UNL     1     -12.088  15.225  63.941  1.00  0.00    -0.973 NA 
HETATM   11  C   UNL     1     -11.710  13.961  64.330  1.00  0.00    -0.404 A  
HETATM   12  H   UNL     1     -12.848  15.433  63.293  1.00  0.00     0.000 HD 
HETATM   13  C   UNL     1     -10.704  14.121  65.279  1.00  0.00    -0.374 A  
HETATM   14  C   UNL     1     -10.158  12.970  65.875  1.00  0.00    -0.291 A  
HETATM   15  C   UNL     1     -10.537  11.688  65.454  1.00  0.00    -0.331 A  
HETATM   16  C   UNL     1     -11.527  11.574  64.467  1.00  0.00    -0.204 A  
HETATM   17  C   UNL     1     -12.153  12.702  63.913  1.00  0.00    -0.567 A  
BRANCH  15  18
HETATM   18  C   UNL     1      -9.803  10.456  65.946  1.00  0.00    -0.294 C  
BRANCH  18  19
HETATM   19  C   UNL     1     -10.512   9.715  67.073  1.00  0.00    -0.232 C  
BRANCH  19  20
HETATM   20  S   UNL     1     -10.809  10.758  68.482  1.00  0.00    -0.250 S  
HETATM   21  O   UNL     1     -12.087  11.415  68.303  1.00  0.00    -0.606 OA 
HETATM   22  O   UNL     1      -9.606  11.512  68.762  1.00  0.00    -0.181 OA 
BRANCH  20  23
HETATM   23  C   UNL     1     -11.007   9.552  69.780  1.00  0.00    -0.223 A  
HETATM   24  C   UNL     1     -11.711   9.902  70.937  1.00  0.00    -0.449 A  
HETATM   25  C   UNL     1     -11.831   8.974  71.970  1.00  0.00    -0.426 A  
HETATM   26  C   UNL     1     -11.260   7.707  71.842  1.00  0.00    -0.299 A  
HETATM   27  C   UNL     1     -10.572   7.357  70.678  1.00  0.00    -0.234 A  
HETATM   28  C   UNL     1     -10.446   8.279  69.637  1.00  0.00    -0.221 A  
ENDBRANCH  20  23
ENDBRANCH  19  20
ENDBRANCH  18  19
ENDBRANCH  15  18
ENDBRANCH   7   8
ENDBRANCH   6   7
TORSDOF 6
ENDMDL
MODEL       45
REMARK 921   NORMALIZED FREE ENERGY PREDICTED BY IDOCK:   -6.14 KCAL/MOL
REMARK 922        TOTAL FREE ENERGY PREDICTED BY IDOCK:   -9.87 KCAL/MOL
REMARK 923 INTER-LIGAND FREE ENERGY PREDICTED BY IDOCK:   -8.98 KCAL/MOL
REMARK 924 INTRA-LIGAND FREE ENERGY PREDICTED BY IDOCK:   -0.90 KCAL/MOL
REMARK 927      BINDING AFFINITY PREDICTED BY RF-SCORE:    0.00 PKD
ROOT
HETATM    1  C   UNL     1     -13.032  13.858  65.524  1.00  0.00    -0.332 C  
HETATM    2  N   UNL     1     -12.181  12.717  65.199  1.00  0.00    -0.466 NA 
HETATM    3  C   UNL     1     -12.513  12.179  63.874  1.00  0.00    -0.478 C  
HETATM    4  C   UNL     1     -11.237  11.501  63.427  1.00  0.00    -0.342 C  
HETATM    5  C   UNL     1     -10.162  12.444  63.923  1.00  0.00    -0.409 C  
HETATM    6  C   UNL     1     -10.738  13.058  65.207  1.00  0.00    -0.299 C  
ENDROOT
BRANCH   6   7
HETATM    7  C   UNL     1     -10.068  12.510  66.494  1.00  0.00    -0.250 C  
BRANCH   7   8
HETATM    8  C   UNL     1     -10.836  12.802  67.755  1.00  0.00    -0.248 A  
HETATM    9  C   UNL     1     -11.479  11.887  68.566  1.00  0.00    -0.295 A  
HETATM   10  N   UNL     1     -11.963  12.546  69.668  1.00  0.00    -0.296 NA 
HETATM   11  C   UNL     1     -11.630  13.879  69.606  1.00  0.00    -0.286 A  
HETATM   12  H   UNL     1     -12.492  12.111  70.424  1.00  0.00     0.000 HD 
HETATM   13  C   UNL     1     -10.991  14.075  68.386  1.00  0.00    -0.269 A  
HETATM   14  C   UNL     1     -10.574  15.375  68.049  1.00  0.00    -0.263 A  
HETATM   15  C   UNL     1     -10.700  16.433  68.960  1.00  0.00    -0.322 A  
HETATM   16  C   UNL     1     -11.316  16.183  70.194  1.00  0.00    -0.347 A  
HETATM   17  C   UNL     1     -11.820  14.915  70.526  1.00  0.00    -0.358 A  
BRANCH  15  18
HETATM   18  C   UNL     1     -10.065  17.782  68.681  1.00  0.00    -0.384 C  
BRANCH  18  19
HETATM   19  C   UNL     1     -10.900  18.692  67.788  1.00  0.00    -0.260 C  
BRANCH  19  20
HETATM   20  S   UNL     1     -10.260  18.778  66.130  1.00  0.00    -0.385 S  
HETATM   21  O   UNL     1     -10.761  19.988  65.510  1.00  0.00    -0.426 OA 
HETATM   22  O   UNL     1     -10.425  17.486  65.502  1.00  0.00    -0.628 OA 
BRANCH  20  23
HETATM   23  C   UNL     1      -8.520  19.017  66.435  1.00  0.00    -0.306 A  
HETATM   24  C   UNL     1      -8.072  20.253  66.912  1.00  0.00    -0.346 A  
HETATM   25  C   UNL     1      -6.708  20.455  67.111  1.00  0.00    -0.297 A  
HETATM   26  C   UNL     1      -5.802  19.428  66.842  1.00  0.00    -0.173 A  
HETATM   27  C   UNL     1      -6.256  18.190  66.382  1.00  0.00    -0.226 A  
HETATM   28  C   UNL     1      -7.620  17.977  66.179  1.00  0.00    -0.285 A  
ENDBRANCH  20  23
ENDBRANCH  19  20
ENDBRANCH  18  19
ENDBRANCH  15  18
ENDBRANCH   7   8
ENDBRANCH   6   7
TORSDOF 6
ENDMDL
MODEL       46
REMARK 921   NORMALIZED FREE ENERGY PREDICTED BY IDOCK:   -6.08 KCAL/MOL
REMARK 922        TOTAL FREE ENERGY PREDICTED BY IDOCK:   -9.78 KCAL/MOL
REMARK 923 INTER-LIGAND FREE ENERGY PREDICTED BY IDOCK:   -8.97 KCAL/MOL
REMARK 924 INTRA-LIGAND FREE ENERGY PREDICTED BY IDOCK:   -0.81 KCAL/MOL
REMARK 927      BINDING AFFINITY PREDICTED BY RF-SCORE:    0.00 PKD
ROOT
HETATM    1  C   UNL     1      -8.901   9.482  70.150  1.00  0.00    -0.235 C  
HETATM    2  N   UNL     1      -8.930   8.619  68.972  1.00  0.00    -0.141 NA 
HETATM    3  C   UNL     1      -9.643   7.368  69.258  1.00  0.00    -0.154 C  
HETATM    4  C   UNL     1     -10.134   6.912  67.902  1.00  0.00    -0.195 C  
HETATM    5  C   UNL     1     -10.542   8.209  67.236  1.00  0.00    -0.344 C  
HETATM    6  C   UNL     1      -9.582   9.263  67.806  1.00  0.00    -0.142 C  
ENDROOT
BRANCH   6   7
HETATM    7  C   UNL     1      -8.512   9.724  66.783  1.00  0.00    -0.125 C  
BRANCH   7   8
HETATM    8  C   UNL     1      -9.076  10.109  65.440  1.00  0.00    -0.227 A  
HETATM    9  C   UNL     1      -8.909   9.435  64.246  1.00  0.00    -0.184 A  
HETATM   10  N   UNL     1      -9.672  10.052  63.288  1.00  0.00    -0.525 NA 
HETATM   11  C   UNL     1     -10.357  11.111  63.837  1.00  0.00    -0.380 A  
HETATM   12  H   UNL     1      -9.725   9.767  62.310  1.00  0.00     0.000 HD 
HETATM   13  C   UNL     1      -9.943  11.209  65.162  1.00  0.00    -0.323 A  
HETATM   14  C   UNL     1     -10.469  12.247  65.953  1.00  0.00    -0.288 A  
HETATM   15  C   UNL     1     -11.465  13.100  65.457  1.00  0.00    -0.343 A  
HETATM   16  C   UNL     1     -11.881  12.941  64.127  1.00  0.00    -0.479 A  
HETATM   17  C   UNL     1     -11.314  11.969  63.286  1.00  0.00    -0.396 A  
BRANCH  15  18
HETATM   18  C   UNL     1     -12.177  14.080  66.369  1.00  0.00    -0.492 C  
BRANCH  18  19
HETATM   19  C   UNL     1     -11.249  15.048  67.091  1.00  0.00    -0.336 C  
BRANCH  19  20
HETATM   20  S   UNL     1     -10.237  15.978  65.963  1.00  0.00    -0.360 S  
HETATM   21  O   UNL     1     -11.017  16.258  64.775  1.00  0.00    -0.631 OA 
HETATM   22  O   UNL     1      -8.937  15.349  65.880  1.00  0.00    -0.278 OA 
BRANCH  20  23
HETATM   23  C   UNL     1     -10.042  17.514  66.847  1.00  0.00    -0.324 A  
HETATM   24  C   UNL     1      -9.369  17.517  68.073  1.00  0.00    -0.272 A  
HETATM   25  C   UNL     1      -9.252  18.709  68.785  1.00  0.00    -0.318 A  
HETATM   26  C   UNL     1      -9.797  19.887  68.272  1.00  0.00    -0.514 A  
HETATM   27  C   UNL     1     -10.454  19.882  67.040  1.00  0.00    -0.570 A  
HETATM   28  C   UNL     1     -10.576  18.693  66.318  1.00  0.00    -0.396 A  
ENDBRANCH  20  23
ENDBRANCH  19  20
ENDBRANCH  18  19
ENDBRANCH  15  18
ENDBRANCH   7   8
ENDBRANCH   6   7
TORSDOF 6
ENDMDL
MODEL       47
REMARK 921   NORMALIZED FREE ENERGY PREDICTED BY IDOCK:   -6.07 KCAL/MOL
REMARK 922        TOTAL FREE ENERGY PREDICTED BY IDOCK:   -9.77 KCAL/MOL
REMARK 923 INTER-LIGAND FREE ENERGY PREDICTED BY IDOCK:   -8.38 KCAL/MOL
REMARK 924 INTRA-LIGAND FREE ENERGY PREDICTED BY IDOCK:   -1.39 KCAL/MOL
REMARK 927      BINDING AFFINITY PREDICTED BY RF-SCORE:    0.00 PKD
ROOT
HETATM    1  C   UNL     1     -10.401   8.039  67.094  1.00  0.00    -0.325 C  
HETATM    2  N   UNL     1      -9.713   9.286  66.772  1.00  0.00    -0.183 NA 
HETATM    3  C   UNL     1      -8.446   9.020  66.079  1.00  0.00    -0.130 C  
HETATM    4  C   UNL     1      -8.193  10.283  65.287  1.00  0.00    -0.161 C  
HETATM    5  C   UNL     1      -9.577  10.664  64.807  1.00  0.00    -0.334 C  
HETATM    6  C   UNL     1     -10.524  10.183  65.915  1.00  0.00    -0.071 C  
ENDROOT
BRANCH   6   7
HETATM    7  C   UNL     1     -11.107  11.346  66.760  1.00  0.00    -0.343 C  
BRANCH   7   8
HETATM    8  C   UNL     1     -11.345  12.611  65.978  1.00  0.00    -0.369 A  
HETATM    9  C   UNL     1     -12.437  12.902  65.184  1.00  0.00    -0.501 A  
HETATM   10  N   UNL     1     -12.319  14.195  64.739  1.00  0.00    -0.540 NA 
HETATM   11  C   UNL     1     -11.176  14.768  65.247  1.00  0.00    -0.366 A  
HETATM   12  H   UNL     1     -12.983  14.664  64.123  1.00  0.00     0.000 HD 
HETATM   13  C   UNL     1     -10.515  13.774  65.962  1.00  0.00    -0.297 A  
HETATM   14  C   UNL     1      -9.282  14.087  66.561  1.00  0.00    -0.240 A  
HETATM   15  C   UNL     1      -8.776  15.394  66.532  1.00  0.00    -0.335 A  
HETATM   16  C   UNL     1      -9.493  16.374  65.832  1.00  0.00    -0.289 A  
HETATM   17  C   UNL     1     -10.684  16.074  65.151  1.00  0.00    -0.429 A  
BRANCH  15  18
HETATM   18  C   UNL     1      -7.557  15.777  67.350  1.00  0.00    -0.220 C  
BRANCH  18  19
HETATM   19  C   UNL     1      -6.652  16.803  66.680  1.00  0.00    -0.181 C  
BRANCH  19  20
HETATM   20  S   UNL     1      -6.472  18.280  67.655  1.00  0.00    -0.192 S  
HETATM   21  O   UNL     1      -5.586  19.185  66.952  1.00  0.00    -0.160 OA 
HETATM   22  O   UNL     1      -6.227  17.900  69.029  1.00  0.00    -0.203 OA 
BRANCH  20  23
HETATM   23  C   UNL     1      -8.115  18.965  67.565  1.00  0.00    -0.260 A  
HETATM   24  C   UNL     1      -8.963  18.856  68.673  1.00  0.00    -0.386 A  
HETATM   25  C   UNL     1     -10.262  19.354  68.590  1.00  0.00    -0.462 A  
HETATM   26  C   UNL     1     -10.705  19.960  67.413  1.00  0.00    -0.447 A  
HETATM   27  C   UNL     1      -9.850  20.080  66.316  1.00  0.00    -0.576 A  
HETATM   28  C   UNL     1      -8.546  19.586  66.389  1.00  0.00    -0.384 A  
ENDBRANCH  20  23
ENDBRANCH  19  20
ENDBRANCH  18  19
ENDBRANCH  15  18
ENDBRANCH   7   8
ENDBRANCH   6   7
TORSDOF 6
ENDMDL
MODEL       48
REMARK 921   NORMALIZED FREE ENERGY PREDICTED BY IDOCK:   -6.05 KCAL/MOL
REMARK 922        TOTAL FREE ENERGY PREDICTED BY IDOCK:   -9.74 KCAL/MOL
REMARK 923 INTER-LIGAND FREE ENERGY PREDICTED BY IDOCK:   -8.24 KCAL/MOL
REMARK 924 INTRA-LIGAND FREE ENERGY PREDICTED BY IDOCK:   -1.50 KCAL/MOL
REMARK 927      BINDING AFFINITY PREDICTED BY RF-SCORE:    0.00 PKD
ROOT
HETATM    1  C   UNL     1      -8.245  13.648  68.306  1.00  0.00    -0.156 C  
HETATM    2  N   UNL     1      -9.320  14.321  67.582  1.00  0.00    -0.196 NA 
HETATM    3  C   UNL     1      -8.818  15.518  66.896  1.00  0.00    -0.255 C  
HETATM    4  C   UNL     1      -9.790  15.717  65.755  1.00  0.00    -0.383 C  
HETATM    5  C   UNL     1     -10.068  14.301  65.297  1.00  0.00    -0.378 C  
HETATM    6  C   UNL     1      -9.962  13.448  66.570  1.00  0.00    -0.286 C  
ENDROOT
BRANCH   6   7
HETATM    7  C   UNL     1     -11.340  12.957  67.086  1.00  0.00    -0.352 C  
BRANCH   7   8
HETATM    8  C   UNL     1     -11.747  13.557  68.406  1.00  0.00    -0.393 A  
HETATM    9  C   UNL     1     -11.926  14.896  68.689  1.00  0.00    -0.241 A  
HETATM   10  N   UNL     1     -12.402  15.011  69.971  1.00  0.00    -0.450 NA 
HETATM   11  C   UNL     1     -12.560  13.764  70.531  1.00  0.00    -0.291 A  
HETATM   12  H   UNL     1     -12.609  15.892  70.441  1.00  0.00     0.000 HD 
HETATM   13  C   UNL     1     -12.088  12.846  69.598  1.00  0.00    -0.290 A  
HETATM   14  C   UNL     1     -12.100  11.481  69.937  1.00  0.00    -0.389 A  
HETATM   15  C   UNL     1     -12.670  11.040  71.139  1.00  0.00    -0.521 A  
HETATM   16  C   UNL     1     -13.169  11.997  72.034  1.00  0.00    -0.481 A  
HETATM   17  C   UNL     1     -13.094  13.373  71.762  1.00  0.00    -0.479 A  
BRANCH  15  18
HETATM   18  C   UNL     1     -12.870   9.561  71.411  1.00  0.00    -0.443 C  
BRANCH  18  19
HETATM   19  C   UNL     1     -11.715   8.900  72.152  1.00  0.00    -0.341 C  
BRANCH  19  20
HETATM   20  S   UNL     1     -10.946   7.616  71.190  1.00  0.00    -0.250 S  
HETATM   21  O   UNL     1     -11.988   6.774  70.638  1.00  0.00    -0.386 OA 
HETATM   22  O   UNL     1      -9.850   7.059  71.952  1.00  0.00    -0.165 OA 
BRANCH  20  23
HETATM   23  C   UNL     1     -10.250   8.553  69.842  1.00  0.00    -0.204 A  
HETATM   24  C   UNL     1     -10.772   8.392  68.555  1.00  0.00    -0.069 A  
HETATM   25  C   UNL     1     -10.202   9.092  67.494  1.00  0.00    -0.302 A  
HETATM   26  C   UNL     1      -9.124   9.949  67.720  1.00  0.00    -0.138 A  
HETATM   27  C   UNL     1      -8.617  10.119  69.009  1.00  0.00    -0.156 A  
HETATM   28  C   UNL     1      -9.181   9.423  70.080  1.00  0.00    -0.245 A  
ENDBRANCH  20  23
ENDBRANCH  19  20
ENDBRANCH  18  19
ENDBRANCH  15  18
ENDBRANCH   7   8
ENDBRANCH   6   7
TORSDOF 6
ENDMDL
MODEL       49
REMARK 921   NORMALIZED FREE ENERGY PREDICTED BY IDOCK:   -6.04 KCAL/MOL
REMARK 922        TOTAL FREE ENERGY PREDICTED BY IDOCK:   -9.73 KCAL/MOL
REMARK 923 INTER-LIGAND FREE ENERGY PREDICTED BY IDOCK:   -8.91 KCAL/MOL
REMARK 924 INTRA-LIGAND FREE ENERGY PREDICTED BY IDOCK:   -0.82 KCAL/MOL
REMARK 927      BINDING AFFINITY PREDICTED BY RF-SCORE:    0.00 PKD
ROOT
HETATM    1  C   UNL     1     -12.177  13.847  69.776  1.00  0.00    -0.332 C  
HETATM    2  N   UNL     1     -11.953  12.570  70.446  1.00  0.00    -0.313 NA 
HETATM    3  C   UNL     1     -12.942  12.356  71.510  1.00  0.00    -0.285 C  
HETATM    4  C   UNL     1     -13.003  10.852  71.653  1.00  0.00    -0.569 C  
HETATM    5  C   UNL     1     -12.901  10.372  70.221  1.00  0.00    -0.167 C  
HETATM    6  C   UNL     1     -12.023  11.416  69.517  1.00  0.00    -0.341 C  
ENDROOT
BRANCH   6   7
HETATM    7  C   UNL     1     -10.596  10.895  69.205  1.00  0.00    -0.253 C  
BRANCH   7   8
HETATM    8  C   UNL     1     -10.388  10.509  67.764  1.00  0.00    -0.248 A  
HETATM    9  C   UNL     1     -10.292   9.229  67.254  1.00  0.00    -0.265 A  
HETATM   10  N   UNL     1     -10.216   9.310  65.886  1.00  0.00    -0.310 NA 
HETATM   11  C   UNL     1     -10.282  10.624  65.485  1.00  0.00    -0.262 A  
HETATM   12  H   UNL     1     -10.123   8.511  65.258  1.00  0.00     0.000 HD 
HETATM   13  C   UNL     1     -10.315  11.393  66.644  1.00  0.00    -0.272 A  
HETATM   14  C   UNL     1     -10.347  12.793  66.518  1.00  0.00    -0.262 A  
HETATM   15  C   UNL     1     -10.450  13.403  65.259  1.00  0.00    -0.334 A  
HETATM   16  C   UNL     1     -10.451  12.588  64.119  1.00  0.00    -0.429 A  
HETATM   17  C   UNL     1     -10.335  11.191  64.208  1.00  0.00    -0.413 A  
BRANCH  15  18
HETATM   18  C   UNL     1     -10.693  14.895  65.134  1.00  0.00    -0.429 C  
BRANCH  18  19
HETATM   19  C   UNL     1      -9.661  15.758  65.849  1.00  0.00    -0.354 C  
BRANCH  19  20
HETATM   20  S   UNL     1     -10.295  17.372  66.248  1.00  0.00    -0.283 S  
HETATM   21  O   UNL     1     -10.998  17.287  67.511  1.00  0.00    -0.256 OA 
HETATM   22  O   UNL     1     -10.925  17.926  65.070  1.00  0.00    -0.776 OA 
BRANCH  20  23
HETATM   23  C   UNL     1      -8.789  18.281  66.537  1.00  0.00    -0.271 A  
HETATM   24  C   UNL     1      -7.560  17.625  66.416  1.00  0.00    -0.322 A  
HETATM   25  C   UNL     1      -6.384  18.323  66.682  1.00  0.00    -0.215 A  
HETATM   26  C   UNL     1      -6.437  19.666  67.060  1.00  0.00    -0.205 A  
HETATM   27  C   UNL     1      -7.666  20.321  67.163  1.00  0.00    -0.360 A  
HETATM   28  C   UNL     1      -8.850  19.631  66.898  1.00  0.00    -0.387 A  
ENDBRANCH  20  23
ENDBRANCH  19  20
ENDBRANCH  18  19
ENDBRANCH  15  18
ENDBRANCH   7   8
ENDBRANCH   6   7
TORSDOF 6
ENDMDL
MODEL       50
REMARK 921   NORMALIZED FREE ENERGY PREDICTED BY IDOCK:   -6.03 KCAL/MOL
REMARK 922        TOTAL FREE ENERGY PREDICTED BY IDOCK:   -9.72 KCAL/MOL
REMARK 923 INTER-LIGAND FREE ENERGY PREDICTED BY IDOCK:   -8.83 KCAL/MOL
REMARK 924 INTRA-LIGAND FREE ENERGY PREDICTED BY IDOCK:   -0.89 KCAL/MOL
REMARK 927      BINDING AFFINITY PREDICTED BY RF-SCORE:    0.00 PKD
ROOT
HETATM    1  C   UNL     1     -11.235  16.264  70.544  1.00  0.00    -0.309 C  
HETATM    2  N   UNL     1     -11.934  15.316  71.407  1.00  0.00    -0.333 NA 
HETATM    3  C   UNL     1     -12.945  16.000  72.223  1.00  0.00    -0.338 C  
HETATM    4  C   UNL     1     -13.950  14.915  72.540  1.00  0.00    -0.540 C  
HETATM    5  C   UNL     1     -14.019  14.131  71.247  1.00  0.00    -0.196 C  
HETATM    6  C   UNL     1     -12.612  14.240  70.644  1.00  0.00    -0.355 C  
ENDROOT
BRANCH   6   7
HETATM    7  C   UNL     1     -11.804  12.921  70.749  1.00  0.00     0.092 C  
BRANCH   7   8
HETATM    8  C   UNL     1     -11.667  12.182  69.444  1.00  0.00    -0.391 A  
HETATM    9  C   UNL     1     -12.099  10.899  69.168  1.00  0.00    -0.221 A  
HETATM   10  N   UNL     1     -11.881  10.644  67.837  1.00  0.00    -0.715 NA 
HETATM   11  C   UNL     1     -11.333  11.748  67.227  1.00  0.00    -0.315 A  
HETATM   12  H   UNL     1     -12.096   9.764  67.368  1.00  0.00     0.000 HD 
HETATM   13  C   UNL     1     -11.122  12.693  68.226  1.00  0.00    -0.295 A  
HETATM   14  C   UNL     1     -10.528  13.918  67.875  1.00  0.00    -0.242 A  
HETATM   15  C   UNL     1     -10.249  14.229  66.537  1.00  0.00    -0.277 A  
HETATM   16  C   UNL     1     -10.512  13.262  65.557  1.00  0.00    -0.295 A  
HETATM   17  C   UNL     1     -11.026  11.997  65.885  1.00  0.00    -0.342 A  
BRANCH  15  18
HETATM   18  C   UNL     1      -9.803  15.622  66.136  1.00  0.00    -0.340 C  
BRANCH  18  19
HETATM   19  C   UNL     1      -9.522  16.550  67.311  1.00  0.00    -0.235 C  
BRANCH  19  20
HETATM   20  S   UNL     1     -10.053  18.218  66.994  1.00  0.00    -0.380 S  
HETATM   21  O   UNL     1     -11.147  18.526  67.891  1.00  0.00    -0.184 OA 
HETATM   22  O   UNL     1     -10.175  18.401  65.565  1.00  0.00    -0.522 OA 
BRANCH  20  23
HETATM   23  C   UNL     1      -8.635  19.150  67.543  1.00  0.00    -0.288 A  
HETATM   24  C   UNL     1      -8.227  20.269  66.809  1.00  0.00    -0.317 A  
HETATM   25  C   UNL     1      -7.095  20.974  67.212  1.00  0.00    -0.399 A  
HETATM   26  C   UNL     1      -6.383  20.567  68.342  1.00  0.00    -0.351 A  
HETATM   27  C   UNL     1      -6.804  19.460  69.080  1.00  0.00    -0.377 A  
HETATM   28  C   UNL     1      -7.937  18.746  68.685  1.00  0.00    -0.369 A  
ENDBRANCH  20  23
ENDBRANCH  19  20
ENDBRANCH  18  19
ENDBRANCH  15  18
ENDBRANCH   7   8
ENDBRANCH   6   7
TORSDOF 6
ENDMDL
MODEL       51
REMARK 921   NORMALIZED FREE ENERGY PREDICTED BY IDOCK:   -6.03 KCAL/MOL
REMARK 922        TOTAL FREE ENERGY PREDICTED BY IDOCK:   -9.72 KCAL/MOL
REMARK 923 INTER-LIGAND FREE ENERGY PREDICTED BY IDOCK:   -8.62 KCAL/MOL
REMARK 924 INTRA-LIGAND FREE ENERGY PREDICTED BY IDOCK:   -1.10 KCAL/MOL
REMARK 927      BINDING AFFINITY PREDICTED BY RF-SCORE:    0.00 PKD
ROOT
HETATM    1  C   UNL     1      -9.528   9.416  65.844  1.00  0.00    -0.251 C  
HETATM    2  N   UNL     1      -8.718   9.795  64.690  1.00  0.00    -0.178 NA 
HETATM    3  C   UNL     1      -7.715   8.765  64.394  1.00  0.00    -0.123 C  
HETATM    4  C   UNL     1      -7.427   8.951  62.921  1.00  0.00    -0.106 C  
HETATM    5  C   UNL     1      -8.792   9.264  62.346  1.00  0.00    -0.242 C  
HETATM    6  C   UNL     1      -9.529  10.010  63.467  1.00  0.00    -0.187 C  
ENDROOT
BRANCH   6   7
HETATM    7  C   UNL     1      -9.681  11.528  63.187  1.00  0.00    -0.412 C  
BRANCH   7   8
HETATM    8  C   UNL     1     -10.877  12.156  63.852  1.00  0.00    -0.461 A  
HETATM    9  C   UNL     1     -12.204  11.978  63.512  1.00  0.00    -0.547 A  
HETATM   10  N   UNL     1     -12.981  12.638  64.431  1.00  0.00    -0.759 NA 
HETATM   11  C   UNL     1     -12.186  13.231  65.384  1.00  0.00    -0.456 A  
HETATM   12  H   UNL     1     -14.000  12.682  64.410  1.00  0.00     0.000 HD 
HETATM   13  C   UNL     1     -10.868  13.005  65.001  1.00  0.00    -0.328 A  
HETATM   14  C   UNL     1      -9.839  13.544  65.793  1.00  0.00    -0.218 A  
HETATM   15  C   UNL     1     -10.123  14.203  66.998  1.00  0.00    -0.261 A  
HETATM   16  C   UNL     1     -11.465  14.375  67.365  1.00  0.00    -0.377 A  
HETATM   17  C   UNL     1     -12.518  13.923  66.553  1.00  0.00    -0.364 A  
BRANCH  15  18
HETATM   18  C   UNL     1      -9.012  14.600  67.951  1.00  0.00    -0.174 C  
BRANCH  18  19
HETATM   19  C   UNL     1      -7.788  15.197  67.269  1.00  0.00    -0.211 C  
BRANCH  19  20
HETATM   20  S   UNL     1      -7.256  16.707  68.044  1.00  0.00    -0.159 S  
HETATM   21  O   UNL     1      -6.067  17.176  67.363  1.00  0.00    -0.127 OA 
HETATM   22  O   UNL     1      -7.281  16.525  69.479  1.00  0.00    -0.209 OA 
BRANCH  20  23
HETATM   23  C   UNL     1      -8.587  17.813  67.614  1.00  0.00    -0.230 A  
HETATM   24  C   UNL     1      -8.940  18.836  68.500  1.00  0.00    -0.375 A  
HETATM   25  C   UNL     1     -10.007  19.675  68.185  1.00  0.00    -0.547 A  
HETATM   26  C   UNL     1     -10.709  19.495  66.992  1.00  0.00    -0.592 A  
HETATM   27  C   UNL     1     -10.343  18.482  66.104  1.00  0.00    -0.457 A  
HETATM   28  C   UNL     1      -9.275  17.636  66.409  1.00  0.00    -0.263 A  
ENDBRANCH  20  23
ENDBRANCH  19  20
ENDBRANCH  18  19
ENDBRANCH  15  18
ENDBRANCH   7   8
ENDBRANCH   6   7
TORSDOF 6
ENDMDL
MODEL       52
REMARK 921   NORMALIZED FREE ENERGY PREDICTED BY IDOCK:   -6.02 KCAL/MOL
REMARK 922        TOTAL FREE ENERGY PREDICTED BY IDOCK:   -9.70 KCAL/MOL
REMARK 923 INTER-LIGAND FREE ENERGY PREDICTED BY IDOCK:   -8.22 KCAL/MOL
REMARK 924 INTRA-LIGAND FREE ENERGY PREDICTED BY IDOCK:   -1.48 KCAL/MOL
REMARK 927      BINDING AFFINITY PREDICTED BY RF-SCORE:    0.00 PKD
ROOT
HETATM    1  C   UNL     1     -11.954  12.104  63.916  1.00  0.00    -0.486 C  
HETATM    2  N   UNL     1     -11.421  12.734  65.120  1.00  0.00    -0.309 NA 
HETATM    3  C   UNL     1     -12.284  13.838  65.557  1.00  0.00    -0.442 C  
HETATM    4  C   UNL     1     -12.007  13.951  67.040  1.00  0.00    -0.459 C  
HETATM    5  C   UNL     1     -11.875  12.506  67.470  1.00  0.00    -0.389 C  
HETATM    6  C   UNL     1     -11.284  11.784  66.251  1.00  0.00    -0.312 C  
ENDROOT
BRANCH   6   7
HETATM    7  C   UNL     1      -9.795  11.393  66.442  1.00  0.00    -0.242 C  
BRANCH   7   8
HETATM    8  C   UNL     1      -9.442  10.039  65.884  1.00  0.00    -0.260 A  
HETATM    9  C   UNL     1      -8.689   9.777  64.757  1.00  0.00    -0.192 A  
HETATM   10  N   UNL     1      -8.511   8.420  64.658  1.00  0.00    -0.330 NA 
HETATM   11  C   UNL     1      -9.118   7.785  65.716  1.00  0.00    -0.011 A  
HETATM   12  H   UNL     1      -8.001   7.950  63.909  1.00  0.00     0.000 HD 
HETATM   13  C   UNL     1      -9.768   8.770  66.453  1.00  0.00    -0.335 A  
HETATM   14  C   UNL     1     -10.509   8.382  67.583  1.00  0.00    -0.307 A  
HETATM   15  C   UNL     1     -10.511   7.051  68.024  1.00  0.00    -0.255 A  
HETATM   16  C   UNL     1      -9.810   6.096  67.273  1.00  0.00    -0.158 A  
HETATM   17  C   UNL     1      -9.131   6.438  66.092  1.00  0.00    -0.150 A  
BRANCH  15  18
HETATM   18  C   UNL     1     -11.135   6.670  69.353  1.00  0.00    -0.365 C  
BRANCH  18  19
HETATM   19  C   UNL     1     -10.135   6.189  70.397  1.00  0.00    -0.189 C  
BRANCH  19  20
HETATM   20  S   UNL     1      -9.454   7.531  71.344  1.00  0.00    -0.147 S  
HETATM   21  O   UNL     1      -8.429   8.177  70.549  1.00  0.00    -0.119 OA 
HETATM   22  O   UNL     1      -9.183   7.062  72.685  1.00  0.00    -0.134 OA 
BRANCH  20  23
HETATM   23  C   UNL     1     -10.843   8.645  71.429  1.00  0.00    -0.269 A  
HETATM   24  C   UNL     1     -11.939   8.312  72.231  1.00  0.00    -0.448 A  
HETATM   25  C   UNL     1     -13.043   9.161  72.266  1.00  0.00    -0.509 A  
HETATM   26  C   UNL     1     -13.048  10.335  71.511  1.00  0.00    -0.534 A  
HETATM   27  C   UNL     1     -11.944  10.670  70.724  1.00  0.00    -0.477 A  
HETATM   28  C   UNL     1     -10.833   9.828  70.682  1.00  0.00    -0.396 A  
ENDBRANCH  20  23
ENDBRANCH  19  20
ENDBRANCH  18  19
ENDBRANCH  15  18
ENDBRANCH   7   8
ENDBRANCH   6   7
TORSDOF 6
ENDMDL
MODEL       53
REMARK 921   NORMALIZED FREE ENERGY PREDICTED BY IDOCK:   -6.02 KCAL/MOL
REMARK 922        TOTAL FREE ENERGY PREDICTED BY IDOCK:   -9.70 KCAL/MOL
REMARK 923 INTER-LIGAND FREE ENERGY PREDICTED BY IDOCK:   -7.67 KCAL/MOL
REMARK 924 INTRA-LIGAND FREE ENERGY PREDICTED BY IDOCK:   -2.04 KCAL/MOL
REMARK 927      BINDING AFFINITY PREDICTED BY RF-SCORE:    0.00 PKD
ROOT
HETATM    1  C   UNL     1      -7.503  20.621  67.310  1.00  0.00    -0.347 C  
HETATM    2  N   UNL     1      -8.712  19.813  67.445  1.00  0.00    -0.315 NA 
HETATM    3  C   UNL     1      -9.715  20.201  66.446  1.00  0.00    -0.415 C  
HETATM    4  C   UNL     1     -10.561  18.959  66.279  1.00  0.00    -0.463 C  
HETATM    5  C   UNL     1      -9.540  17.843  66.345  1.00  0.00    -0.294 C  
HETATM    6  C   UNL     1      -8.450  18.361  67.293  1.00  0.00    -0.254 C  
ENDROOT
BRANCH   6   7
HETATM    7  C   UNL     1      -8.473  17.666  68.679  1.00  0.00    -0.266 C  
BRANCH   7   8
HETATM    8  C   UNL     1      -7.425  16.596  68.844  1.00  0.00    -0.232 A  
HETATM    9  C   UNL     1      -6.293  16.658  69.631  1.00  0.00    -0.217 A  
HETATM   10  N   UNL     1      -5.665  15.438  69.586  1.00  0.00    -0.114 NA 
HETATM   11  C   UNL     1      -6.378  14.567  68.797  1.00  0.00    -0.088 A  
HETATM   12  H   UNL     1      -4.794  15.211  70.068  1.00  0.00     0.000 HD 
HETATM   13  C   UNL     1      -7.441  15.290  68.264  1.00  0.00    -0.112 A  
HETATM   14  C   UNL     1      -8.318  14.638  67.380  1.00  0.00    -0.223 A  
HETATM   15  C   UNL     1      -8.194  13.266  67.119  1.00  0.00    -0.123 A  
HETATM   16  C   UNL     1      -7.131  12.567  67.708  1.00  0.00    -0.126 A  
HETATM   17  C   UNL     1      -6.188  13.208  68.528  1.00  0.00    -0.079 A  
BRANCH  15  18
HETATM   18  C   UNL     1      -9.257  12.522  66.335  1.00  0.00    -0.177 C  
BRANCH  18  19
HETATM   19  C   UNL     1     -10.357  13.413  65.772  1.00  0.00    -0.293 C  
BRANCH  19  20
HETATM   20  S   UNL     1     -11.954  13.020  66.449  1.00  0.00    -0.368 S  
HETATM   21  O   UNL     1     -11.985  11.604  66.752  1.00  0.00    -0.536 OA 
HETATM   22  O   UNL     1     -12.971  13.638  65.627  1.00  0.00    -0.538 OA 
BRANCH  20  23
HETATM   23  C   UNL     1     -11.904  13.895  68.002  1.00  0.00    -0.375 A  
HETATM   24  C   UNL     1     -12.019  13.176  69.196  1.00  0.00    -0.329 A  
HETATM   25  C   UNL     1     -12.022  13.862  70.409  1.00  0.00    -0.393 A  
HETATM   26  C   UNL     1     -11.906  15.253  70.426  1.00  0.00    -0.361 A  
HETATM   27  C   UNL     1     -11.776  15.965  69.232  1.00  0.00    -0.360 A  
HETATM   28  C   UNL     1     -11.770  15.287  68.012  1.00  0.00    -0.268 A  
ENDBRANCH  20  23
ENDBRANCH  19  20
ENDBRANCH  18  19
ENDBRANCH  15  18
ENDBRANCH   7   8
ENDBRANCH   6   7
TORSDOF 6
ENDMDL
MODEL       54
REMARK 921   NORMALIZED FREE ENERGY PREDICTED BY IDOCK:   -6.00 KCAL/MOL
REMARK 922        TOTAL FREE ENERGY PREDICTED BY IDOCK:   -9.68 KCAL/MOL
REMARK 923 INTER-LIGAND FREE ENERGY PREDICTED BY IDOCK:   -8.74 KCAL/MOL
REMARK 924 INTRA-LIGAND FREE ENERGY PREDICTED BY IDOCK:   -0.94 KCAL/MOL
REMARK 927      BINDING AFFINITY PREDICTED BY RF-SCORE:    0.00 PKD
ROOT
HETATM    1  C   UNL     1     -10.378   6.633  74.079  1.00  0.00    -0.351 C  
HETATM    2  N   UNL     1     -10.606   6.855  72.654  1.00  0.00    -0.220 NA 
HETATM    3  C   UNL     1     -11.760   6.079  72.182  1.00  0.00    -0.279 C  
HETATM    4  C   UNL     1     -12.244   6.847  70.972  1.00  0.00    -0.427 C  
HETATM    5  C   UNL     1     -12.068   8.290  71.396  1.00  0.00    -0.331 C  
HETATM    6  C   UNL     1     -10.848   8.281  72.328  1.00  0.00    -0.338 C  
ENDROOT
BRANCH   6   7
HETATM    7  C   UNL     1      -9.585   8.902  71.678  1.00  0.00    -0.363 C  
BRANCH   7   8
HETATM    8  C   UNL     1      -9.377   8.502  70.241  1.00  0.00    -0.171 A  
HETATM    9  C   UNL     1      -8.863   7.306  69.779  1.00  0.00    -0.142 A  
HETATM   10  N   UNL     1      -8.942   7.298  68.409  1.00  0.00    -0.127 NA 
HETATM   11  C   UNL     1      -9.521   8.463  67.962  1.00  0.00    -0.143 A  
HETATM   12  H   UNL     1      -8.619   6.538  67.810  1.00  0.00     0.000 HD 
HETATM   13  C   UNL     1      -9.732   9.259  69.083  1.00  0.00    -0.164 A  
HETATM   14  C   UNL     1     -10.287  10.539  68.901  1.00  0.00    -0.226 A  
HETATM   15  C   UNL     1     -10.716  10.967  67.636  1.00  0.00    -0.288 A  
HETATM   16  C   UNL     1     -10.518  10.116  66.539  1.00  0.00    -0.236 A  
HETATM   17  C   UNL     1      -9.890   8.868  66.675  1.00  0.00    -0.332 A  
BRANCH  15  18
HETATM   18  C   UNL     1     -11.500  12.255  67.474  1.00  0.00    -0.414 C  
BRANCH  18  19
HETATM   19  C   UNL     1     -12.023  12.836  68.781  1.00  0.00    -0.240 C  
BRANCH  19  20
HETATM   20  S   UNL     1     -11.363  14.455  69.109  1.00  0.00    -0.292 S  
HETATM   21  O   UNL     1     -12.007  15.399  68.219  1.00  0.00    -0.283 OA 
HETATM   22  O   UNL     1      -9.923  14.360  69.194  1.00  0.00    -0.180 OA 
BRANCH  20  23
HETATM   23  C   UNL     1     -11.985  14.764  70.752  1.00  0.00    -0.310 A  
HETATM   24  C   UNL     1     -11.708  15.988  71.369  1.00  0.00    -0.536 A  
HETATM   25  C   UNL     1     -12.158  16.215  72.668  1.00  0.00    -0.652 A  
HETATM   26  C   UNL     1     -12.882  15.229  73.340  1.00  0.00    -0.667 A  
HETATM   27  C   UNL     1     -13.169  14.015  72.714  1.00  0.00    -0.580 A  
HETATM   28  C   UNL     1     -12.724  13.777  71.412  1.00  0.00    -0.450 A  
ENDBRANCH  20  23
ENDBRANCH  19  20
ENDBRANCH  18  19
ENDBRANCH  15  18
ENDBRANCH   7   8
ENDBRANCH   6   7
TORSDOF 6
ENDMDL
MODEL       55
REMARK 921   NORMALIZED FREE ENERGY PREDICTED BY IDOCK:   -5.97 KCAL/MOL
REMARK 922        TOTAL FREE ENERGY PREDICTED BY IDOCK:   -9.64 KCAL/MOL
REMARK 923 INTER-LIGAND FREE ENERGY PREDICTED BY IDOCK:   -8.62 KCAL/MOL
REMARK 924 INTRA-LIGAND FREE ENERGY PREDICTED BY IDOCK:   -1.02 KCAL/MOL
REMARK 927      BINDING AFFINITY PREDICTED BY RF-SCORE:    0.00 PKD
ROOT
HETATM    1  C   UNL     1      -9.173   6.418  68.518  1.00  0.00    -0.124 C  
HETATM    2  N   UNL     1      -9.445   6.126  69.923  1.00  0.00    -0.151 NA 
HETATM    3  C   UNL     1      -9.775   4.708  70.108  1.00  0.00    -0.215 C  
HETATM    4  C   UNL     1      -9.408   4.434  71.549  1.00  0.00    -0.203 C  
HETATM    5  C   UNL     1      -8.137   5.236  71.732  1.00  0.00    -0.117 C  
HETATM    6  C   UNL     1      -8.300   6.450  70.808  1.00  0.00    -0.126 C  
ENDROOT
BRANCH   6   7
HETATM    7  C   UNL     1      -8.578   7.766  71.580  1.00  0.00    -0.133 C  
BRANCH   7   8
HETATM    8  C   UNL     1     -10.026   7.970  71.941  1.00  0.00    -0.255 A  
HETATM    9  C   UNL     1     -10.709   7.388  72.991  1.00  0.00    -0.364 A  
HETATM   10  N   UNL     1     -11.973   7.920  73.035  1.00  0.00    -0.646 NA 
HETATM   11  C   UNL     1     -12.127   8.859  72.042  1.00  0.00    -0.371 A  
HETATM   12  H   UNL     1     -12.695   7.656  73.707  1.00  0.00     0.000 HD 
HETATM   13  C   UNL     1     -10.949   8.853  71.302  1.00  0.00    -0.363 A  
HETATM   14  C   UNL     1     -10.854   9.707  70.188  1.00  0.00    -0.325 A  
HETATM   15  C   UNL     1     -11.875  10.620  69.888  1.00  0.00    -0.392 A  
HETATM   16  C   UNL     1     -13.029  10.619  70.684  1.00  0.00    -0.343 A  
HETATM   17  C   UNL     1     -13.190   9.720  71.751  1.00  0.00    -0.532 A  
BRANCH  15  18
HETATM   18  C   UNL     1     -11.685  11.679  68.819  1.00  0.00    -0.392 C  
BRANCH  18  19
HETATM   19  C   UNL     1     -10.686  12.768  69.189  1.00  0.00    -0.016 C  
BRANCH  19  20
HETATM   20  S   UNL     1     -11.309  14.398  68.844  1.00  0.00    -0.292 S  
HETATM   21  O   UNL     1     -12.356  14.284  67.849  1.00  0.00    -0.229 OA 
HETATM   22  O   UNL     1     -10.189  15.294  68.660  1.00  0.00    -0.213 OA 
BRANCH  20  23
HETATM   23  C   UNL     1     -12.089  14.813  70.392  1.00  0.00    -0.321 A  
HETATM   24  C   UNL     1     -11.521  15.804  71.200  1.00  0.00    -0.466 A  
HETATM   25  C   UNL     1     -12.106  16.101  72.429  1.00  0.00    -0.630 A  
HETATM   26  C   UNL     1     -13.251  15.418  72.843  1.00  0.00    -0.622 A  
HETATM   27  C   UNL     1     -13.823  14.441  72.026  1.00  0.00    -0.567 A  
HETATM   28  C   UNL     1     -13.246  14.136  70.792  1.00  0.00    -0.212 A  
ENDBRANCH  20  23
ENDBRANCH  19  20
ENDBRANCH  18  19
ENDBRANCH  15  18
ENDBRANCH   7   8
ENDBRANCH   6   7
TORSDOF 6
ENDMDL
MODEL       56
REMARK 921   NORMALIZED FREE ENERGY PREDICTED BY IDOCK:   -5.92 KCAL/MOL
REMARK 922        TOTAL FREE ENERGY PREDICTED BY IDOCK:   -9.57 KCAL/MOL
REMARK 923 INTER-LIGAND FREE ENERGY PREDICTED BY IDOCK:   -8.00 KCAL/MOL
REMARK 924 INTRA-LIGAND FREE ENERGY PREDICTED BY IDOCK:   -1.57 KCAL/MOL
REMARK 927      BINDING AFFINITY PREDICTED BY RF-SCORE:    0.00 PKD
ROOT
HETATM    1  C   UNL     1      -7.607  10.604  69.542  1.00  0.00    -0.124 C  
HETATM    2  N   UNL     1      -8.112   9.603  68.606  1.00  0.00    -0.099 NA 
HETATM    3  C   UNL     1      -7.012   8.807  68.048  1.00  0.00    -0.078 C  
HETATM    4  C   UNL     1      -7.669   7.503  67.656  1.00  0.00    -0.115 C  
HETATM    5  C   UNL     1      -8.651   7.267  68.784  1.00  0.00    -0.129 C  
HETATM    6  C   UNL     1      -9.080   8.671  69.233  1.00  0.00    -0.149 C  
ENDROOT
BRANCH   6   7
HETATM    7  C   UNL     1     -10.525   9.030  68.798  1.00  0.00    -0.230 C  
BRANCH   7   8
HETATM    8  C   UNL     1     -11.323   9.742  69.858  1.00  0.00    -0.238 A  
HETATM    9  C   UNL     1     -11.733   9.229  71.073  1.00  0.00    -0.311 A  
HETATM   10  N   UNL     1     -12.338  10.232  71.788  1.00  0.00    -0.339 NA 
HETATM   11  C   UNL     1     -12.315  11.405  71.070  1.00  0.00    -0.343 A  
HETATM   12  H   UNL     1     -12.746  10.124  72.717  1.00  0.00     0.000 HD 
HETATM   13  C   UNL     1     -11.752  11.105  69.834  1.00  0.00    -0.433 A  
HETATM   14  C   UNL     1     -11.643  12.133  68.880  1.00  0.00    -0.377 A  
HETATM   15  C   UNL     1     -11.992  13.454  69.198  1.00  0.00    -0.363 A  
HETATM   16  C   UNL     1     -12.520  13.718  70.470  1.00  0.00    -0.409 A  
HETATM   17  C   UNL     1     -12.721  12.698  71.414  1.00  0.00    -0.347 A  
BRANCH  15  18
HETATM   18  C   UNL     1     -11.681  14.593  68.246  1.00  0.00    -0.359 C  
BRANCH  18  19
HETATM   19  C   UNL     1     -10.660  14.247  67.170  1.00  0.00    -0.279 C  
BRANCH  19  20
HETATM   20  S   UNL     1     -11.400  14.112  65.559  1.00  0.00    -0.330 S  
HETATM   21  O   UNL     1     -10.921  15.209  64.743  1.00  0.00    -0.399 OA 
HETATM   22  O   UNL     1     -12.814  13.853  65.719  1.00  0.00    -0.501 OA 
BRANCH  20  23
HETATM   23  C   UNL     1     -10.640  12.620  64.944  1.00  0.00    -0.307 A  
HETATM   24  C   UNL     1      -9.960  11.783  65.835  1.00  0.00    -0.266 A  
HETATM   25  C   UNL     1      -9.330  10.639  65.350  1.00  0.00    -0.250 A  
HETATM   26  C   UNL     1      -9.386  10.333  63.989  1.00  0.00    -0.337 A  
HETATM   27  C   UNL     1     -10.080  11.164  63.107  1.00  0.00    -0.373 A  
HETATM   28  C   UNL     1     -10.715  12.312  63.583  1.00  0.00    -0.513 A  
ENDBRANCH  20  23
ENDBRANCH  19  20
ENDBRANCH  18  19
ENDBRANCH  15  18
ENDBRANCH   7   8
ENDBRANCH   6   7
TORSDOF 6
ENDMDL
MODEL       57
REMARK 921   NORMALIZED FREE ENERGY PREDICTED BY IDOCK:   -5.91 KCAL/MOL
REMARK 922        TOTAL FREE ENERGY PREDICTED BY IDOCK:   -9.55 KCAL/MOL
REMARK 923 INTER-LIGAND FREE ENERGY PREDICTED BY IDOCK:   -8.06 KCAL/MOL
REMARK 924 INTRA-LIGAND FREE ENERGY PREDICTED BY IDOCK:   -1.49 KCAL/MOL
REMARK 927      BINDING AFFINITY PREDICTED BY RF-SCORE:    0.00 PKD
ROOT
HETATM    1  C   UNL     1     -10.707  17.217  67.987  1.00  0.00    -0.372 C  
HETATM    2  N   UNL     1     -10.679  15.784  68.269  1.00  0.00    -0.270 NA 
HETATM    3  C   UNL     1     -11.600  15.449  69.362  1.00  0.00    -0.340 C  
HETATM    4  C   UNL     1     -11.937  13.995  69.119  1.00  0.00    -0.400 C  
HETATM    5  C   UNL     1     -12.047  13.921  67.610  1.00  0.00    -0.342 C  
HETATM    6  C   UNL     1     -11.045  14.962  67.091  1.00  0.00    -0.332 C  
ENDROOT
BRANCH   6   7
HETATM    7  C   UNL     1      -9.775  14.322  66.471  1.00  0.00    -0.304 C  
BRANCH   7   8
HETATM    8  C   UNL     1     -10.051  13.091  65.648  1.00  0.00    -0.276 A  
HETATM    9  C   UNL     1     -10.624  13.044  64.392  1.00  0.00    -0.409 A  
HETATM   10  N   UNL     1     -10.596  11.745  63.950  1.00  0.00    -0.350 NA 
HETATM   11  C   UNL     1      -9.992  10.939  64.887  1.00  0.00    -0.303 A  
HETATM   12  H   UNL     1     -10.968  11.424  63.056  1.00  0.00     0.000 HD 
HETATM   13  C   UNL     1      -9.711  11.745  65.985  1.00  0.00    -0.254 A  
HETATM   14  C   UNL     1      -9.119  11.154  67.115  1.00  0.00    -0.151 A  
HETATM   15  C   UNL     1      -8.721   9.810  67.104  1.00  0.00    -0.137 A  
HETATM   16  C   UNL     1      -8.990   9.043  65.961  1.00  0.00    -0.227 A  
HETATM   17  C   UNL     1      -9.657   9.582  64.849  1.00  0.00    -0.158 A  
BRANCH  15  18
HETATM   18  C   UNL     1      -7.899   9.230  68.238  1.00  0.00    -0.098 C  
BRANCH  18  19
HETATM   19  C   UNL     1      -8.175   9.862  69.597  1.00  0.00    -0.171 C  
BRANCH  19  20
HETATM   20  S   UNL     1      -8.658   8.658  70.813  1.00  0.00    -0.190 S  
HETATM   21  O   UNL     1      -7.883   8.888  72.016  1.00  0.00    -0.338 OA 
HETATM   22  O   UNL     1      -8.704   7.356  70.184  1.00  0.00    -0.141 OA 
BRANCH  20  23
HETATM   23  C   UNL     1     -10.335   9.155  71.157  1.00  0.00    -0.317 A  
HETATM   24  C   UNL     1     -11.032   8.535  72.200  1.00  0.00    -0.427 A  
HETATM   25  C   UNL     1     -12.356   8.893  72.443  1.00  0.00    -0.385 A  
HETATM   26  C   UNL     1     -12.975   9.865  71.655  1.00  0.00    -0.536 A  
HETATM   27  C   UNL     1     -12.269  10.492  70.625  1.00  0.00    -0.446 A  
HETATM   28  C   UNL     1     -10.942  10.141  70.373  1.00  0.00    -0.386 A  
ENDBRANCH  20  23
ENDBRANCH  19  20
ENDBRANCH  18  19
ENDBRANCH  15  18
ENDBRANCH   7   8
ENDBRANCH   6   7
TORSDOF 6
ENDMDL
MODEL       58
REMARK 921   NORMALIZED FREE ENERGY PREDICTED BY IDOCK:   -5.90 KCAL/MOL
REMARK 922        TOTAL FREE ENERGY PREDICTED BY IDOCK:   -9.54 KCAL/MOL
REMARK 923 INTER-LIGAND FREE ENERGY PREDICTED BY IDOCK:   -8.01 KCAL/MOL
REMARK 924 INTRA-LIGAND FREE ENERGY PREDICTED BY IDOCK:   -1.53 KCAL/MOL
REMARK 927      BINDING AFFINITY PREDICTED BY RF-SCORE:    0.00 PKD
ROOT
HETATM    1  C   UNL     1     -10.310   4.441  72.514  1.00  0.00    -0.188 C  
HETATM    2  N   UNL     1     -10.417   5.630  71.673  1.00  0.00    -0.222 NA 
HETATM    3  C   UNL     1     -10.462   5.262  70.253  1.00  0.00    -0.261 C  
HETATM    4  C   UNL     1     -11.180   6.422  69.600  1.00  0.00    -0.483 C  
HETATM    5  C   UNL     1     -12.248   6.772  70.615  1.00  0.00    -0.312 C  
HETATM    6  C   UNL     1     -11.622   6.439  71.976  1.00  0.00    -0.321 C  
ENDROOT
BRANCH   6   7
HETATM    7  C   UNL     1     -11.227   7.701  72.787  1.00  0.00    -0.431 C  
BRANCH   7   8
HETATM    8  C   UNL     1      -9.767   8.057  72.692  1.00  0.00    -0.332 A  
HETATM    9  C   UNL     1      -8.761   7.669  73.555  1.00  0.00    -0.215 A  
HETATM   10  N   UNL     1      -7.563   8.112  73.054  1.00  0.00    -0.138 NA 
HETATM   11  C   UNL     1      -7.762   8.768  71.862  1.00  0.00    -0.006 A  
HETATM   12  H   UNL     1      -6.656   7.975  73.501  1.00  0.00     0.000 HD 
HETATM   13  C   UNL     1      -9.137   8.810  71.654  1.00  0.00    -0.314 A  
HETATM   14  C   UNL     1      -9.622   9.467  70.509  1.00  0.00    -0.330 A  
HETATM   15  C   UNL     1      -8.744   9.978  69.543  1.00  0.00    -0.205 A  
HETATM   16  C   UNL     1      -7.364   9.880  69.774  1.00  0.00    -0.129 A  
HETATM   17  C   UNL     1      -6.850   9.306  70.948  1.00  0.00    -0.103 A  
BRANCH  15  18
HETATM   18  C   UNL     1      -9.262  10.498  68.216  1.00  0.00    -0.152 C  
BRANCH  18  19
HETATM   19  C   UNL     1      -9.590  11.986  68.213  1.00  0.00    -0.204 C  
BRANCH  19  20
HETATM   20  S   UNL     1     -11.301  12.296  67.844  1.00  0.00    -0.321 S  
HETATM   21  O   UNL     1     -11.867  11.097  67.260  1.00  0.00    -0.525 OA 
HETATM   22  O   UNL     1     -11.408  13.579  67.183  1.00  0.00    -0.298 OA 
BRANCH  20  23
HETATM   23  C   UNL     1     -11.990  12.469  69.479  1.00  0.00    -0.266 A  
HETATM   24  C   UNL     1     -12.263  11.321  70.230  1.00  0.00    -0.428 A  
HETATM   25  C   UNL     1     -12.840  11.452  71.492  1.00  0.00    -0.508 A  
HETATM   26  C   UNL     1     -13.135  12.719  71.999  1.00  0.00    -0.474 A  
HETATM   27  C   UNL     1     -12.846  13.862  71.251  1.00  0.00    -0.435 A  
HETATM   28  C   UNL     1     -12.267  13.742  69.986  1.00  0.00    -0.407 A  
ENDBRANCH  20  23
ENDBRANCH  19  20
ENDBRANCH  18  19
ENDBRANCH  15  18
ENDBRANCH   7   8
ENDBRANCH   6   7
TORSDOF 6
ENDMDL
MODEL       59
REMARK 921   NORMALIZED FREE ENERGY PREDICTED BY IDOCK:   -5.88 KCAL/MOL
REMARK 922        TOTAL FREE ENERGY PREDICTED BY IDOCK:   -9.51 KCAL/MOL
REMARK 923 INTER-LIGAND FREE ENERGY PREDICTED BY IDOCK:   -7.55 KCAL/MOL
REMARK 924 INTRA-LIGAND FREE ENERGY PREDICTED BY IDOCK:   -1.97 KCAL/MOL
REMARK 927      BINDING AFFINITY PREDICTED BY RF-SCORE:    0.00 PKD
ROOT
HETATM    1  C   UNL     1      -5.587  13.340  70.642  1.00  0.00    -0.180 C  
HETATM    2  N   UNL     1      -6.038  13.139  69.268  1.00  0.00    -0.091 NA 
HETATM    3  C   UNL     1      -6.513  11.765  69.069  1.00  0.00    -0.084 C  
HETATM    4  C   UNL     1      -7.478  11.878  67.910  1.00  0.00    -0.114 C  
HETATM    5  C   UNL     1      -8.184  13.188  68.186  1.00  0.00    -0.160 C  
HETATM    6  C   UNL     1      -7.133  14.063  68.884  1.00  0.00    -0.111 C  
ENDROOT
BRANCH   6   7
HETATM    7  C   UNL     1      -6.584  15.193  67.975  1.00  0.00    -0.156 C  
BRANCH   7   8
HETATM    8  C   UNL     1      -7.421  16.445  67.984  1.00  0.00    -0.151 A  
HETATM    9  C   UNL     1      -7.145  17.622  68.652  1.00  0.00    -0.245 A  
HETATM   10  N   UNL     1      -8.098  18.549  68.312  1.00  0.00    -0.294 NA 
HETATM   11  C   UNL     1      -8.986  18.007  67.413  1.00  0.00    -0.246 A  
HETATM   12  H   UNL     1      -8.142  19.502  68.674  1.00  0.00     0.000 HD 
HETATM   13  C   UNL     1      -8.626  16.673  67.251  1.00  0.00    -0.208 A  
HETATM   14  C   UNL     1      -9.404  15.867  66.400  1.00  0.00    -0.329 A  
HETATM   15  C   UNL     1     -10.454  16.413  65.649  1.00  0.00    -0.364 A  
HETATM   16  C   UNL     1     -10.759  17.772  65.814  1.00  0.00    -0.098 A  
HETATM   17  C   UNL     1     -10.056  18.583  66.720  1.00  0.00    -0.406 A  
BRANCH  15  18
HETATM   18  C   UNL     1     -11.156  15.596  64.581  1.00  0.00    -0.387 C  
BRANCH  18  19
HETATM   19  C   UNL     1     -12.281  14.715  65.109  1.00  0.00    -0.282 C  
BRANCH  19  20
HETATM   20  S   UNL     1     -11.837  12.992  65.121  1.00  0.00    -0.396 S  
HETATM   21  O   UNL     1     -10.490  12.865  64.602  1.00  0.00    -0.327 OA 
HETATM   22  O   UNL     1     -12.933  12.227  64.569  1.00  0.00    -0.738 OA 
BRANCH  20  23
HETATM   23  C   UNL     1     -11.767  12.658  66.871  1.00  0.00    -0.383 A  
HETATM   24  C   UNL     1     -11.950  13.709  67.776  1.00  0.00    -0.387 A  
HETATM   25  C   UNL     1     -11.855  13.457  69.143  1.00  0.00    -0.383 A  
HETATM   26  C   UNL     1     -11.585  12.165  69.600  1.00  0.00    -0.361 A  
HETATM   27  C   UNL     1     -11.419  11.117  68.693  1.00  0.00    -0.363 A  
HETATM   28  C   UNL     1     -11.513  11.358  67.321  1.00  0.00    -0.301 A  
ENDBRANCH  20  23
ENDBRANCH  19  20
ENDBRANCH  18  19
ENDBRANCH  15  18
ENDBRANCH   7   8
ENDBRANCH   6   7
TORSDOF 6
ENDMDL
MODEL       60
REMARK 921   NORMALIZED FREE ENERGY PREDICTED BY IDOCK:   -5.87 KCAL/MOL
REMARK 922        TOTAL FREE ENERGY PREDICTED BY IDOCK:   -9.51 KCAL/MOL
REMARK 923 INTER-LIGAND FREE ENERGY PREDICTED BY IDOCK:   -8.65 KCAL/MOL
REMARK 924 INTRA-LIGAND FREE ENERGY PREDICTED BY IDOCK:   -0.87 KCAL/MOL
REMARK 927      BINDING AFFINITY PREDICTED BY RF-SCORE:    0.00 PKD
ROOT
HETATM    1  C   UNL     1      -8.756   7.221  65.842  1.00  0.00    -0.131 C  
HETATM    2  N   UNL     1      -9.329   8.549  66.038  1.00  0.00    -0.215 NA 
HETATM    3  C   UNL     1     -10.463   8.497  66.969  1.00  0.00    -0.292 C  
HETATM    4  C   UNL     1     -10.526   9.894  67.544  1.00  0.00    -0.310 C  
HETATM    5  C   UNL     1      -9.066  10.257  67.709  1.00  0.00    -0.138 C  
HETATM    6  C   UNL     1      -8.346   9.525  66.567  1.00  0.00    -0.119 C  
ENDROOT
BRANCH   6   7
HETATM    7  C   UNL     1      -7.878  10.478  65.437  1.00  0.00    -0.119 C  
BRANCH   7   8
HETATM    8  C   UNL     1      -8.973  10.878  64.483  1.00  0.00    -0.130 A  
HETATM    9  C   UNL     1      -9.298  10.265  63.289  1.00  0.00    -0.306 A  
HETATM   10  N   UNL     1     -10.421  10.869  62.781  1.00  0.00    -0.781 NA 
HETATM   11  C   UNL     1     -10.853  11.857  63.633  1.00  0.00    -0.444 A  
HETATM   12  H   UNL     1     -10.869  10.620  61.899  1.00  0.00     0.000 HD 
HETATM   13  C   UNL     1      -9.922  11.930  64.665  1.00  0.00    -0.257 A  
HETATM   14  C   UNL     1     -10.108  12.899  65.667  1.00  0.00    -0.282 A  
HETATM   15  C   UNL     1     -11.256  13.704  65.691  1.00  0.00    -0.305 A  
HETATM   16  C   UNL     1     -12.188  13.571  64.652  1.00  0.00    -0.450 A  
HETATM   17  C   UNL     1     -11.989  12.672  63.591  1.00  0.00    -0.615 A  
BRANCH  15  18
HETATM   18  C   UNL     1     -11.557  14.598  66.879  1.00  0.00    -0.374 C  
BRANCH  18  19
HETATM   19  C   UNL     1     -10.321  15.195  67.540  1.00  0.00    -0.242 C  
BRANCH  19  20
HETATM   20  S   UNL     1     -10.738  16.307  68.864  1.00  0.00    -0.323 S  
HETATM   21  O   UNL     1      -9.756  16.150  69.918  1.00  0.00    -0.102 OA 
HETATM   22  O   UNL     1     -12.155  16.199  69.131  1.00  0.00    -0.231 OA 
BRANCH  20  23
HETATM   23  C   UNL     1     -10.448  17.891  68.099  1.00  0.00    -0.372 A  
HETATM   24  C   UNL     1     -10.483  17.994  66.704  1.00  0.00    -0.332 A  
HETATM   25  C   UNL     1     -10.216  19.222  66.103  1.00  0.00    -0.549 A  
HETATM   26  C   UNL     1      -9.922  20.337  66.889  1.00  0.00    -0.592 A  
HETATM   27  C   UNL     1      -9.903  20.233  68.281  1.00  0.00    -0.345 A  
HETATM   28  C   UNL     1     -10.171  19.007  68.894  1.00  0.00    -0.289 A  
ENDBRANCH  20  23
ENDBRANCH  19  20
ENDBRANCH  18  19
ENDBRANCH  15  18
ENDBRANCH   7   8
ENDBRANCH   6   7
TORSDOF 6
ENDMDL
MODEL       61
REMARK 921   NORMALIZED FREE ENERGY PREDICTED BY IDOCK:   -5.86 KCAL/MOL
REMARK 922        TOTAL FREE ENERGY PREDICTED BY IDOCK:   -9.50 KCAL/MOL
REMARK 923 INTER-LIGAND FREE ENERGY PREDICTED BY IDOCK:   -8.47 KCAL/MOL
REMARK 924 INTRA-LIGAND FREE ENERGY PREDICTED BY IDOCK:   -1.02 KCAL/MOL
REMARK 927      BINDING AFFINITY PREDICTED BY RF-SCORE:    0.00 PKD
ROOT
HETATM    1  C   UNL     1      -9.911  11.024  63.357  1.00  0.00    -0.363 C  
HETATM    2  N   UNL     1     -10.164  10.670  64.751  1.00  0.00    -0.341 NA 
HETATM    3  C   UNL     1      -9.160   9.716  65.238  1.00  0.00    -0.218 C  
HETATM    4  C   UNL     1      -9.146   9.935  66.734  1.00  0.00    -0.164 C  
HETATM    5  C   UNL     1      -9.294  11.437  66.856  1.00  0.00    -0.191 C  
HETATM    6  C   UNL     1     -10.152  11.848  65.651  1.00  0.00    -0.243 C  
ENDROOT
BRANCH   6   7
HETATM    7  C   UNL     1     -11.602  12.234  66.044  1.00  0.00    -0.451 C  
BRANCH   7   8
HETATM    8  C   UNL     1     -11.686  13.353  67.049  1.00  0.00    -0.426 A  
HETATM    9  C   UNL     1     -11.647  14.708  66.786  1.00  0.00    -0.360 A  
HETATM   10  N   UNL     1     -11.864  15.385  67.961  1.00  0.00    -0.413 NA 
HETATM   11  C   UNL     1     -12.066  14.495  68.990  1.00  0.00    -0.251 A  
HETATM   12  H   UNL     1     -11.873  16.400  68.056  1.00  0.00     0.000 HD 
HETATM   13  C   UNL     1     -11.886  13.222  68.457  1.00  0.00    -0.384 A  
HETATM   14  C   UNL     1     -12.001  12.114  69.316  1.00  0.00    -0.318 A  
HETATM   15  C   UNL     1     -12.390  12.274  70.654  1.00  0.00    -0.375 A  
HETATM   16  C   UNL     1     -12.598  13.573  71.139  1.00  0.00    -0.438 A  
HETATM   17  C   UNL     1     -12.409  14.705  70.329  1.00  0.00    -0.406 A  
BRANCH  15  18
HETATM   18  C   UNL     1     -12.714  11.073  71.520  1.00  0.00    -0.521 C  
BRANCH  18  19
HETATM   19  C   UNL     1     -12.607   9.735  70.799  1.00  0.00    -0.196 C  
BRANCH  19  20
HETATM   20  S   UNL     1     -12.904   8.359  71.886  1.00  0.00    -0.365 S  
HETATM   21  O   UNL     1     -13.591   7.326  71.137  1.00  0.00    -0.318 OA 
HETATM   22  O   UNL     1     -13.431   8.861  73.136  1.00  0.00    -0.228 OA 
BRANCH  20  23
HETATM   23  C   UNL     1     -11.244   7.783  72.188  1.00  0.00    -0.297 A  
HETATM   24  C   UNL     1     -10.163   8.600  71.843  1.00  0.00    -0.404 A  
HETATM   25  C   UNL     1      -8.865   8.134  72.040  1.00  0.00    -0.233 A  
HETATM   26  C   UNL     1      -8.651   6.866  72.583  1.00  0.00    -0.131 A  
HETATM   27  C   UNL     1      -9.734   6.061  72.941  1.00  0.00    -0.162 A  
HETATM   28  C   UNL     1     -11.039   6.518  72.748  1.00  0.00    -0.279 A  
ENDBRANCH  20  23
ENDBRANCH  19  20
ENDBRANCH  18  19
ENDBRANCH  15  18
ENDBRANCH   7   8
ENDBRANCH   6   7
TORSDOF 6
ENDMDL
MODEL       62
REMARK 921   NORMALIZED FREE ENERGY PREDICTED BY IDOCK:   -5.84 KCAL/MOL
REMARK 922        TOTAL FREE ENERGY PREDICTED BY IDOCK:   -9.46 KCAL/MOL
REMARK 923 INTER-LIGAND FREE ENERGY PREDICTED BY IDOCK:   -8.44 KCAL/MOL
REMARK 924 INTRA-LIGAND FREE ENERGY PREDICTED BY IDOCK:   -1.02 KCAL/MOL
REMARK 927      BINDING AFFINITY PREDICTED BY RF-SCORE:    0.00 PKD
ROOT
HETATM    1  C   UNL     1      -9.913   4.547  72.380  1.00  0.00    -0.171 C  
HETATM    2  N   UNL     1     -10.215   5.730  71.579  1.00  0.00    -0.196 NA 
HETATM    3  C   UNL     1     -10.493   5.361  70.186  1.00  0.00    -0.290 C  
HETATM    4  C   UNL     1     -11.362   6.489  69.677  1.00  0.00    -0.443 C  
HETATM    5  C   UNL     1     -12.249   6.794  70.865  1.00  0.00    -0.386 C  
HETATM    6  C   UNL     1     -11.381   6.487  72.094  1.00  0.00    -0.282 C  
ENDROOT
BRANCH   6   7
HETATM    7  C   UNL     1     -10.904   7.765  72.832  1.00  0.00    -0.453 C  
BRANCH   7   8
HETATM    8  C   UNL     1      -9.658   8.378  72.250  1.00  0.00    -0.374 A  
HETATM    9  C   UNL     1      -8.358   8.170  72.667  1.00  0.00    -0.177 A  
HETATM   10  N   UNL     1      -7.514   8.827  71.806  1.00  0.00    -0.268 NA 
HETATM   11  C   UNL     1      -8.238   9.446  70.815  1.00  0.00    -0.127 A  
HETATM   12  H   UNL     1      -6.497   8.851  71.889  1.00  0.00     0.000 HD 
HETATM   13  C   UNL     1      -9.581   9.241  71.114  1.00  0.00    -0.305 A  
HETATM   14  C   UNL     1     -10.550   9.810  70.268  1.00  0.00    -0.348 A  
HETATM   15  C   UNL     1     -10.180  10.479  69.092  1.00  0.00    -0.241 A  
HETATM   16  C   UNL     1      -8.815  10.630  68.810  1.00  0.00    -0.161 A  
HETATM   17  C   UNL     1      -7.823  10.147  69.678  1.00  0.00    -0.181 A  
BRANCH  15  18
HETATM   18  C   UNL     1     -11.224  10.909  68.079  1.00  0.00    -0.378 C  
BRANCH  18  19
HETATM   19  C   UNL     1     -11.869  12.256  68.380  1.00  0.00    -0.304 C  
BRANCH  19  20
HETATM   20  S   UNL     1     -11.206  13.560  67.368  1.00  0.00    -0.307 S  
HETATM   21  O   UNL     1      -9.810  13.738  67.711  1.00  0.00    -0.223 OA 
HETATM   22  O   UNL     1     -12.132  14.671  67.379  1.00  0.00    -0.352 OA 
BRANCH  20  23
HETATM   23  C   UNL     1     -11.267  12.817  65.749  1.00  0.00    -0.307 A  
HETATM   24  C   UNL     1     -12.475  12.811  65.044  1.00  0.00    -0.572 A  
HETATM   25  C   UNL     1     -12.535  12.194  63.796  1.00  0.00    -0.620 A  
HETATM   26  C   UNL     1     -11.396  11.594  63.257  1.00  0.00    -0.288 A  
HETATM   27  C   UNL     1     -10.188  11.616  63.958  1.00  0.00    -0.391 A  
HETATM   28  C   UNL     1     -10.117  12.233  65.208  1.00  0.00    -0.295 A  
ENDBRANCH  20  23
ENDBRANCH  19  20
ENDBRANCH  18  19
ENDBRANCH  15  18
ENDBRANCH   7   8
ENDBRANCH   6   7
TORSDOF 6
ENDMDL
MODEL       63
REMARK 921   NORMALIZED FREE ENERGY PREDICTED BY IDOCK:   -5.83 KCAL/MOL
REMARK 922        TOTAL FREE ENERGY PREDICTED BY IDOCK:   -9.45 KCAL/MOL
REMARK 923 INTER-LIGAND FREE ENERGY PREDICTED BY IDOCK:   -7.92 KCAL/MOL
REMARK 924 INTRA-LIGAND FREE ENERGY PREDICTED BY IDOCK:   -1.53 KCAL/MOL
REMARK 927      BINDING AFFINITY PREDICTED BY RF-SCORE:    0.00 PKD
ROOT
HETATM    1  C   UNL     1      -8.893   8.592  71.945  1.00  0.00    -0.216 C  
HETATM    2  N   UNL     1      -9.346   7.624  70.950  1.00  0.00    -0.157 NA 
HETATM    3  C   UNL     1      -8.338   6.578  70.741  1.00  0.00    -0.130 C  
HETATM    4  C   UNL     1      -9.138   5.396  70.241  1.00  0.00    -0.166 C  
HETATM    5  C   UNL     1     -10.401   5.467  71.072  1.00  0.00    -0.307 C  
HETATM    6  C   UNL     1     -10.619   6.964  71.331  1.00  0.00    -0.219 C  
ENDROOT
BRANCH   6   7
HETATM    7  C   UNL     1     -11.794   7.556  70.510  1.00  0.00    -0.144 C  
BRANCH   7   8
HETATM    8  C   UNL     1     -12.540   8.657  71.216  1.00  0.00    -0.266 A  
HETATM    9  C   UNL     1     -13.331   8.533  72.341  1.00  0.00    -0.282 A  
HETATM   10  N   UNL     1     -13.737   9.786  72.728  1.00  0.00    -0.583 NA 
HETATM   11  C   UNL     1     -13.207  10.736  71.886  1.00  0.00    -0.419 A  
HETATM   12  H   UNL     1     -14.344   9.984  73.524  1.00  0.00     0.000 HD 
HETATM   13  C   UNL     1     -12.518  10.048  70.893  1.00  0.00    -0.431 A  
HETATM   14  C   UNL     1     -11.903  10.790  69.868  1.00  0.00    -0.413 A  
HETATM   15  C   UNL     1     -11.891  12.192  69.898  1.00  0.00    -0.392 A  
HETATM   16  C   UNL     1     -12.566  12.844  70.939  1.00  0.00    -0.355 A  
HETATM   17  C   UNL     1     -13.262  12.133  71.930  1.00  0.00    -0.474 A  
BRANCH  15  18
HETATM   18  C   UNL     1     -11.055  12.986  68.912  1.00  0.00    -0.307 C  
BRANCH  18  19
HETATM   19  C   UNL     1     -10.013  12.159  68.170  1.00  0.00    -0.201 C  
BRANCH  19  20
HETATM   20  S   UNL     1     -10.561  11.689  66.544  1.00  0.00    -0.263 S  
HETATM   21  O   UNL     1      -9.827  12.471  65.571  1.00  0.00    -0.250 OA 
HETATM   22  O   UNL     1     -12.006  11.642  66.538  1.00  0.00    -0.474 OA 
BRANCH  20  23
HETATM   23  C   UNL     1      -9.962  10.013  66.441  1.00  0.00    -0.237 A  
HETATM   24  C   UNL     1      -8.918   9.713  65.559  1.00  0.00    -0.223 A  
HETATM   25  C   UNL     1      -8.476   8.396  65.446  1.00  0.00    -0.193 A  
HETATM   26  C   UNL     1      -9.069   7.391  66.213  1.00  0.00    -0.195 A  
HETATM   27  C   UNL     1     -10.100   7.699  67.103  1.00  0.00    -0.323 A  
HETATM   28  C   UNL     1     -10.550   9.015  67.224  1.00  0.00    -0.301 A  
ENDBRANCH  20  23
ENDBRANCH  19  20
ENDBRANCH  18  19
ENDBRANCH  15  18
ENDBRANCH   7   8
ENDBRANCH   6   7
TORSDOF 6
ENDMDL
MODEL       64
REMARK 921   NORMALIZED FREE ENERGY PREDICTED BY IDOCK:   -5.81 KCAL/MOL
REMARK 922        TOTAL FREE ENERGY PREDICTED BY IDOCK:   -9.42 KCAL/MOL
REMARK 923 INTER-LIGAND FREE ENERGY PREDICTED BY IDOCK:   -8.64 KCAL/MOL
REMARK 924 INTRA-LIGAND FREE ENERGY PREDICTED BY IDOCK:   -0.79 KCAL/MOL
REMARK 927      BINDING AFFINITY PREDICTED BY RF-SCORE:    0.00 PKD
ROOT
HETATM    1  C   UNL     1      -8.024   7.949  64.107  1.00  0.00    -0.125 C  
HETATM    2  N   UNL     1      -8.171   9.388  63.908  1.00  0.00    -0.153 NA 
HETATM    3  C   UNL     1      -8.243   9.714  62.479  1.00  0.00    -0.139 C  
HETATM    4  C   UNL     1      -8.995  11.026  62.443  1.00  0.00    -0.345 C  
HETATM    5  C   UNL     1     -10.045  10.842  63.518  1.00  0.00    -0.406 C  
HETATM    6  C   UNL     1      -9.382   9.936  64.565  1.00  0.00    -0.275 C  
ENDROOT
BRANCH   6   7
HETATM    7  C   UNL     1      -8.990  10.694  65.861  1.00  0.00    -0.192 C  
BRANCH   7   8
HETATM    8  C   UNL     1     -10.160  11.288  66.599  1.00  0.00    -0.251 A  
HETATM    9  C   UNL     1     -11.116  10.605  67.325  1.00  0.00    -0.243 A  
HETATM   10  N   UNL     1     -11.941  11.521  67.929  1.00  0.00    -0.641 NA 
HETATM   11  C   UNL     1     -11.529  12.799  67.629  1.00  0.00    -0.334 A  
HETATM   12  H   UNL     1     -12.743  11.288  68.515  1.00  0.00     0.000 HD 
HETATM   13  C   UNL     1     -10.465  12.677  66.741  1.00  0.00    -0.254 A  
HETATM   14  C   UNL     1      -9.873  13.850  66.240  1.00  0.00    -0.318 A  
HETATM   15  C   UNL     1     -10.271  15.114  66.700  1.00  0.00    -0.270 A  
HETATM   16  C   UNL     1     -11.323  15.188  67.624  1.00  0.00    -0.327 A  
HETATM   17  C   UNL     1     -11.991  14.040  68.079  1.00  0.00    -0.386 A  
BRANCH  15  18
HETATM   18  C   UNL     1      -9.498  16.361  66.318  1.00  0.00    -0.347 C  
BRANCH  18  19
HETATM   19  C   UNL     1      -9.067  17.216  67.504  1.00  0.00    -0.225 C  
BRANCH  19  20
HETATM   20  S   UNL     1      -9.433  18.939  67.258  1.00  0.00    -0.307 S  
HETATM   21  O   UNL     1     -10.461  19.327  68.202  1.00  0.00    -0.399 OA 
HETATM   22  O   UNL     1      -9.581  19.184  65.840  1.00  0.00    -0.445 OA 
BRANCH  20  23
HETATM   23  C   UNL     1      -7.911  19.702  67.786  1.00  0.00    -0.290 A  
HETATM   24  C   UNL     1      -7.369  19.360  69.029  1.00  0.00    -0.395 A  
HETATM   25  C   UNL     1      -6.202  19.986  69.461  1.00  0.00    -0.376 A  
HETATM   26  C   UNL     1      -5.579  20.940  68.655  1.00  0.00    -0.389 A  
HETATM   27  C   UNL     1      -6.115  21.266  67.407  1.00  0.00    -0.434 A  
HETATM   28  C   UNL     1      -7.284  20.645  66.964  1.00  0.00    -0.372 A  
ENDBRANCH  20  23
ENDBRANCH  19  20
ENDBRANCH  18  19
ENDBRANCH  15  18
ENDBRANCH   7   8
ENDBRANCH   6   7
TORSDOF 6
ENDMDL
MODEL       65
REMARK 921   NORMALIZED FREE ENERGY PREDICTED BY IDOCK:   -5.80 KCAL/MOL
REMARK 922        TOTAL FREE ENERGY PREDICTED BY IDOCK:   -9.41 KCAL/MOL
REMARK 923 INTER-LIGAND FREE ENERGY PREDICTED BY IDOCK:   -7.47 KCAL/MOL
REMARK 924 INTRA-LIGAND FREE ENERGY PREDICTED BY IDOCK:   -1.94 KCAL/MOL
REMARK 927      BINDING AFFINITY PREDICTED BY RF-SCORE:    0.00 PKD
ROOT
HETATM    1  C   UNL     1      -7.390   7.455  67.850  1.00  0.00    -0.093 C  
HETATM    2  N   UNL     1      -7.842   8.559  67.009  1.00  0.00    -0.096 NA 
HETATM    3  C   UNL     1      -8.058   8.110  65.628  1.00  0.00    -0.119 C  
HETATM    4  C   UNL     1      -9.067   9.093  65.079  1.00  0.00    -0.215 C  
HETATM    5  C   UNL     1      -9.995   9.316  66.253  1.00  0.00    -0.357 C  
HETATM    6  C   UNL     1      -9.103   9.170  67.494  1.00  0.00    -0.124 C  
ENDROOT
BRANCH   6   7
HETATM    7  C   UNL     1      -8.807  10.525  68.189  1.00  0.00    -0.134 C  
BRANCH   7   8
HETATM    8  C   UNL     1     -10.018  11.171  68.810  1.00  0.00    -0.207 A  
HETATM    9  C   UNL     1     -10.668  12.308  68.371  1.00  0.00    -0.234 A  
HETATM   10  N   UNL     1     -11.784  12.497  69.147  1.00  0.00    -0.309 NA 
HETATM   11  C   UNL     1     -11.891  11.489  70.077  1.00  0.00    -0.355 A  
HETATM   12  H   UNL     1     -12.440  13.272  69.048  1.00  0.00     0.000 HD 
HETATM   13  C   UNL     1     -10.760  10.692  69.933  1.00  0.00    -0.260 A  
HETATM   14  C   UNL     1     -10.599   9.596  70.799  1.00  0.00    -0.392 A  
HETATM   15  C   UNL     1     -11.599   9.247  71.718  1.00  0.00    -0.458 A  
HETATM   16  C   UNL     1     -12.740  10.057  71.803  1.00  0.00    -0.526 A  
HETATM   17  C   UNL     1     -12.893  11.207  71.011  1.00  0.00    -0.424 A  
BRANCH  15  18
HETATM   18  C   UNL     1     -11.519   7.952  72.503  1.00  0.00    -0.455 C  
BRANCH  18  19
HETATM   19  C   UNL     1     -11.781   6.701  71.673  1.00  0.00    -0.316 C  
BRANCH  19  20
HETATM   20  S   UNL     1     -10.313   5.721  71.453  1.00  0.00    -0.231 S  
HETATM   21  O   UNL     1     -10.532   4.427  72.066  1.00  0.00    -0.155 OA 
HETATM   22  O   UNL     1      -9.161   6.529  71.788  1.00  0.00    -0.150 OA 
BRANCH  20  23
HETATM   23  C   UNL     1     -10.311   5.479  69.686  1.00  0.00    -0.289 A  
HETATM   24  C   UNL     1      -9.527   4.460  69.136  1.00  0.00    -0.240 A  
HETATM   25  C   UNL     1      -9.492   4.296  67.753  1.00  0.00    -0.215 A  
HETATM   26  C   UNL     1     -10.239   5.140  66.929  1.00  0.00    -0.279 A  
HETATM   27  C   UNL     1     -11.033   6.146  67.485  1.00  0.00    -0.404 A  
HETATM   28  C   UNL     1     -11.076   6.318  68.869  1.00  0.00    -0.434 A  
ENDBRANCH  20  23
ENDBRANCH  19  20
ENDBRANCH  18  19
ENDBRANCH  15  18
ENDBRANCH   7   8
ENDBRANCH   6   7
TORSDOF 6
ENDMDL
MODEL       66
REMARK 921   NORMALIZED FREE ENERGY PREDICTED BY IDOCK:   -5.78 KCAL/MOL
REMARK 922        TOTAL FREE ENERGY PREDICTED BY IDOCK:   -9.39 KCAL/MOL
REMARK 923 INTER-LIGAND FREE ENERGY PREDICTED BY IDOCK:   -8.69 KCAL/MOL
REMARK 924 INTRA-LIGAND FREE ENERGY PREDICTED BY IDOCK:   -0.69 KCAL/MOL
REMARK 927      BINDING AFFINITY PREDICTED BY RF-SCORE:    0.00 PKD
ROOT
HETATM    1  C   UNL     1     -12.493  14.576  64.787  1.00  0.00    -0.319 C  
HETATM    2  N   UNL     1     -12.063  13.182  64.730  1.00  0.00    -0.386 NA 
HETATM    3  C   UNL     1     -11.673  12.810  63.364  1.00  0.00    -0.488 C  
HETATM    4  C   UNL     1     -10.709  11.662  63.561  1.00  0.00    -0.495 C  
HETATM    5  C   UNL     1      -9.924  12.087  64.784  1.00  0.00    -0.241 C  
HETATM    6  C   UNL     1     -10.916  12.900  65.627  1.00  0.00    -0.271 C  
ENDROOT
BRANCH   6   7
HETATM    7  C   UNL     1     -11.400  12.142  66.890  1.00  0.00    -0.402 C  
BRANCH   7   8
HETATM    8  C   UNL     1     -11.597  13.025  68.095  1.00  0.00    -0.379 A  
HETATM    9  C   UNL     1     -11.461  14.399  68.147  1.00  0.00    -0.310 A  
HETATM   10  N   UNL     1     -11.833  14.825  69.398  1.00  0.00    -0.309 NA 
HETATM   11  C   UNL     1     -12.233  13.755  70.163  1.00  0.00    -0.356 A  
HETATM   12  H   UNL     1     -11.816  15.795  69.713  1.00  0.00     0.000 HD 
HETATM   13  C   UNL     1     -12.023  12.614  69.395  1.00  0.00    -0.318 A  
HETATM   14  C   UNL     1     -12.319  11.361  69.961  1.00  0.00    -0.311 A  
HETATM   15  C   UNL     1     -12.909  11.263  71.229  1.00  0.00    -0.491 A  
HETATM   16  C   UNL     1     -13.138  12.441  71.954  1.00  0.00    -0.471 A  
HETATM   17  C   UNL     1     -12.776  13.701  71.451  1.00  0.00    -0.437 A  
BRANCH  15  18
HETATM   18  C   UNL     1     -13.417   9.932  71.752  1.00  0.00    -0.444 C  
BRANCH  18  19
HETATM   19  C   UNL     1     -12.398   9.155  72.576  1.00  0.00    -0.146 C  
BRANCH  19  20
HETATM   20  S   UNL     1     -11.799   7.715  71.721  1.00  0.00    -0.303 S  
HETATM   21  O   UNL     1     -11.406   8.109  70.383  1.00  0.00    -0.259 OA 
HETATM   22  O   UNL     1     -12.723   6.625  71.945  1.00  0.00    -0.345 OA 
BRANCH  20  23
HETATM   23  C   UNL     1     -10.308   7.358  72.631  1.00  0.00    -0.244 A  
HETATM   24  C   UNL     1      -9.161   8.122  72.390  1.00  0.00    -0.281 A  
HETATM   25  C   UNL     1      -7.983   7.817  73.070  1.00  0.00    -0.167 A  
HETATM   26  C   UNL     1      -7.956   6.764  73.986  1.00  0.00    -0.119 A  
HETATM   27  C   UNL     1      -9.108   6.016  74.234  1.00  0.00    -0.132 A  
HETATM   28  C   UNL     1     -10.293   6.313  73.559  1.00  0.00    -0.269 A  
ENDBRANCH  20  23
ENDBRANCH  19  20
ENDBRANCH  18  19
ENDBRANCH  15  18
ENDBRANCH   7   8
ENDBRANCH   6   7
TORSDOF 6
ENDMDL
MODEL       67
REMARK 921   NORMALIZED FREE ENERGY PREDICTED BY IDOCK:   -5.76 KCAL/MOL
REMARK 922        TOTAL FREE ENERGY PREDICTED BY IDOCK:   -9.36 KCAL/MOL
REMARK 923 INTER-LIGAND FREE ENERGY PREDICTED BY IDOCK:   -7.41 KCAL/MOL
REMARK 924 INTRA-LIGAND FREE ENERGY PREDICTED BY IDOCK:   -1.95 KCAL/MOL
REMARK 927      BINDING AFFINITY PREDICTED BY RF-SCORE:    0.00 PKD
ROOT
HETATM    1  C   UNL     1     -10.513  19.769  66.372  1.00  0.00    -0.507 C  
HETATM    2  N   UNL     1      -9.967  18.628  67.102  1.00  0.00    -0.316 NA 
HETATM    3  C   UNL     1     -10.248  18.742  68.538  1.00  0.00    -0.344 C  
HETATM    4  C   UNL     1     -10.221  17.312  69.029  1.00  0.00    -0.318 C  
HETATM    5  C   UNL     1     -10.885  16.555  67.899  1.00  0.00    -0.326 C  
HETATM    6  C   UNL     1     -10.511  17.332  66.630  1.00  0.00    -0.257 C  
ENDROOT
BRANCH   6   7
HETATM    7  C   UNL     1      -9.459  16.598  65.757  1.00  0.00    -0.104 C  
BRANCH   7   8
HETATM    8  C   UNL     1      -8.172  16.293  66.478  1.00  0.00    -0.344 A  
HETATM    9  C   UNL     1      -7.179  17.191  66.818  1.00  0.00    -0.225 A  
HETATM   10  N   UNL     1      -6.231  16.531  67.559  1.00  0.00    -0.140 NA 
HETATM   11  C   UNL     1      -6.596  15.217  67.732  1.00  0.00    -0.165 A  
HETATM   12  H   UNL     1      -5.380  16.955  67.929  1.00  0.00     0.000 HD 
HETATM   13  C   UNL     1      -7.766  15.028  67.004  1.00  0.00    -0.120 A  
HETATM   14  C   UNL     1      -8.340  13.745  66.979  1.00  0.00    -0.107 A  
HETATM   15  C   UNL     1      -7.811  12.701  67.751  1.00  0.00    -0.154 A  
HETATM   16  C   UNL     1      -6.652  12.945  68.501  1.00  0.00    -0.087 A  
HETATM   17  C   UNL     1      -6.006  14.192  68.479  1.00  0.00    -0.092 A  
BRANCH  15  18
HETATM   18  C   UNL     1      -8.546  11.381  67.887  1.00  0.00    -0.140 C  
BRANCH  18  19
HETATM   19  C   UNL     1      -9.805  11.453  68.742  1.00  0.00    -0.164 C  
BRANCH  19  20
HETATM   20  S   UNL     1     -11.227  10.792  67.902  1.00  0.00    -0.298 S  
HETATM   21  O   UNL     1     -12.387  10.986  68.747  1.00  0.00    -0.533 OA 
HETATM   22  O   UNL     1     -10.888   9.489  67.373  1.00  0.00    -0.269 OA 
BRANCH  20  23
HETATM   23  C   UNL     1     -11.377  11.915  66.525  1.00  0.00    -0.341 A  
HETATM   24  C   UNL     1     -11.999  13.153  66.717  1.00  0.00    -0.434 A  
HETATM   25  C   UNL     1     -12.155  14.014  65.633  1.00  0.00    -0.432 A  
HETATM   26  C   UNL     1     -11.687  13.643  64.372  1.00  0.00    -0.444 A  
HETATM   27  C   UNL     1     -11.053  12.413  64.189  1.00  0.00    -0.425 A  
HETATM   28  C   UNL     1     -10.891  11.542  65.268  1.00  0.00    -0.319 A  
ENDBRANCH  20  23
ENDBRANCH  19  20
ENDBRANCH  18  19
ENDBRANCH  15  18
ENDBRANCH   7   8
ENDBRANCH   6   7
TORSDOF 6
ENDMDL
MODEL       68
REMARK 921   NORMALIZED FREE ENERGY PREDICTED BY IDOCK:   -5.76 KCAL/MOL
REMARK 922        TOTAL FREE ENERGY PREDICTED BY IDOCK:   -9.35 KCAL/MOL
REMARK 923 INTER-LIGAND FREE ENERGY PREDICTED BY IDOCK:   -8.47 KCAL/MOL
REMARK 924 INTRA-LIGAND FREE ENERGY PREDICTED BY IDOCK:   -0.88 KCAL/MOL
REMARK 927      BINDING AFFINITY PREDICTED BY RF-SCORE:    0.00 PKD
ROOT
HETATM    1  C   UNL     1      -9.644  20.232  66.218  1.00  0.00    -0.306 C  
HETATM    2  N   UNL     1      -8.318  19.715  66.546  1.00  0.00    -0.316 NA 
HETATM    3  C   UNL     1      -7.366  19.994  65.465  1.00  0.00    -0.247 C  
HETATM    4  C   UNL     1      -6.021  20.004  66.157  1.00  0.00    -0.189 C  
HETATM    5  C   UNL     1      -6.325  20.687  67.474  1.00  0.00    -0.322 C  
HETATM    6  C   UNL     1      -7.772  20.292  67.799  1.00  0.00    -0.262 C  
ENDROOT
BRANCH   6   7
HETATM    7  C   UNL     1      -7.874  19.260  68.951  1.00  0.00    -0.367 C  
BRANCH   7   8
HETATM    8  C   UNL     1      -7.263  17.922  68.630  1.00  0.00    -0.272 A  
HETATM    9  C   UNL     1      -6.015  17.467  69.009  1.00  0.00    -0.197 A  
HETATM   10  N   UNL     1      -5.887  16.161  68.607  1.00  0.00    -0.104 NA 
HETATM   11  C   UNL     1      -7.041  15.741  67.988  1.00  0.00    -0.123 A  
HETATM   12  H   UNL     1      -5.057  15.585  68.748  1.00  0.00     0.000 HD 
HETATM   13  C   UNL     1      -7.885  16.846  67.925  1.00  0.00    -0.180 A  
HETATM   14  C   UNL     1      -9.135  16.699  67.298  1.00  0.00    -0.225 A  
HETATM   15  C   UNL     1      -9.570  15.448  66.838  1.00  0.00    -0.239 A  
HETATM   16  C   UNL     1      -8.703  14.353  66.956  1.00  0.00    -0.244 A  
HETATM   17  C   UNL     1      -7.415  14.485  67.501  1.00  0.00    -0.216 A  
BRANCH  15  18
HETATM   18  C   UNL     1     -10.993  15.247  66.353  1.00  0.00    -0.299 C  
BRANCH  18  19
HETATM   19  C   UNL     1     -11.124  15.114  64.840  1.00  0.00    -0.414 C  
BRANCH  19  20
HETATM   20  S   UNL     1     -12.253  13.822  64.374  1.00  0.00    -0.371 S  
HETATM   21  O   UNL     1     -12.538  13.953  62.960  1.00  0.00    -0.694 OA 
HETATM   22  O   UNL     1     -13.315  13.758  65.355  1.00  0.00    -0.669 OA 
BRANCH  20  23
HETATM   23  C   UNL     1     -11.235  12.372  64.580  1.00  0.00    -0.312 A  
HETATM   24  C   UNL     1     -11.100  11.807  65.852  1.00  0.00    -0.355 A  
HETATM   25  C   UNL     1     -10.272  10.699  66.023  1.00  0.00    -0.309 A  
HETATM   26  C   UNL     1      -9.591  10.159  64.930  1.00  0.00    -0.369 A  
HETATM   27  C   UNL     1      -9.743  10.718  63.659  1.00  0.00    -0.376 A  
HETATM   28  C   UNL     1     -10.570  11.827  63.477  1.00  0.00    -0.499 A  
ENDBRANCH  20  23
ENDBRANCH  19  20
ENDBRANCH  18  19
ENDBRANCH  15  18
ENDBRANCH   7   8
ENDBRANCH   6   7
TORSDOF 6
ENDMDL
MODEL       69
REMARK 921   NORMALIZED FREE ENERGY PREDICTED BY IDOCK:   -5.72 KCAL/MOL
REMARK 922        TOTAL FREE ENERGY PREDICTED BY IDOCK:   -9.30 KCAL/MOL
REMARK 923 INTER-LIGAND FREE ENERGY PREDICTED BY IDOCK:   -7.67 KCAL/MOL
REMARK 924 INTRA-LIGAND FREE ENERGY PREDICTED BY IDOCK:   -1.64 KCAL/MOL
REMARK 927      BINDING AFFINITY PREDICTED BY RF-SCORE:    0.00 PKD
ROOT
HETATM    1  C   UNL     1     -11.149  14.884  66.359  1.00  0.00    -0.342 C  
HETATM    2  N   UNL     1     -11.715  13.756  65.624  1.00  0.00    -0.335 NA 
HETATM    3  C   UNL     1     -12.255  14.193  64.331  1.00  0.00    -0.439 C  
HETATM    4  C   UNL     1     -12.204  12.947  63.475  1.00  0.00    -0.595 C  
HETATM    5  C   UNL     1     -10.896  12.307  63.889  1.00  0.00    -0.464 C  
HETATM    6  C   UNL     1     -10.724  12.684  65.368  1.00  0.00    -0.280 C  
ENDROOT
BRANCH   6   7
HETATM    7  C   UNL     1     -10.967  11.491  66.329  1.00  0.00    -0.328 C  
BRANCH   7   8
HETATM    8  C   UNL     1      -9.709  10.929  66.937  1.00  0.00    -0.210 A  
HETATM    9  C   UNL     1      -8.436  10.975  66.402  1.00  0.00    -0.164 A  
HETATM   10  N   UNL     1      -7.560  10.449  67.317  1.00  0.00    -0.094 NA 
HETATM   11  C   UNL     1      -8.233  10.076  68.457  1.00  0.00    -0.108 A  
HETATM   12  H   UNL     1      -6.555  10.349  67.173  1.00  0.00     0.000 HD 
HETATM   13  C   UNL     1      -9.585  10.298  68.213  1.00  0.00    -0.151 A  
HETATM   14  C   UNL     1     -10.511   9.962  69.216  1.00  0.00    -0.240 A  
HETATM   15  C   UNL     1     -10.083   9.512  70.473  1.00  0.00    -0.347 A  
HETATM   16  C   UNL     1      -8.708   9.338  70.689  1.00  0.00    -0.282 A  
HETATM   17  C   UNL     1      -7.764   9.584  69.679  1.00  0.00    -0.112 A  
BRANCH  15  18
HETATM   18  C   UNL     1     -11.064   9.348  71.618  1.00  0.00    -0.409 C  
BRANCH  18  19
HETATM   19  C   UNL     1     -10.859   8.080  72.439  1.00  0.00    -0.327 C  
BRANCH  19  20
HETATM   20  S   UNL     1     -11.846   6.726  71.842  1.00  0.00    -0.335 S  
HETATM   21  O   UNL     1     -13.116   7.253  71.387  1.00  0.00    -0.376 OA 
HETATM   22  O   UNL     1     -11.778   5.645  72.801  1.00  0.00    -0.283 OA 
BRANCH  20  23
HETATM   23  C   UNL     1     -10.927   6.229  70.397  1.00  0.00    -0.322 A  
HETATM   24  C   UNL     1      -9.672   5.631  70.557  1.00  0.00    -0.233 A  
HETATM   25  C   UNL     1      -8.935   5.280  69.428  1.00  0.00    -0.124 A  
HETATM   26  C   UNL     1      -9.450   5.520  68.153  1.00  0.00    -0.133 A  
HETATM   27  C   UNL     1     -10.709   6.103  68.000  1.00  0.00    -0.370 A  
HETATM   28  C   UNL     1     -11.457   6.458  69.124  1.00  0.00    -0.265 A  
ENDBRANCH  20  23
ENDBRANCH  19  20
ENDBRANCH  18  19
ENDBRANCH  15  18
ENDBRANCH   7   8
ENDBRANCH   6   7
TORSDOF 6
ENDMDL
MODEL       70
REMARK 921   NORMALIZED FREE ENERGY PREDICTED BY IDOCK:   -5.72 KCAL/MOL
REMARK 922        TOTAL FREE ENERGY PREDICTED BY IDOCK:   -9.30 KCAL/MOL
REMARK 923 INTER-LIGAND FREE ENERGY PREDICTED BY IDOCK:   -6.97 KCAL/MOL
REMARK 924 INTRA-LIGAND FREE ENERGY PREDICTED BY IDOCK:   -2.33 KCAL/MOL
REMARK 927      BINDING AFFINITY PREDICTED BY RF-SCORE:    0.00 PKD
ROOT
HETATM    1  C   UNL     1     -12.257  13.650  70.455  1.00  0.00    -0.368 C  
HETATM    2  N   UNL     1     -11.800  14.709  69.559  1.00  0.00    -0.312 NA 
HETATM    3  C   UNL     1     -10.936  15.658  70.270  1.00  0.00    -0.348 C  
HETATM    4  C   UNL     1     -10.079  16.258  69.178  1.00  0.00    -0.264 C  
HETATM    5  C   UNL     1      -9.797  15.072  68.280  1.00  0.00    -0.219 C  
HETATM    6  C   UNL     1     -11.047  14.187  68.393  1.00  0.00    -0.252 C  
ENDROOT
BRANCH   6   7
HETATM    7  C   UNL     1     -11.935  14.228  67.123  1.00  0.00    -0.449 C  
BRANCH   7   8
HETATM    8  C   UNL     1     -11.335  13.522  65.935  1.00  0.00    -0.321 A  
HETATM    9  C   UNL     1     -10.958  14.091  64.735  1.00  0.00    -0.402 A  
HETATM   10  N   UNL     1     -10.357  13.126  63.965  1.00  0.00    -0.644 NA 
HETATM   11  C   UNL     1     -10.314  11.934  64.649  1.00  0.00    -0.284 A  
HETATM   12  H   UNL     1      -9.996  13.272  63.022  1.00  0.00     0.000 HD 
HETATM   13  C   UNL     1     -10.985  12.139  65.851  1.00  0.00    -0.332 A  
HETATM   14  C   UNL     1     -11.120  11.054  66.736  1.00  0.00    -0.240 A  
HETATM   15  C   UNL     1     -10.507   9.822  66.468  1.00  0.00    -0.212 A  
HETATM   16  C   UNL     1      -9.808   9.671  65.262  1.00  0.00    -0.269 A  
HETATM   17  C   UNL     1      -9.727  10.709  64.319  1.00  0.00    -0.372 A  
BRANCH  15  18
HETATM   18  C   UNL     1     -10.478   8.723  67.512  1.00  0.00    -0.340 C  
BRANCH  18  19
HETATM   19  C   UNL     1     -10.309   9.223  68.941  1.00  0.00    -0.214 C  
BRANCH  19  20
HETATM   20  S   UNL     1      -8.651   8.991  69.543  1.00  0.00    -0.145 S  
HETATM   21  O   UNL     1      -8.223   7.651  69.196  1.00  0.00    -0.126 OA 
HETATM   22  O   UNL     1      -8.580   9.476  70.904  1.00  0.00    -0.259 OA 
BRANCH  20  23
HETATM   23  C   UNL     1      -7.739  10.125  68.514  1.00  0.00    -0.090 A  
HETATM   24  C   UNL     1      -8.078  11.482  68.524  1.00  0.00    -0.146 A  
HETATM   25  C   UNL     1      -7.394  12.364  67.689  1.00  0.00    -0.132 A  
HETATM   26  C   UNL     1      -6.378  11.893  66.857  1.00  0.00    -0.107 A  
HETATM   27  C   UNL     1      -6.033  10.540  66.862  1.00  0.00    -0.059 A  
HETATM   28  C   UNL     1      -6.710   9.648  67.695  1.00  0.00    -0.066 A  
ENDBRANCH  20  23
ENDBRANCH  19  20
ENDBRANCH  18  19
ENDBRANCH  15  18
ENDBRANCH   7   8
ENDBRANCH   6   7
TORSDOF 6
ENDMDL
MODEL       71
REMARK 921   NORMALIZED FREE ENERGY PREDICTED BY IDOCK:   -5.72 KCAL/MOL
REMARK 922        TOTAL FREE ENERGY PREDICTED BY IDOCK:   -9.30 KCAL/MOL
REMARK 923 INTER-LIGAND FREE ENERGY PREDICTED BY IDOCK:   -8.05 KCAL/MOL
REMARK 924 INTRA-LIGAND FREE ENERGY PREDICTED BY IDOCK:   -1.25 KCAL/MOL
REMARK 927      BINDING AFFINITY PREDICTED BY RF-SCORE:    0.00 PKD
ROOT
HETATM    1  C   UNL     1      -5.481  10.365  65.456  1.00  0.00    -0.099 C  
HETATM    2  N   UNL     1      -6.477   9.976  66.450  1.00  0.00    -0.071 NA 
HETATM    3  C   UNL     1      -5.941  10.113  67.809  1.00  0.00    -0.049 C  
HETATM    4  C   UNL     1      -7.171  10.305  68.668  1.00  0.00    -0.081 C  
HETATM    5  C   UNL     1      -8.050  11.186  67.806  1.00  0.00    -0.117 C  
HETATM    6  C   UNL     1      -7.718  10.782  66.363  1.00  0.00    -0.145 C  
ENDROOT
BRANCH   6   7
HETATM    7  C   UNL     1      -8.846   9.956  65.690  1.00  0.00    -0.184 C  
BRANCH   7   8
HETATM    8  C   UNL     1      -9.617  10.715  64.642  1.00  0.00    -0.334 A  
HETATM    9  C   UNL     1      -9.729  10.397  63.302  1.00  0.00    -0.255 A  
HETATM   10  N   UNL     1     -10.606  11.276  62.718  1.00  0.00    -0.702 NA 
HETATM   11  C   UNL     1     -11.090  12.156  63.658  1.00  0.00    -0.457 A  
HETATM   12  H   UNL     1     -10.861  11.277  61.731  1.00  0.00     0.000 HD 
HETATM   13  C   UNL     1     -10.431  11.870  64.849  1.00  0.00    -0.331 A  
HETATM   14  C   UNL     1     -10.717  12.658  65.978  1.00  0.00    -0.295 A  
HETATM   15  C   UNL     1     -11.717  13.640  65.940  1.00  0.00    -0.378 A  
HETATM   16  C   UNL     1     -12.384  13.869  64.728  1.00  0.00    -0.429 A  
HETATM   17  C   UNL     1     -12.062  13.157  63.561  1.00  0.00    -0.585 A  
BRANCH  15  18
HETATM   18  C   UNL     1     -12.168  14.344  67.206  1.00  0.00    -0.248 C  
BRANCH  18  19
HETATM   19  C   UNL     1     -11.074  14.505  68.254  1.00  0.00    -0.261 C  
BRANCH  19  20
HETATM   20  S   UNL     1     -11.737  14.767  69.884  1.00  0.00    -0.325 S  
HETATM   21  O   UNL     1     -13.018  15.431  69.754  1.00  0.00    -0.010 OA 
HETATM   22  O   UNL     1     -10.693  15.302  70.729  1.00  0.00    -0.276 OA 
BRANCH  20  23
HETATM   23  C   UNL     1     -12.056  13.093  70.408  1.00  0.00    -0.317 A  
HETATM   24  C   UNL     1     -12.890  12.868  71.508  1.00  0.00    -0.380 A  
HETATM   25  C   UNL     1     -13.107  11.563  71.945  1.00  0.00    -0.492 A  
HETATM   26  C   UNL     1     -12.501  10.494  71.284  1.00  0.00    -0.524 A  
HETATM   27  C   UNL     1     -11.682  10.723  70.176  1.00  0.00    -0.425 A  
HETATM   28  C   UNL     1     -11.459  12.026  69.730  1.00  0.00    -0.284 A  
ENDBRANCH  20  23
ENDBRANCH  19  20
ENDBRANCH  18  19
ENDBRANCH  15  18
ENDBRANCH   7   8
ENDBRANCH   6   7
TORSDOF 6
ENDMDL
MODEL       72
REMARK 921   NORMALIZED FREE ENERGY PREDICTED BY IDOCK:   -5.69 KCAL/MOL
REMARK 922        TOTAL FREE ENERGY PREDICTED BY IDOCK:   -9.26 KCAL/MOL
REMARK 923 INTER-LIGAND FREE ENERGY PREDICTED BY IDOCK:   -7.01 KCAL/MOL
REMARK 924 INTRA-LIGAND FREE ENERGY PREDICTED BY IDOCK:   -2.25 KCAL/MOL
REMARK 927      BINDING AFFINITY PREDICTED BY RF-SCORE:    0.00 PKD
ROOT
HETATM    1  C   UNL     1      -6.807  19.334  69.222  1.00  0.00    -0.318 C  
HETATM    2  N   UNL     1      -7.279  18.335  68.268  1.00  0.00    -0.250 NA 
HETATM    3  C   UNL     1      -6.997  18.753  66.890  1.00  0.00    -0.200 C  
HETATM    4  C   UNL     1      -6.934  17.453  66.120  1.00  0.00    -0.298 C  
HETATM    5  C   UNL     1      -6.232  16.523  67.085  1.00  0.00    -0.212 C  
HETATM    6  C   UNL     1      -6.660  17.004  68.479  1.00  0.00    -0.168 C  
ENDROOT
BRANCH   6   7
HETATM    7  C   UNL     1      -7.670  16.048  69.166  1.00  0.00    -0.231 C  
BRANCH   7   8
HETATM    8  C   UNL     1      -7.144  14.652  69.377  1.00  0.00    -0.157 A  
HETATM    9  C   UNL     1      -6.315  14.224  70.395  1.00  0.00    -0.128 A  
HETATM   10  N   UNL     1      -6.161  12.864  70.288  1.00  0.00    -0.364 NA 
HETATM   11  C   UNL     1      -6.894  12.387  69.226  1.00  0.00    -0.028 A  
HETATM   12  H   UNL     1      -5.587  12.290  70.906  1.00  0.00     0.000 HD 
HETATM   13  C   UNL     1      -7.455  13.495  68.599  1.00  0.00    -0.108 A  
HETATM   14  C   UNL     1      -8.234  13.289  67.446  1.00  0.00    -0.185 A  
HETATM   15  C   UNL     1      -8.528  11.995  66.994  1.00  0.00    -0.183 A  
HETATM   16  C   UNL     1      -7.972  10.905  67.679  1.00  0.00    -0.114 A  
HETATM   17  C   UNL     1      -7.122  11.081  68.783  1.00  0.00    -0.086 A  
BRANCH  15  18
HETATM   18  C   UNL     1      -9.532  11.767  65.881  1.00  0.00    -0.239 C  
BRANCH  18  19
HETATM   19  C   UNL     1     -10.955  12.188  66.227  1.00  0.00    -0.295 C  
BRANCH  19  20
HETATM   20  S   UNL     1     -11.514  13.552  65.231  1.00  0.00    -0.308 S  
HETATM   21  O   UNL     1     -12.951  13.448  65.081  1.00  0.00    -0.710 OA 
HETATM   22  O   UNL     1     -10.643  13.675  64.083  1.00  0.00    -0.320 OA 
BRANCH  20  23
HETATM   23  C   UNL     1     -11.189  14.933  66.310  1.00  0.00    -0.331 A  
HETATM   24  C   UNL     1     -11.552  14.848  67.658  1.00  0.00    -0.357 A  
HETATM   25  C   UNL     1     -11.336  15.942  68.494  1.00  0.00    -0.374 A  
HETATM   26  C   UNL     1     -10.759  17.107  67.986  1.00  0.00    -0.372 A  
HETATM   27  C   UNL     1     -10.384  17.181  66.643  1.00  0.00    -0.310 A  
HETATM   28  C   UNL     1     -10.594  16.091  65.798  1.00  0.00    -0.366 A  
ENDBRANCH  20  23
ENDBRANCH  19  20
ENDBRANCH  18  19
ENDBRANCH  15  18
ENDBRANCH   7   8
ENDBRANCH   6   7
TORSDOF 6
ENDMDL
MODEL       73
REMARK 921   NORMALIZED FREE ENERGY PREDICTED BY IDOCK:   -5.68 KCAL/MOL
REMARK 922        TOTAL FREE ENERGY PREDICTED BY IDOCK:   -9.25 KCAL/MOL
REMARK 923 INTER-LIGAND FREE ENERGY PREDICTED BY IDOCK:   -7.05 KCAL/MOL
REMARK 924 INTRA-LIGAND FREE ENERGY PREDICTED BY IDOCK:   -2.20 KCAL/MOL
REMARK 927      BINDING AFFINITY PREDICTED BY RF-SCORE:    0.00 PKD
ROOT
HETATM    1  C   UNL     1      -9.901   9.792  65.477  1.00  0.00    -0.308 C  
HETATM    2  N   UNL     1      -9.868  11.061  66.200  1.00  0.00    -0.217 NA 
HETATM    3  C   UNL     1     -10.104  12.188  65.289  1.00  0.00    -0.265 C  
HETATM    4  C   UNL     1     -10.658  13.271  66.186  1.00  0.00    -0.293 C  
HETATM    5  C   UNL     1     -11.552  12.500  67.134  1.00  0.00    -0.437 C  
HETATM    6  C   UNL     1     -10.877  11.129  67.284  1.00  0.00    -0.274 C  
ENDROOT
BRANCH   6   7
HETATM    7  C   UNL     1     -10.194  10.938  68.663  1.00  0.00    -0.201 C  
BRANCH   7   8
HETATM    8  C   UNL     1     -11.100  10.363  69.720  1.00  0.00    -0.352 A  
HETATM    9  C   UNL     1     -12.479  10.421  69.751  1.00  0.00     0.018 A  
HETATM   10  N   UNL     1     -12.922   9.684  70.821  1.00  0.00    -0.559 NA 
HETATM   11  C   UNL     1     -11.855   9.123  71.483  1.00  0.00    -0.358 A  
HETATM   12  H   UNL     1     -13.900   9.569  71.086  1.00  0.00     0.000 HD 
HETATM   13  C   UNL     1     -10.705   9.594  70.857  1.00  0.00    -0.402 A  
HETATM   14  C   UNL     1      -9.455   9.198  71.367  1.00  0.00    -0.279 A  
HETATM   15  C   UNL     1      -9.363   8.269  72.413  1.00  0.00    -0.338 A  
HETATM   16  C   UNL     1     -10.548   7.791  72.990  1.00  0.00    -0.441 A  
HETATM   17  C   UNL     1     -11.810   8.232  72.560  1.00  0.00    -0.439 A  
BRANCH  15  18
HETATM   18  C   UNL     1      -8.024   7.687  72.822  1.00  0.00    -0.140 C  
BRANCH  18  19
HETATM   19  C   UNL     1      -7.192   7.156  71.661  1.00  0.00    -0.073 C  
BRANCH  19  20
HETATM   20  S   UNL     1      -7.757   5.565  71.101  1.00  0.00    -0.106 S  
HETATM   21  O   UNL     1      -8.475   4.928  72.186  1.00  0.00    -0.120 OA 
HETATM   22  O   UNL     1      -6.666   4.898  70.424  1.00  0.00    -0.034 OA 
BRANCH  20  23
HETATM   23  C   UNL     1      -8.958   6.030  69.868  1.00  0.00    -0.141 A  
HETATM   24  C   UNL     1     -10.303   5.704  70.067  1.00  0.00    -0.345 A  
HETATM   25  C   UNL     1     -11.237   6.030  69.086  1.00  0.00    -0.337 A  
HETATM   26  C   UNL     1     -10.830   6.681  67.920  1.00  0.00    -0.353 A  
HETATM   27  C   UNL     1      -9.488   7.019  67.734  1.00  0.00    -0.132 A  
HETATM   28  C   UNL     1      -8.544   6.698  68.711  1.00  0.00    -0.122 A  
ENDBRANCH  20  23
ENDBRANCH  19  20
ENDBRANCH  18  19
ENDBRANCH  15  18
ENDBRANCH   7   8
ENDBRANCH   6   7
TORSDOF 6
ENDMDL
MODEL       74
REMARK 921   NORMALIZED FREE ENERGY PREDICTED BY IDOCK:   -5.65 KCAL/MOL
REMARK 922        TOTAL FREE ENERGY PREDICTED BY IDOCK:   -9.20 KCAL/MOL
REMARK 923 INTER-LIGAND FREE ENERGY PREDICTED BY IDOCK:   -7.17 KCAL/MOL
REMARK 924 INTRA-LIGAND FREE ENERGY PREDICTED BY IDOCK:   -2.03 KCAL/MOL
REMARK 927      BINDING AFFINITY PREDICTED BY RF-SCORE:    0.00 PKD
ROOT
HETATM    1  C   UNL     1      -5.241  15.588  68.756  1.00  0.00    -0.100 C  
HETATM    2  N   UNL     1      -6.687  15.727  68.607  1.00  0.00    -0.114 NA 
HETATM    3  C   UNL     1      -7.029  17.025  68.012  1.00  0.00    -0.165 C  
HETATM    4  C   UNL     1      -8.371  16.784  67.358  1.00  0.00    -0.197 C  
HETATM    5  C   UNL     1      -8.223  15.389  66.788  1.00  0.00    -0.252 C  
HETATM    6  C   UNL     1      -7.280  14.664  67.760  1.00  0.00    -0.175 C  
ENDROOT
BRANCH   6   7
HETATM    7  C   UNL     1      -8.009  13.621  68.646  1.00  0.00    -0.083 C  
BRANCH   7   8
HETATM    8  C   UNL     1      -7.684  12.191  68.299  1.00  0.00    -0.135 A  
HETATM    9  C   UNL     1      -6.948  11.301  69.056  1.00  0.00    -0.104 A  
HETATM   10  N   UNL     1      -6.978  10.076  68.439  1.00  0.00    -0.066 NA 
HETATM   11  C   UNL     1      -7.742  10.140  67.297  1.00  0.00    -0.095 A  
HETATM   12  H   UNL     1      -6.503   9.239  68.778  1.00  0.00     0.000 HD 
HETATM   13  C   UNL     1      -8.131  11.468  67.151  1.00  0.00    -0.159 A  
HETATM   14  C   UNL     1      -8.900  11.821  66.028  1.00  0.00    -0.057 A  
HETATM   15  C   UNL     1      -9.357  10.847  65.130  1.00  0.00    -0.252 A  
HETATM   16  C   UNL     1      -8.972   9.514  65.336  1.00  0.00    -0.244 A  
HETATM   17  C   UNL     1      -8.134   9.142  66.399  1.00  0.00    -0.107 A  
BRANCH  15  18
HETATM   18  C   UNL     1     -10.354  11.196  64.041  1.00  0.00    -0.437 C  
BRANCH  18  19
HETATM   19  C   UNL     1     -10.611  12.689  63.886  1.00  0.00    -0.428 C  
BRANCH  19  20
HETATM   20  S   UNL     1     -12.239  13.151  64.433  1.00  0.00    -0.393 S  
HETATM   21  O   UNL     1     -13.104  11.995  64.319  1.00  0.00    -0.671 OA 
HETATM   22  O   UNL     1     -12.590  14.417  63.827  1.00  0.00    -0.829 OA 
BRANCH  20  23
HETATM   23  C   UNL     1     -11.960  13.439  66.170  1.00  0.00    -0.413 A  
HETATM   24  C   UNL     1     -11.873  12.347  67.039  1.00  0.00    -0.368 A  
HETATM   25  C   UNL     1     -11.697  12.571  68.403  1.00  0.00    -0.375 A  
HETATM   26  C   UNL     1     -11.602  13.876  68.891  1.00  0.00    -0.353 A  
HETATM   27  C   UNL     1     -11.673  14.962  68.017  1.00  0.00    -0.344 A  
HETATM   28  C   UNL     1     -11.849  14.749  66.648  1.00  0.00    -0.255 A  
ENDBRANCH  20  23
ENDBRANCH  19  20
ENDBRANCH  18  19
ENDBRANCH  15  18
ENDBRANCH   7   8
ENDBRANCH   6   7
TORSDOF 6
ENDMDL
MODEL       75
REMARK 921   NORMALIZED FREE ENERGY PREDICTED BY IDOCK:   -5.62 KCAL/MOL
REMARK 922        TOTAL FREE ENERGY PREDICTED BY IDOCK:   -9.17 KCAL/MOL
REMARK 923 INTER-LIGAND FREE ENERGY PREDICTED BY IDOCK:   -8.25 KCAL/MOL
REMARK 924 INTRA-LIGAND FREE ENERGY PREDICTED BY IDOCK:   -0.92 KCAL/MOL
REMARK 927      BINDING AFFINITY PREDICTED BY RF-SCORE:    0.00 PKD
ROOT
HETATM    1  C   UNL     1      -9.744  18.484  68.616  1.00  0.00    -0.365 C  
HETATM    2  N   UNL     1      -9.816  17.089  68.190  1.00  0.00    -0.262 NA 
HETATM    3  C   UNL     1      -8.521  16.632  67.672  1.00  0.00    -0.192 C  
HETATM    4  C   UNL     1      -8.555  15.134  67.878  1.00  0.00    -0.154 C  
HETATM    5  C   UNL     1      -9.244  14.993  69.218  1.00  0.00    -0.159 C  
HETATM    6  C   UNL     1     -10.220  16.176  69.287  1.00  0.00    -0.257 C  
ENDROOT
BRANCH   6   7
HETATM    7  C   UNL     1     -11.701  15.750  69.110  1.00  0.00    -0.398 C  
BRANCH   7   8
HETATM    8  C   UNL     1     -12.253  14.961  70.268  1.00  0.00    -0.389 A  
HETATM    9  C   UNL     1     -12.948  15.457  71.353  1.00  0.00    -0.461 A  
HETATM   10  N   UNL     1     -13.366  14.400  72.122  1.00  0.00    -0.363 NA 
HETATM   11  C   UNL     1     -12.976  13.213  71.547  1.00  0.00    -0.321 A  
HETATM   12  H   UNL     1     -13.891  14.483  72.993  1.00  0.00     0.000 HD 
HETATM   13  C   UNL     1     -12.217  13.542  70.429  1.00  0.00    -0.426 A  
HETATM   14  C   UNL     1     -11.656  12.499  69.670  1.00  0.00    -0.323 A  
HETATM   15  C   UNL     1     -11.938  11.158  69.965  1.00  0.00    -0.447 A  
HETATM   16  C   UNL     1     -12.740  10.873  71.079  1.00  0.00    -0.505 A  
HETATM   17  C   UNL     1     -13.245  11.889  71.907  1.00  0.00    -0.467 A  
BRANCH  15  18
HETATM   18  C   UNL     1     -11.506  10.046  69.028  1.00  0.00    -0.069 C  
BRANCH  18  19
HETATM   19  C   UNL     1     -11.106  10.522  67.637  1.00  0.00    -0.309 C  
BRANCH  19  20
HETATM   20  S   UNL     1      -9.622   9.730  67.057  1.00  0.00    -0.180 S  
HETATM   21  O   UNL     1      -9.824   8.296  67.099  1.00  0.00    -0.177 OA 
HETATM   22  O   UNL     1      -8.485  10.351  67.699  1.00  0.00    -0.115 OA 
BRANCH  20  23
HETATM   23  C   UNL     1      -9.610  10.216  65.342  1.00  0.00    -0.264 A  
HETATM   24  C   UNL     1     -10.456  11.247  64.917  1.00  0.00    -0.375 A  
HETATM   25  C   UNL     1     -10.478  11.600  63.569  1.00  0.00    -0.498 A  
HETATM   26  C   UNL     1      -9.658  10.933  62.657  1.00  0.00    -0.290 A  
HETATM   27  C   UNL     1      -8.804   9.916  63.089  1.00  0.00    -0.254 A  
HETATM   28  C   UNL     1      -8.773   9.555  64.437  1.00  0.00    -0.235 A  
ENDBRANCH  20  23
ENDBRANCH  19  20
ENDBRANCH  18  19
ENDBRANCH  15  18
ENDBRANCH   7   8
ENDBRANCH   6   7
TORSDOF 6
ENDMDL
MODEL       76
REMARK 921   NORMALIZED FREE ENERGY PREDICTED BY IDOCK:   -5.62 KCAL/MOL
REMARK 922        TOTAL FREE ENERGY PREDICTED BY IDOCK:   -9.16 KCAL/MOL
REMARK 923 INTER-LIGAND FREE ENERGY PREDICTED BY IDOCK:   -8.11 KCAL/MOL
REMARK 924 INTRA-LIGAND FREE ENERGY PREDICTED BY IDOCK:   -1.05 KCAL/MOL
REMARK 927      BINDING AFFINITY PREDICTED BY RF-SCORE:    0.00 PKD
ROOT
HETATM    1  C   UNL     1      -7.984   8.557  63.596  1.00  0.00    -0.161 C  
HETATM    2  N   UNL     1      -8.456   9.907  63.894  1.00  0.00    -0.165 NA 
HETATM    3  C   UNL     1      -8.776  10.633  62.659  1.00  0.00    -0.253 C  
HETATM    4  C   UNL     1      -9.787  11.668  63.098  1.00  0.00    -0.407 C  
HETATM    5  C   UNL     1     -10.629  10.912  64.103  1.00  0.00    -0.327 C  
HETATM    6  C   UNL     1      -9.662   9.914  64.756  1.00  0.00    -0.235 C  
ENDROOT
BRANCH   6   7
HETATM    7  C   UNL     1      -9.279  10.303  66.207  1.00  0.00    -0.191 C  
BRANCH   7   8
HETATM    8  C   UNL     1     -10.301  11.167  66.899  1.00  0.00    -0.272 A  
HETATM    9  C   UNL     1     -11.346  10.741  67.695  1.00  0.00    -0.252 A  
HETATM   10  N   UNL     1     -11.972  11.844  68.218  1.00  0.00    -0.493 NA 
HETATM   11  C   UNL     1     -11.342  12.991  67.796  1.00  0.00    -0.292 A  
HETATM   12  H   UNL     1     -12.787  11.817  68.832  1.00  0.00     0.000 HD 
HETATM   13  C   UNL     1     -10.343  12.595  66.913  1.00  0.00    -0.244 A  
HETATM   14  C   UNL     1      -9.560  13.589  66.299  1.00  0.00    -0.245 A  
HETATM   15  C   UNL     1      -9.707  14.940  66.642  1.00  0.00    -0.276 A  
HETATM   16  C   UNL     1     -10.702  15.291  67.565  1.00  0.00    -0.285 A  
HETATM   17  C   UNL     1     -11.557  14.332  68.132  1.00  0.00    -0.365 A  
BRANCH  15  18
HETATM   18  C   UNL     1      -8.729  15.984  66.138  1.00  0.00    -0.348 C  
BRANCH  18  19
HETATM   19  C   UNL     1      -7.423  16.045  66.919  1.00  0.00    -0.218 C  
BRANCH  19  20
HETATM   20  S   UNL     1      -6.778  17.699  67.023  1.00  0.00    -0.184 S  
HETATM   21  O   UNL     1      -6.269  18.073  65.719  1.00  0.00    -0.227 OA 
HETATM   22  O   UNL     1      -5.958  17.804  68.210  1.00  0.00    -0.162 OA 
BRANCH  20  23
HETATM   23  C   UNL     1      -8.265  18.642  67.304  1.00  0.00    -0.252 A  
HETATM   24  C   UNL     1      -8.840  18.647  68.579  1.00  0.00    -0.361 A  
HETATM   25  C   UNL     1     -10.025  19.349  68.791  1.00  0.00    -0.522 A  
HETATM   26  C   UNL     1     -10.624  20.044  67.739  1.00  0.00    -0.395 A  
HETATM   27  C   UNL     1     -10.037  20.048  66.472  1.00  0.00    -0.606 A  
HETATM   28  C   UNL     1      -8.850  19.349  66.249  1.00  0.00    -0.372 A  
ENDBRANCH  20  23
ENDBRANCH  19  20
ENDBRANCH  18  19
ENDBRANCH  15  18
ENDBRANCH   7   8
ENDBRANCH   6   7
TORSDOF 6
ENDMDL
MODEL       77
REMARK 921   NORMALIZED FREE ENERGY PREDICTED BY IDOCK:   -5.61 KCAL/MOL
REMARK 922        TOTAL FREE ENERGY PREDICTED BY IDOCK:   -9.16 KCAL/MOL
REMARK 923 INTER-LIGAND FREE ENERGY PREDICTED BY IDOCK:   -8.33 KCAL/MOL
REMARK 924 INTRA-LIGAND FREE ENERGY PREDICTED BY IDOCK:   -0.83 KCAL/MOL
REMARK 927      BINDING AFFINITY PREDICTED BY RF-SCORE:    0.00 PKD
ROOT
HETATM    1  C   UNL     1      -8.726   5.625  70.352  1.00  0.00    -0.133 C  
HETATM    2  N   UNL     1      -9.498   6.469  71.260  1.00  0.00    -0.166 NA 
HETATM    3  C   UNL     1      -8.785   6.661  72.529  1.00  0.00    -0.124 C  
HETATM    4  C   UNL     1      -9.331   7.968  73.058  1.00  0.00    -0.344 C  
HETATM    5  C   UNL     1      -9.465   8.810  71.807  1.00  0.00    -0.363 C  
HETATM    6  C   UNL     1      -9.790   7.807  70.691  1.00  0.00    -0.182 C  
ENDROOT
BRANCH   6   7
HETATM    7  C   UNL     1     -11.267   7.878  70.224  1.00  0.00    -0.206 C  
BRANCH   7   8
HETATM    8  C   UNL     1     -12.110   8.847  71.009  1.00  0.00    -0.278 A  
HETATM    9  C   UNL     1     -12.792   8.592  72.183  1.00  0.00    -0.391 A  
HETATM   10  N   UNL     1     -13.344   9.766  72.630  1.00  0.00    -0.554 NA 
HETATM   11  C   UNL     1     -13.019  10.796  71.778  1.00  0.00    -0.463 A  
HETATM   12  H   UNL     1     -13.914   9.862  73.471  1.00  0.00     0.000 HD 
HETATM   13  C   UNL     1     -12.312  10.232  70.721  1.00  0.00    -0.445 A  
HETATM   14  C   UNL     1     -11.887  11.072  69.676  1.00  0.00    -0.414 A  
HETATM   15  C   UNL     1     -12.075  12.460  69.742  1.00  0.00    -0.292 A  
HETATM   16  C   UNL     1     -12.760  12.990  70.844  1.00  0.00    -0.299 A  
HETATM   17  C   UNL     1     -13.271  12.169  71.862  1.00  0.00    -0.474 A  
BRANCH  15  18
HETATM   18  C   UNL     1     -11.437  13.382  68.721  1.00  0.00    -0.344 C  
BRANCH  18  19
HETATM   19  C   UNL     1      -9.914  13.330  68.698  1.00  0.00    -0.122 C  
BRANCH  19  20
HETATM   20  S   UNL     1      -9.289  12.570  67.216  1.00  0.00    -0.196 S  
HETATM   21  O   UNL     1      -9.436  11.134  67.343  1.00  0.00    -0.163 OA 
HETATM   22  O   UNL     1      -8.016  13.172  66.888  1.00  0.00    -0.044 OA 
BRANCH  20  23
HETATM   23  C   UNL     1     -10.478  13.122  66.008  1.00  0.00    -0.284 A  
HETATM   24  C   UNL     1     -10.416  14.439  65.539  1.00  0.00    -0.366 A  
HETATM   25  C   UNL     1     -11.370  14.884  64.626  1.00  0.00    -0.362 A  
HETATM   26  C   UNL     1     -12.372  14.019  64.183  1.00  0.00    -0.374 A  
HETATM   27  C   UNL     1     -12.420  12.702  64.642  1.00  0.00    -0.538 A  
HETATM   28  C   UNL     1     -11.469  12.245  65.556  1.00  0.00    -0.408 A  
ENDBRANCH  20  23
ENDBRANCH  19  20
ENDBRANCH  18  19
ENDBRANCH  15  18
ENDBRANCH   7   8
ENDBRANCH   6   7
TORSDOF 6
ENDMDL
MODEL       78
REMARK 921   NORMALIZED FREE ENERGY PREDICTED BY IDOCK:   -5.59 KCAL/MOL
REMARK 922        TOTAL FREE ENERGY PREDICTED BY IDOCK:   -9.12 KCAL/MOL
REMARK 923 INTER-LIGAND FREE ENERGY PREDICTED BY IDOCK:   -7.11 KCAL/MOL
REMARK 924 INTRA-LIGAND FREE ENERGY PREDICTED BY IDOCK:   -2.01 KCAL/MOL
REMARK 927      BINDING AFFINITY PREDICTED BY RF-SCORE:    0.00 PKD
ROOT
HETATM    1  C   UNL     1     -13.541  14.084  72.570  1.00  0.00    -0.566 C  
HETATM    2  N   UNL     1     -13.291  13.919  71.141  1.00  0.00    -0.240 NA 
HETATM    3  C   UNL     1     -12.953  15.205  70.518  1.00  0.00    -0.321 C  
HETATM    4  C   UNL     1     -12.141  14.817  69.302  1.00  0.00    -0.296 C  
HETATM    5  C   UNL     1     -11.307  13.659  69.809  1.00  0.00    -0.181 C  
HETATM    6  C   UNL     1     -12.188  12.969  70.860  1.00  0.00    -0.220 C  
ENDROOT
BRANCH   6   7
HETATM    7  C   UNL     1     -12.762  11.614  70.372  1.00  0.00    -0.105 C  
BRANCH   7   8
HETATM    8  C   UNL     1     -12.376  10.440  71.234  1.00  0.00    -0.507 A  
HETATM    9  C   UNL     1     -13.110   9.893  72.268  1.00  0.00    -0.327 A  
HETATM   10  N   UNL     1     -12.457   8.774  72.721  1.00  0.00    -0.433 NA 
HETATM   11  C   UNL     1     -11.313   8.564  71.987  1.00  0.00    -0.355 A  
HETATM   12  H   UNL     1     -12.773   8.185  73.491  1.00  0.00     0.000 HD 
HETATM   13  C   UNL     1     -11.205   9.633  71.102  1.00  0.00    -0.454 A  
HETATM   14  C   UNL     1     -10.089   9.684  70.248  1.00  0.00    -0.331 A  
HETATM   15  C   UNL     1      -9.160   8.635  70.208  1.00  0.00    -0.172 A  
HETATM   16  C   UNL     1      -9.329   7.558  71.091  1.00  0.00    -0.155 A  
HETATM   17  C   UNL     1     -10.385   7.518  72.015  1.00  0.00    -0.236 A  
BRANCH  15  18
HETATM   18  C   UNL     1      -8.077   8.592  69.147  1.00  0.00    -0.117 C  
BRANCH  18  19
HETATM   19  C   UNL     1      -8.466   9.254  67.831  1.00  0.00    -0.117 C  
BRANCH  19  20
HETATM   20  S   UNL     1      -7.711  10.853  67.635  1.00  0.00    -0.111 S  
HETATM   21  O   UNL     1      -6.779  10.785  66.529  1.00  0.00    -0.108 OA 
HETATM   22  O   UNL     1      -7.303  11.336  68.936  1.00  0.00    -0.101 OA 
BRANCH  20  23
HETATM   23  C   UNL     1      -9.100  11.836  67.102  1.00  0.00    -0.175 A  
HETATM   24  C   UNL     1     -10.356  11.234  66.978  1.00  0.00    -0.263 A  
HETATM   25  C   UNL     1     -11.434  11.990  66.521  1.00  0.00    -0.413 A  
HETATM   26  C   UNL     1     -11.257  13.337  66.199  1.00  0.00    -0.317 A  
HETATM   27  C   UNL     1     -10.004  13.937  66.340  1.00  0.00    -0.303 A  
HETATM   28  C   UNL     1      -8.918  13.189  66.797  1.00  0.00    -0.183 A  
ENDBRANCH  20  23
ENDBRANCH  19  20
ENDBRANCH  18  19
ENDBRANCH  15  18
ENDBRANCH   7   8
ENDBRANCH   6   7
TORSDOF 6
ENDMDL
MODEL       79
REMARK 921   NORMALIZED FREE ENERGY PREDICTED BY IDOCK:   -5.58 KCAL/MOL
REMARK 922        TOTAL FREE ENERGY PREDICTED BY IDOCK:   -9.12 KCAL/MOL
REMARK 923 INTER-LIGAND FREE ENERGY PREDICTED BY IDOCK:   -7.77 KCAL/MOL
REMARK 924 INTRA-LIGAND FREE ENERGY PREDICTED BY IDOCK:   -1.34 KCAL/MOL
REMARK 927      BINDING AFFINITY PREDICTED BY RF-SCORE:    0.00 PKD
ROOT
HETATM    1  C   UNL     1      -9.405   4.778  72.397  1.00  0.00    -0.130 C  
HETATM    2  N   UNL     1      -9.963   5.867  71.602  1.00  0.00    -0.172 NA 
HETATM    3  C   UNL     1     -10.397   5.385  70.285  1.00  0.00    -0.287 C  
HETATM    4  C   UNL     1     -11.462   6.374  69.867  1.00  0.00    -0.483 C  
HETATM    5  C   UNL     1     -12.194   6.648  71.164  1.00  0.00    -0.357 C  
HETATM    6  C   UNL     1     -11.124   6.518  72.256  1.00  0.00    -0.263 C  
ENDROOT
BRANCH   6   7
HETATM    7  C   UNL     1     -10.702   7.884  72.856  1.00  0.00    -0.440 C  
BRANCH   7   8
HETATM    8  C   UNL     1      -9.499   8.500  72.189  1.00  0.00    -0.375 A  
HETATM    9  C   UNL     1      -8.176   8.338  72.552  1.00  0.00    -0.164 A  
HETATM   10  N   UNL     1      -7.390   8.975  71.625  1.00  0.00    -0.312 NA 
HETATM   11  C   UNL     1      -8.175   9.536  70.644  1.00  0.00    -0.112 A  
HETATM   12  H   UNL     1      -6.372   9.025  71.658  1.00  0.00     0.000 HD 
HETATM   13  C   UNL     1      -9.497   9.315  71.016  1.00  0.00    -0.313 A  
HETATM   14  C   UNL     1     -10.518   9.826  70.195  1.00  0.00    -0.338 A  
HETATM   15  C   UNL     1     -10.221  10.452  68.976  1.00  0.00    -0.233 A  
HETATM   16  C   UNL     1      -8.874  10.620  68.622  1.00  0.00    -0.151 A  
HETATM   17  C   UNL     1      -7.830  10.197  69.461  1.00  0.00    -0.165 A  
BRANCH  15  18
HETATM   18  C   UNL     1     -11.320  10.815  67.997  1.00  0.00    -0.378 C  
BRANCH  18  19
HETATM   19  C   UNL     1     -10.840  11.016  66.565  1.00  0.00    -0.209 C  
BRANCH  19  20
HETATM   20  S   UNL     1     -11.223  12.640  65.949  1.00  0.00    -0.330 S  
HETATM   21  O   UNL     1     -12.628  12.677  65.601  1.00  0.00    -0.611 OA 
HETATM   22  O   UNL     1     -10.201  13.029  65.003  1.00  0.00    -0.294 OA 
BRANCH  20  23
HETATM   23  C   UNL     1     -11.012  13.633  67.415  1.00  0.00    -0.276 A  
HETATM   24  C   UNL     1     -12.132  13.957  68.188  1.00  0.00    -0.317 A  
HETATM   25  C   UNL     1     -11.975  14.767  69.311  1.00  0.00    -0.329 A  
HETATM   26  C   UNL     1     -10.710  15.242  69.660  1.00  0.00    -0.289 A  
HETATM   27  C   UNL     1      -9.593  14.902  68.894  1.00  0.00    -0.215 A  
HETATM   28  C   UNL     1      -9.739  14.091  67.768  1.00  0.00    -0.228 A  
ENDBRANCH  20  23
ENDBRANCH  19  20
ENDBRANCH  18  19
ENDBRANCH  15  18
ENDBRANCH   7   8
ENDBRANCH   6   7
TORSDOF 6
ENDMDL
MODEL       80
REMARK 921   NORMALIZED FREE ENERGY PREDICTED BY IDOCK:   -5.57 KCAL/MOL
REMARK 922        TOTAL FREE ENERGY PREDICTED BY IDOCK:   -9.09 KCAL/MOL
REMARK 923 INTER-LIGAND FREE ENERGY PREDICTED BY IDOCK:   -8.29 KCAL/MOL
REMARK 924 INTRA-LIGAND FREE ENERGY PREDICTED BY IDOCK:   -0.80 KCAL/MOL
REMARK 927      BINDING AFFINITY PREDICTED BY RF-SCORE:    0.00 PKD
ROOT
HETATM    1  C   UNL     1      -8.040   7.598  68.569  1.00  0.00    -0.124 C  
HETATM    2  N   UNL     1      -8.786   7.012  69.679  1.00  0.00    -0.141 NA 
HETATM    3  C   UNL     1      -9.259   5.665  69.338  1.00  0.00    -0.121 C  
HETATM    4  C   UNL     1      -9.416   4.983  70.679  1.00  0.00    -0.231 C  
HETATM    5  C   UNL     1      -8.224   5.497  71.459  1.00  0.00    -0.119 C  
HETATM    6  C   UNL     1      -7.982   6.914  70.921  1.00  0.00    -0.098 C  
ENDROOT
BRANCH   6   7
HETATM    7  C   UNL     1      -8.406   8.022  71.920  1.00  0.00    -0.167 C  
BRANCH   7   8
HETATM    8  C   UNL     1      -9.889   8.081  72.174  1.00  0.00    -0.286 A  
HETATM    9  C   UNL     1     -10.600   7.358  73.113  1.00  0.00    -0.374 A  
HETATM   10  N   UNL     1     -11.904   7.785  73.095  1.00  0.00    -0.634 NA 
HETATM   11  C   UNL     1     -12.059   8.793  72.172  1.00  0.00    -0.371 A  
HETATM   12  H   UNL     1     -12.650   7.409  73.680  1.00  0.00     0.000 HD 
HETATM   13  C   UNL     1     -10.832   8.942  71.534  1.00  0.00    -0.396 A  
HETATM   14  C   UNL     1     -10.724   9.895  70.506  1.00  0.00    -0.382 A  
HETATM   15  C   UNL     1     -11.792  10.750  70.196  1.00  0.00    -0.427 A  
HETATM   16  C   UNL     1     -12.999  10.590  70.891  1.00  0.00    -0.455 A  
HETATM   17  C   UNL     1     -13.166   9.591  71.864  1.00  0.00    -0.524 A  
BRANCH  15  18
HETATM   18  C   UNL     1     -11.610  11.910  69.236  1.00  0.00    -0.376 C  
BRANCH  18  19
HETATM   19  C   UNL     1     -11.390  11.492  67.787  1.00  0.00    -0.296 C  
BRANCH  19  20
HETATM   20  S   UNL     1      -9.937  12.239  67.085  1.00  0.00    -0.207 S  
HETATM   21  O   UNL     1      -9.295  11.267  66.224  1.00  0.00    -0.194 OA 
HETATM   22  O   UNL     1      -9.207  12.912  68.137  1.00  0.00    -0.204 OA 
BRANCH  20  23
HETATM   23  C   UNL     1     -10.654  13.489  66.036  1.00  0.00    -0.285 A  
HETATM   24  C   UNL     1     -11.728  13.151  65.205  1.00  0.00    -0.367 A  
HETATM   25  C   UNL     1     -12.262  14.116  64.354  1.00  0.00    -0.466 A  
HETATM   26  C   UNL     1     -11.732  15.407  64.339  1.00  0.00    -0.261 A  
HETATM   27  C   UNL     1     -10.671  15.743  65.181  1.00  0.00    -0.455 A  
HETATM   28  C   UNL     1     -10.128  14.785  66.039  1.00  0.00    -0.327 A  
ENDBRANCH  20  23
ENDBRANCH  19  20
ENDBRANCH  18  19
ENDBRANCH  15  18
ENDBRANCH   7   8
ENDBRANCH   6   7
TORSDOF 6
ENDMDL
MODEL       81
REMARK 921   NORMALIZED FREE ENERGY PREDICTED BY IDOCK:   -5.55 KCAL/MOL
REMARK 922        TOTAL FREE ENERGY PREDICTED BY IDOCK:   -9.07 KCAL/MOL
REMARK 923 INTER-LIGAND FREE ENERGY PREDICTED BY IDOCK:   -7.50 KCAL/MOL
REMARK 924 INTRA-LIGAND FREE ENERGY PREDICTED BY IDOCK:   -1.56 KCAL/MOL
REMARK 927      BINDING AFFINITY PREDICTED BY RF-SCORE:    0.00 PKD
ROOT
HETATM    1  C   UNL     1     -11.038   6.095  69.814  1.00  0.00    -0.416 C  
HETATM    2  N   UNL     1     -10.608   7.478  70.001  1.00  0.00    -0.232 NA 
HETATM    3  C   UNL     1     -11.626   8.248  70.727  1.00  0.00    -0.236 C  
HETATM    4  C   UNL     1     -10.842   9.366  71.377  1.00  0.00    -0.430 C  
HETATM    5  C   UNL     1      -9.563   8.677  71.804  1.00  0.00    -0.360 C  
HETATM    6  C   UNL     1      -9.333   7.585  70.750  1.00  0.00    -0.162 C  
ENDROOT
BRANCH   6   7
HETATM    7  C   UNL     1      -8.170   7.917  69.779  1.00  0.00    -0.121 C  
BRANCH   7   8
HETATM    8  C   UNL     1      -7.747   9.362  69.802  1.00  0.00    -0.110 A  
HETATM    9  C   UNL     1      -6.774   9.929  70.601  1.00  0.00    -0.094 A  
HETATM   10  N   UNL     1      -6.622  11.243  70.236  1.00  0.00    -0.468 NA 
HETATM   11  C   UNL     1      -7.467  11.545  69.193  1.00  0.00    -0.025 A  
HETATM   12  H   UNL     1      -5.977  11.901  70.674  1.00  0.00     0.000 HD 
HETATM   13  C   UNL     1      -8.230  10.407  68.956  1.00  0.00    -0.141 A  
HETATM   14  C   UNL     1      -9.213  10.457  67.951  1.00  0.00    -0.143 A  
HETATM   15  C   UNL     1      -9.354  11.588  67.133  1.00  0.00    -0.177 A  
HETATM   16  C   UNL     1      -8.537  12.700  67.383  1.00  0.00    -0.189 A  
HETATM   17  C   UNL     1      -7.605  12.712  68.434  1.00  0.00    -0.132 A  
BRANCH  15  18
HETATM   18  C   UNL     1     -10.266  11.565  65.922  1.00  0.00    -0.286 C  
BRANCH  18  19
HETATM   19  C   UNL     1     -11.684  12.048  66.199  1.00  0.00    -0.241 C  
BRANCH  19  20
HETATM   20  S   UNL     1     -11.882  13.783  65.861  1.00  0.00    -0.406 S  
HETATM   21  O   UNL     1     -13.281  14.036  65.580  1.00  0.00    -0.710 OA 
HETATM   22  O   UNL     1     -10.842  14.199  64.946  1.00  0.00    -0.366 OA 
BRANCH  20  23
HETATM   23  C   UNL     1     -11.522  14.496  67.455  1.00  0.00    -0.368 A  
HETATM   24  C   UNL     1     -12.001  13.869  68.609  1.00  0.00    -0.401 A  
HETATM   25  C   UNL     1     -11.756  14.447  69.853  1.00  0.00    -0.363 A  
HETATM   26  C   UNL     1     -11.033  15.638  69.940  1.00  0.00    -0.323 A  
HETATM   27  C   UNL     1     -10.544  16.252  68.786  1.00  0.00    -0.298 A  
HETATM   28  C   UNL     1     -10.783  15.681  67.535  1.00  0.00    -0.303 A  
ENDBRANCH  20  23
ENDBRANCH  19  20
ENDBRANCH  18  19
ENDBRANCH  15  18
ENDBRANCH   7   8
ENDBRANCH   6   7
TORSDOF 6
ENDMDL
MODEL       82
REMARK 921   NORMALIZED FREE ENERGY PREDICTED BY IDOCK:   -5.54 KCAL/MOL
REMARK 922        TOTAL FREE ENERGY PREDICTED BY IDOCK:   -9.06 KCAL/MOL
REMARK 923 INTER-LIGAND FREE ENERGY PREDICTED BY IDOCK:   -7.05 KCAL/MOL
REMARK 924 INTRA-LIGAND FREE ENERGY PREDICTED BY IDOCK:   -2.01 KCAL/MOL
REMARK 927      BINDING AFFINITY PREDICTED BY RF-SCORE:    0.00 PKD
ROOT
HETATM    1  C   UNL     1      -8.143   5.757  69.222  1.00  0.00    -0.101 C  
HETATM    2  N   UNL     1      -8.699   6.842  68.418  1.00  0.00    -0.124 NA 
HETATM    3  C   UNL     1      -8.286   6.717  67.015  1.00  0.00    -0.113 C  
HETATM    4  C   UNL     1      -9.371   7.442  66.250  1.00  0.00    -0.166 C  
HETATM    5  C   UNL     1     -10.629   7.055  66.999  1.00  0.00    -0.412 C  
HETATM    6  C   UNL     1     -10.181   6.882  68.458  1.00  0.00    -0.177 C  
ENDROOT
BRANCH   6   7
HETATM    7  C   UNL     1     -10.659   8.036  69.378  1.00  0.00    -0.210 C  
BRANCH   7   8
HETATM    8  C   UNL     1      -9.657   9.149  69.533  1.00  0.00    -0.171 A  
HETATM    9  C   UNL     1      -8.691   9.266  70.513  1.00  0.00    -0.236 A  
HETATM   10  N   UNL     1      -7.917  10.364  70.233  1.00  0.00    -0.404 NA 
HETATM   11  C   UNL     1      -8.345  10.961  69.070  1.00  0.00    -0.114 A  
HETATM   12  H   UNL     1      -7.137  10.690  70.804  1.00  0.00     0.000 HD 
HETATM   13  C   UNL     1      -9.475  10.263  68.656  1.00  0.00    -0.169 A  
HETATM   14  C   UNL     1     -10.142  10.695  67.496  1.00  0.00    -0.217 A  
HETATM   15  C   UNL     1      -9.626  11.737  66.712  1.00  0.00    -0.212 A  
HETATM   16  C   UNL     1      -8.463  12.388  67.146  1.00  0.00    -0.185 A  
HETATM   17  C   UNL     1      -7.821  12.036  68.345  1.00  0.00    -0.147 A  
BRANCH  15  18
HETATM   18  C   UNL     1     -10.226  12.065  65.358  1.00  0.00    -0.295 C  
BRANCH  18  19
HETATM   19  C   UNL     1     -11.739  12.244  65.373  1.00  0.00    -0.370 C  
BRANCH  19  20
HETATM   20  S   UNL     1     -12.213  13.958  65.364  1.00  0.00    -0.471 S  
HETATM   21  O   UNL     1     -13.657  14.033  65.454  1.00  0.00    -0.593 OA 
HETATM   22  O   UNL     1     -11.487  14.635  64.312  1.00  0.00    -0.282 OA 
BRANCH  20  23
HETATM   23  C   UNL     1     -11.553  14.515  66.924  1.00  0.00    -0.385 A  
HETATM   24  C   UNL     1     -10.546  15.486  66.933  1.00  0.00    -0.307 A  
HETATM   25  C   UNL     1     -10.000  15.891  68.150  1.00  0.00    -0.222 A  
HETATM   26  C   UNL     1     -10.462  15.336  69.344  1.00  0.00    -0.253 A  
HETATM   27  C   UNL     1     -11.478  14.379  69.330  1.00  0.00    -0.330 A  
HETATM   28  C   UNL     1     -12.033  13.966  68.118  1.00  0.00    -0.385 A  
ENDBRANCH  20  23
ENDBRANCH  19  20
ENDBRANCH  18  19
ENDBRANCH  15  18
ENDBRANCH   7   8
ENDBRANCH   6   7
TORSDOF 6
ENDMDL
MODEL       83
REMARK 921   NORMALIZED FREE ENERGY PREDICTED BY IDOCK:   -5.52 KCAL/MOL
REMARK 922        TOTAL FREE ENERGY PREDICTED BY IDOCK:   -9.03 KCAL/MOL
REMARK 923 INTER-LIGAND FREE ENERGY PREDICTED BY IDOCK:   -7.84 KCAL/MOL
REMARK 924 INTRA-LIGAND FREE ENERGY PREDICTED BY IDOCK:   -1.19 KCAL/MOL
REMARK 927      BINDING AFFINITY PREDICTED BY RF-SCORE:    0.00 PKD
ROOT
HETATM    1  C   UNL     1     -10.340   6.900  73.934  1.00  0.00    -0.365 C  
HETATM    2  N   UNL     1      -9.466   7.893  73.316  1.00  0.00    -0.279 NA 
HETATM    3  C   UNL     1      -8.103   7.795  73.853  1.00  0.00    -0.199 C  
HETATM    4  C   UNL     1      -7.237   8.366  72.753  1.00  0.00    -0.109 C  
HETATM    5  C   UNL     1      -7.897   7.840  71.496  1.00  0.00    -0.090 C  
HETATM    6  C   UNL     1      -9.390   7.751  71.842  1.00  0.00    -0.153 C  
ENDROOT
BRANCH   6   7
HETATM    7  C   UNL     1     -10.238   8.852  71.155  1.00  0.00    -0.336 C  
BRANCH   7   8
HETATM    8  C   UNL     1     -10.342   8.700  69.660  1.00  0.00    -0.213 A  
HETATM    9  C   UNL     1     -10.783   7.590  68.968  1.00  0.00    -0.134 A  
HETATM   10  N   UNL     1     -10.827   7.899  67.632  1.00  0.00    -0.505 NA 
HETATM   11  C   UNL     1     -10.441   9.205  67.435  1.00  0.00    -0.271 A  
HETATM   12  H   UNL     1     -11.105   7.255  66.891  1.00  0.00     0.000 HD 
HETATM   13  C   UNL     1     -10.064   9.701  68.679  1.00  0.00    -0.196 A  
HETATM   14  C   UNL     1      -9.585  11.021  68.756  1.00  0.00    -0.194 A  
HETATM   15  C   UNL     1      -9.586  11.857  67.631  1.00  0.00    -0.185 A  
HETATM   16  C   UNL     1     -10.011  11.327  66.404  1.00  0.00    -0.252 A  
HETATM   17  C   UNL     1     -10.414   9.988  66.277  1.00  0.00    -0.172 A  
BRANCH  15  18
HETATM   18  C   UNL     1      -9.268  13.335  67.757  1.00  0.00    -0.209 C  
BRANCH  18  19
HETATM   19  C   UNL     1      -9.872  14.001  68.987  1.00  0.00     0.015 C  
BRANCH  19  20
HETATM   20  S   UNL     1     -11.429  14.784  68.631  1.00  0.00    -0.319 S  
HETATM   21  O   UNL     1     -12.054  14.079  67.531  1.00  0.00    -0.391 OA 
HETATM   22  O   UNL     1     -11.229  16.216  68.593  1.00  0.00    -0.336 OA 
BRANCH  20  23
HETATM   23  C   UNL     1     -12.360  14.405  70.104  1.00  0.00    -0.348 A  
HETATM   24  C   UNL     1     -12.313  13.108  70.628  1.00  0.00    -0.405 A  
HETATM   25  C   UNL     1     -13.073  12.799  71.754  1.00  0.00    -0.455 A  
HETATM   26  C   UNL     1     -13.866  13.779  72.354  1.00  0.00    -0.681 A  
HETATM   27  C   UNL     1     -13.896  15.075  71.837  1.00  0.00    -0.575 A  
HETATM   28  C   UNL     1     -13.139  15.396  70.709  1.00  0.00    -0.479 A  
ENDBRANCH  20  23
ENDBRANCH  19  20
ENDBRANCH  18  19
ENDBRANCH  15  18
ENDBRANCH   7   8
ENDBRANCH   6   7
TORSDOF 6
ENDMDL
MODEL       84
REMARK 921   NORMALIZED FREE ENERGY PREDICTED BY IDOCK:   -5.51 KCAL/MOL
REMARK 922        TOTAL FREE ENERGY PREDICTED BY IDOCK:   -9.01 KCAL/MOL
REMARK 923 INTER-LIGAND FREE ENERGY PREDICTED BY IDOCK:   -7.28 KCAL/MOL
REMARK 924 INTRA-LIGAND FREE ENERGY PREDICTED BY IDOCK:   -1.74 KCAL/MOL
REMARK 927      BINDING AFFINITY PREDICTED BY RF-SCORE:    0.00 PKD
ROOT
HETATM    1  C   UNL     1     -12.472  15.239  69.716  1.00  0.00    -0.188 C  
HETATM    2  N   UNL     1     -11.915  14.478  68.601  1.00  0.00    -0.312 NA 
HETATM    3  C   UNL     1     -11.109  15.342  67.730  1.00  0.00    -0.320 C  
HETATM    4  C   UNL     1     -10.141  14.388  67.066  1.00  0.00    -0.256 C  
HETATM    5  C   UNL     1      -9.792  13.430  68.185  1.00  0.00    -0.234 C  
HETATM    6  C   UNL     1     -11.060  13.352  69.047  1.00  0.00    -0.249 C  
ENDROOT
BRANCH   6   7
HETATM    7  C   UNL     1     -11.819  12.009  68.888  1.00  0.00    -0.356 C  
BRANCH   7   8
HETATM    8  C   UNL     1     -12.146  11.333  70.193  1.00  0.00    -0.448 A  
HETATM    9  C   UNL     1     -12.903  11.847  71.228  1.00  0.00    -0.290 A  
HETATM   10  N   UNL     1     -13.050  10.874  72.184  1.00  0.00    -0.536 NA 
HETATM   11  C   UNL     1     -12.419   9.718  71.786  1.00  0.00    -0.398 A  
HETATM   12  H   UNL     1     -13.555  10.990  73.063  1.00  0.00     0.000 HD 
HETATM   13  C   UNL     1     -11.786  10.005  70.581  1.00  0.00    -0.421 A  
HETATM   14  C   UNL     1     -11.027   8.994  69.966  1.00  0.00    -0.230 A  
HETATM   15  C   UNL     1     -10.991   7.695  70.493  1.00  0.00    -0.259 A  
HETATM   16  C   UNL     1     -11.675   7.440  71.690  1.00  0.00    -0.311 A  
HETATM   17  C   UNL     1     -12.372   8.450  72.373  1.00  0.00    -0.412 A  
BRANCH  15  18
HETATM   18  C   UNL     1     -10.347   6.558  69.723  1.00  0.00    -0.234 C  
BRANCH  18  19
HETATM   19  C   UNL     1      -9.252   6.998  68.759  1.00  0.00    -0.132 C  
BRANCH  19  20
HETATM   20  S   UNL     1      -9.786   6.937  67.063  1.00  0.00    -0.173 S  
HETATM   21  O   UNL     1     -11.228   6.801  67.043  1.00  0.00    -0.393 OA 
HETATM   22  O   UNL     1      -8.932   6.019  66.342  1.00  0.00    -0.136 OA 
BRANCH  20  23
HETATM   23  C   UNL     1      -9.399   8.587  66.511  1.00  0.00    -0.203 A  
HETATM   24  C   UNL     1      -8.061   8.988  66.439  1.00  0.00    -0.110 A  
HETATM   25  C   UNL     1      -7.759  10.291  66.047  1.00  0.00    -0.130 A  
HETATM   26  C   UNL     1      -8.785  11.181  65.726  1.00  0.00    -0.153 A  
HETATM   27  C   UNL     1     -10.118  10.771  65.784  1.00  0.00    -0.320 A  
HETATM   28  C   UNL     1     -10.432   9.468  66.174  1.00  0.00    -0.077 A  
ENDBRANCH  20  23
ENDBRANCH  19  20
ENDBRANCH  18  19
ENDBRANCH  15  18
ENDBRANCH   7   8
ENDBRANCH   6   7
TORSDOF 6
ENDMDL
MODEL       85
REMARK 921   NORMALIZED FREE ENERGY PREDICTED BY IDOCK:   -5.50 KCAL/MOL
REMARK 922        TOTAL FREE ENERGY PREDICTED BY IDOCK:   -9.01 KCAL/MOL
REMARK 923 INTER-LIGAND FREE ENERGY PREDICTED BY IDOCK:   -8.16 KCAL/MOL
REMARK 924 INTRA-LIGAND FREE ENERGY PREDICTED BY IDOCK:   -0.85 KCAL/MOL
REMARK 927      BINDING AFFINITY PREDICTED BY RF-SCORE:    0.00 PKD
ROOT
HETATM    1  C   UNL     1      -7.631  14.918  67.563  1.00  0.00    -0.195 C  
HETATM    2  N   UNL     1      -8.001  16.319  67.746  1.00  0.00    -0.140 NA 
HETATM    3  C   UNL     1      -6.835  17.121  68.135  1.00  0.00    -0.176 C  
HETATM    4  C   UNL     1      -7.186  18.519  67.678  1.00  0.00    -0.221 C  
HETATM    5  C   UNL     1      -7.884  18.277  66.356  1.00  0.00    -0.290 C  
HETATM    6  C   UNL     1      -8.585  16.921  66.523  1.00  0.00    -0.270 C  
ENDROOT
BRANCH   6   7
HETATM    7  C   UNL     1     -10.123  17.050  66.673  1.00  0.00    -0.308 C  
BRANCH   7   8
HETATM    8  C   UNL     1     -10.904  16.142  65.759  1.00  0.00    -0.206 A  
HETATM    9  C   UNL     1     -11.327  16.423  64.475  1.00  0.00    -0.114 A  
HETATM   10  N   UNL     1     -11.908  15.295  63.951  1.00  0.00    -0.877 NA 
HETATM   11  C   UNL     1     -11.854  14.268  64.864  1.00  0.00    -0.410 A  
HETATM   12  H   UNL     1     -12.319  15.228  63.020  1.00  0.00     0.000 HD 
HETATM   13  C   UNL     1     -11.299  14.795  66.026  1.00  0.00    -0.332 A  
HETATM   14  C   UNL     1     -11.163  13.955  67.145  1.00  0.00    -0.328 A  
HETATM   15  C   UNL     1     -11.479  12.591  67.067  1.00  0.00    -0.419 A  
HETATM   16  C   UNL     1     -12.001  12.093  65.865  1.00  0.00    -0.252 A  
HETATM   17  C   UNL     1     -12.228  12.925  64.756  1.00  0.00    -0.499 A  
BRANCH  15  18
HETATM   18  C   UNL     1     -11.139  11.645  68.203  1.00  0.00    -0.298 C  
BRANCH  18  19
HETATM   19  C   UNL     1     -11.025  10.184  67.786  1.00  0.00    -0.277 C  
BRANCH  19  20
HETATM   20  S   UNL     1      -9.764   9.322  68.697  1.00  0.00    -0.153 S  
HETATM   21  O   UNL     1      -8.913  10.303  69.338  1.00  0.00    -0.185 OA 
HETATM   22  O   UNL     1      -9.214   8.282  67.855  1.00  0.00    -0.132 OA 
BRANCH  20  23
HETATM   23  C   UNL     1     -10.726   8.535  69.975  1.00  0.00    -0.232 A  
HETATM   24  C   UNL     1     -11.103   9.275  71.101  1.00  0.00    -0.411 A  
HETATM   25  C   UNL     1     -11.820   8.650  72.120  1.00  0.00    -0.447 A  
HETATM   26  C   UNL     1     -12.160   7.301  72.010  1.00  0.00    -0.327 A  
HETATM   27  C   UNL     1     -11.794   6.571  70.878  1.00  0.00    -0.391 A  
HETATM   28  C   UNL     1     -11.077   7.187  69.850  1.00  0.00    -0.264 A  
ENDBRANCH  20  23
ENDBRANCH  19  20
ENDBRANCH  18  19
ENDBRANCH  15  18
ENDBRANCH   7   8
ENDBRANCH   6   7
TORSDOF 6
ENDMDL
MODEL       86
REMARK 921   NORMALIZED FREE ENERGY PREDICTED BY IDOCK:   -5.48 KCAL/MOL
REMARK 922        TOTAL FREE ENERGY PREDICTED BY IDOCK:   -8.98 KCAL/MOL
REMARK 923 INTER-LIGAND FREE ENERGY PREDICTED BY IDOCK:   -6.48 KCAL/MOL
REMARK 924 INTRA-LIGAND FREE ENERGY PREDICTED BY IDOCK:   -2.51 KCAL/MOL
REMARK 927      BINDING AFFINITY PREDICTED BY RF-SCORE:    0.00 PKD
ROOT
HETATM    1  C   UNL     1     -12.572  12.610  65.031  1.00  0.00    -0.430 C  
HETATM    2  N   UNL     1     -11.696  13.247  66.010  1.00  0.00    -0.351 NA 
HETATM    3  C   UNL     1     -12.240  14.542  66.434  1.00  0.00    -0.252 C  
HETATM    4  C   UNL     1     -11.642  14.757  67.806  1.00  0.00    -0.378 C  
HETATM    5  C   UNL     1     -11.679  13.369  68.411  1.00  0.00    -0.390 C  
HETATM    6  C   UNL     1     -11.493  12.416  67.222  1.00  0.00    -0.354 C  
ENDROOT
BRANCH   6   7
HETATM    7  C   UNL     1     -10.089  11.757  67.188  1.00  0.00    -0.224 C  
BRANCH   7   8
HETATM    8  C   UNL     1     -10.105  10.305  66.787  1.00  0.00    -0.272 A  
HETATM    9  C   UNL     1      -9.765   9.781  65.556  1.00  0.00    -0.312 A  
HETATM   10  N   UNL     1      -9.810   8.412  65.639  1.00  0.00    -0.327 NA 
HETATM   11  C   UNL     1     -10.154   8.025  66.913  1.00  0.00    -0.292 A  
HETATM   12  H   UNL     1      -9.615   7.773  64.867  1.00  0.00     0.000 HD 
HETATM   13  C   UNL     1     -10.415   9.191  67.626  1.00  0.00    -0.323 A  
HETATM   14  C   UNL     1     -10.830   9.078  68.965  1.00  0.00    -0.092 A  
HETATM   15  C   UNL     1     -10.880   7.831  69.604  1.00  0.00    -0.185 A  
HETATM   16  C   UNL     1     -10.571   6.685  68.857  1.00  0.00    -0.264 A  
HETATM   17  C   UNL     1     -10.236   6.757  67.495  1.00  0.00    -0.241 A  
BRANCH  15  18
HETATM   18  C   UNL     1     -11.124   7.729  71.097  1.00  0.00    -0.269 C  
BRANCH  18  19
HETATM   19  C   UNL     1     -10.205   8.601  71.942  1.00  0.00    -0.334 C  
BRANCH  19  20
HETATM   20  S   UNL     1      -8.586   7.889  72.128  1.00  0.00    -0.155 S  
HETATM   21  O   UNL     1      -8.707   6.448  72.030  1.00  0.00    -0.133 OA 
HETATM   22  O   UNL     1      -7.930   8.515  73.255  1.00  0.00    -0.363 OA 
BRANCH  20  23
HETATM   23  C   UNL     1      -7.776   8.457  70.644  1.00  0.00    -0.083 A  
HETATM   24  C   UNL     1      -7.615   9.831  70.437  1.00  0.00    -0.165 A  
HETATM   25  C   UNL     1      -7.020  10.279  69.259  1.00  0.00    -0.073 A  
HETATM   26  C   UNL     1      -6.586   9.361  68.302  1.00  0.00    -0.058 A  
HETATM   27  C   UNL     1      -6.736   7.990  68.521  1.00  0.00    -0.066 A  
HETATM   28  C   UNL     1      -7.329   7.530  69.698  1.00  0.00    -0.090 A  
ENDBRANCH  20  23
ENDBRANCH  19  20
ENDBRANCH  18  19
ENDBRANCH  15  18
ENDBRANCH   7   8
ENDBRANCH   6   7
TORSDOF 6
ENDMDL
MODEL       87
REMARK 921   NORMALIZED FREE ENERGY PREDICTED BY IDOCK:   -5.47 KCAL/MOL
REMARK 922        TOTAL FREE ENERGY PREDICTED BY IDOCK:   -8.97 KCAL/MOL
REMARK 923 INTER-LIGAND FREE ENERGY PREDICTED BY IDOCK:   -7.92 KCAL/MOL
REMARK 924 INTRA-LIGAND FREE ENERGY PREDICTED BY IDOCK:   -1.05 KCAL/MOL
REMARK 927      BINDING AFFINITY PREDICTED BY RF-SCORE:    0.00 PKD
ROOT
HETATM    1  C   UNL     1     -12.358  12.258  70.934  1.00  0.00    -0.267 C  
HETATM    2  N   UNL     1     -12.976  13.564  71.144  1.00  0.00    -0.296 NA 
HETATM    3  C   UNL     1     -13.540  13.665  72.495  1.00  0.00    -0.570 C  
HETATM    4  C   UNL     1     -13.548  15.150  72.777  1.00  0.00    -0.588 C  
HETATM    5  C   UNL     1     -12.247  15.618  72.160  1.00  0.00    -0.528 C  
HETATM    6  C   UNL     1     -12.022  14.685  70.961  1.00  0.00    -0.339 C  
ENDROOT
BRANCH   6   7
HETATM    7  C   UNL     1     -12.271  15.380  69.597  1.00  0.00    -0.312 C  
BRANCH   7   8
HETATM    8  C   UNL     1     -11.015  15.856  68.916  1.00  0.00    -0.290 A  
HETATM    9  C   UNL     1     -10.606  17.165  68.750  1.00  0.00    -0.336 A  
HETATM   10  N   UNL     1      -9.358  17.162  68.178  1.00  0.00    -0.257 NA 
HETATM   11  C   UNL     1      -8.930  15.870  67.984  1.00  0.00    -0.182 A  
HETATM   12  H   UNL     1      -8.826  17.997  67.932  1.00  0.00     0.000 HD 
HETATM   13  C   UNL     1      -9.978  15.040  68.369  1.00  0.00    -0.225 A  
HETATM   14  C   UNL     1      -9.815  13.649  68.235  1.00  0.00    -0.232 A  
HETATM   15  C   UNL     1      -8.592  13.101  67.824  1.00  0.00    -0.188 A  
HETATM   16  C   UNL     1      -7.549  13.973  67.482  1.00  0.00    -0.195 A  
HETATM   17  C   UNL     1      -7.708  15.368  67.524  1.00  0.00    -0.205 A  
BRANCH  15  18
HETATM   18  C   UNL     1      -8.350  11.605  67.879  1.00  0.00    -0.143 C  
BRANCH  18  19
HETATM   19  C   UNL     1      -9.363  10.839  68.721  1.00  0.00    -0.182 C  
BRANCH  19  20
HETATM   20  S   UNL     1     -10.607  10.050  67.724  1.00  0.00    -0.278 S  
HETATM   21  O   UNL     1     -10.031   9.751  66.429  1.00  0.00    -0.217 OA 
HETATM   22  O   UNL     1     -11.841  10.795  67.847  1.00  0.00    -0.553 OA 
BRANCH  20  23
HETATM   23  C   UNL     1     -10.819   8.502  68.583  1.00  0.00     0.060 A  
HETATM   24  C   UNL     1     -11.015   8.510  69.968  1.00  0.00    -0.197 A  
HETATM   25  C   UNL     1     -11.140   7.300  70.647  1.00  0.00    -0.287 A  
HETATM   26  C   UNL     1     -11.075   6.094  69.946  1.00  0.00    -0.481 A  
HETATM   27  C   UNL     1     -10.895   6.093  68.561  1.00  0.00    -0.389 A  
HETATM   28  C   UNL     1     -10.770   7.300  67.871  1.00  0.00    -0.239 A  
ENDBRANCH  20  23
ENDBRANCH  19  20
ENDBRANCH  18  19
ENDBRANCH  15  18
ENDBRANCH   7   8
ENDBRANCH   6   7
TORSDOF 6
ENDMDL
MODEL       88
REMARK 921   NORMALIZED FREE ENERGY PREDICTED BY IDOCK:   -5.47 KCAL/MOL
REMARK 922        TOTAL FREE ENERGY PREDICTED BY IDOCK:   -8.96 KCAL/MOL
REMARK 923 INTER-LIGAND FREE ENERGY PREDICTED BY IDOCK:   -7.92 KCAL/MOL
REMARK 924 INTRA-LIGAND FREE ENERGY PREDICTED BY IDOCK:   -1.03 KCAL/MOL
REMARK 927      BINDING AFFINITY PREDICTED BY RF-SCORE:    0.00 PKD
ROOT
HETATM    1  C   UNL     1     -11.629   5.209  73.070  1.00  0.00    -0.223 C  
HETATM    2  N   UNL     1     -11.195   6.531  72.627  1.00  0.00    -0.258 NA 
HETATM    3  C   UNL     1     -10.228   7.106  73.569  1.00  0.00    -0.351 C  
HETATM    4  C   UNL     1      -9.434   8.080  72.727  1.00  0.00    -0.336 C  
HETATM    5  C   UNL     1      -9.289   7.346  71.411  1.00  0.00    -0.149 C  
HETATM    6  C   UNL     1     -10.568   6.507  71.284  1.00  0.00    -0.227 C  
ENDROOT
BRANCH   6   7
HETATM    7  C   UNL     1     -11.554   7.063  70.224  1.00  0.00    -0.309 C  
BRANCH   7   8
HETATM    8  C   UNL     1     -10.984   7.125  68.831  1.00  0.00    -0.109 A  
HETATM    9  C   UNL     1     -11.014   6.127  67.877  1.00  0.00    -0.304 A  
HETATM   10  N   UNL     1     -10.485   6.623  66.712  1.00  0.00    -0.411 NA 
HETATM   11  C   UNL     1     -10.128   7.941  66.877  1.00  0.00    -0.291 A  
HETATM   12  H   UNL     1     -10.374   6.092  65.848  1.00  0.00     0.000 HD 
HETATM   13  C   UNL     1     -10.362   8.253  68.213  1.00  0.00    -0.242 A  
HETATM   14  C   UNL     1     -10.042   9.546  68.664  1.00  0.00    -0.198 A  
HETATM   15  C   UNL     1      -9.597  10.533  67.773  1.00  0.00    -0.173 A  
HETATM   16  C   UNL     1      -9.411  10.185  66.428  1.00  0.00    -0.223 A  
HETATM   17  C   UNL     1      -9.640   8.880  65.963  1.00  0.00    -0.320 A  
BRANCH  15  18
HETATM   18  C   UNL     1      -9.451  11.976  68.218  1.00  0.00    -0.199 C  
BRANCH  18  19
HETATM   19  C   UNL     1      -9.725  12.997  67.121  1.00  0.00    -0.230 C  
BRANCH  19  20
HETATM   20  S   UNL     1     -11.415  13.553  67.125  1.00  0.00    -0.357 S  
HETATM   21  O   UNL     1     -12.277  12.390  67.179  1.00  0.00    -0.492 OA 
HETATM   22  O   UNL     1     -11.573  14.563  66.103  1.00  0.00    -0.362 OA 
BRANCH  20  23
HETATM   23  C   UNL     1     -11.516  14.364  68.710  1.00  0.00    -0.289 A  
HETATM   24  C   UNL     1     -12.189  13.731  69.760  1.00  0.00    -0.368 A  
HETATM   25  C   UNL     1     -12.305  14.381  70.987  1.00  0.00    -0.427 A  
HETATM   26  C   UNL     1     -11.747  15.649  71.163  1.00  0.00    -0.461 A  
HETATM   27  C   UNL     1     -11.062  16.269  70.116  1.00  0.00    -0.346 A  
HETATM   28  C   UNL     1     -10.940  15.626  68.883  1.00  0.00    -0.266 A  
ENDBRANCH  20  23
ENDBRANCH  19  20
ENDBRANCH  18  19
ENDBRANCH  15  18
ENDBRANCH   7   8
ENDBRANCH   6   7
TORSDOF 6
ENDMDL
MODEL       89
REMARK 921   NORMALIZED FREE ENERGY PREDICTED BY IDOCK:   -5.46 KCAL/MOL
REMARK 922        TOTAL FREE ENERGY PREDICTED BY IDOCK:   -8.95 KCAL/MOL
REMARK 923 INTER-LIGAND FREE ENERGY PREDICTED BY IDOCK:   -7.78 KCAL/MOL
REMARK 924 INTRA-LIGAND FREE ENERGY PREDICTED BY IDOCK:   -1.17 KCAL/MOL
REMARK 927      BINDING AFFINITY PREDICTED BY RF-SCORE:    0.00 PKD
ROOT
HETATM    1  C   UNL     1     -11.368  16.092  64.472  1.00  0.00    -0.295 C  
HETATM    2  N   UNL     1     -11.486  14.890  65.293  1.00  0.00    -0.349 NA 
HETATM    3  C   UNL     1     -12.374  13.908  64.658  1.00  0.00    -0.388 C  
HETATM    4  C   UNL     1     -11.917  12.583  65.226  1.00  0.00    -0.490 C  
HETATM    5  C   UNL     1     -10.412  12.739  65.277  1.00  0.00    -0.312 C  
HETATM    6  C   UNL     1     -10.179  14.234  65.539  1.00  0.00    -0.357 C  
ENDROOT
BRANCH   6   7
HETATM    7  C   UNL     1      -9.698  14.528  66.984  1.00  0.00    -0.247 C  
BRANCH   7   8
HETATM    8  C   UNL     1     -10.661  14.078  68.052  1.00  0.00    -0.250 A  
HETATM    9  C   UNL     1     -11.707  14.805  68.585  1.00  0.00    -0.325 A  
HETATM   10  N   UNL     1     -12.403  13.997  69.448  1.00  0.00    -0.455 NA 
HETATM   11  C   UNL     1     -11.843  12.741  69.476  1.00  0.00    -0.316 A  
HETATM   12  H   UNL     1     -13.218  14.285  69.991  1.00  0.00     0.000 HD 
HETATM   13  C   UNL     1     -10.711  12.791  68.669  1.00  0.00    -0.273 A  
HETATM   14  C   UNL     1      -9.922  11.633  68.550  1.00  0.00    -0.198 A  
HETATM   15  C   UNL     1     -10.316  10.425  69.143  1.00  0.00    -0.241 A  
HETATM   16  C   UNL     1     -11.485  10.410  69.917  1.00  0.00    -0.368 A  
HETATM   17  C   UNL     1     -12.249  11.570  70.125  1.00  0.00    -0.387 A  
BRANCH  15  18
HETATM   18  C   UNL     1      -9.579   9.133  68.846  1.00  0.00    -0.152 C  
BRANCH  18  19
HETATM   19  C   UNL     1     -10.314   8.201  67.891  1.00  0.00    -0.220 C  
BRANCH  19  20
HETATM   20  S   UNL     1     -10.066   6.488  68.299  1.00  0.00    -0.172 S  
HETATM   21  O   UNL     1      -8.645   6.210  68.256  1.00  0.00    -0.116 OA 
HETATM   22  O   UNL     1     -11.013   5.691  67.551  1.00  0.00    -0.188 OA 
BRANCH  20  23
HETATM   23  C   UNL     1     -10.563   6.457  70.011  1.00  0.00    -0.236 A  
HETATM   24  C   UNL     1     -11.902   6.690  70.339  1.00  0.00    -0.407 A  
HETATM   25  C   UNL     1     -12.284   6.708  71.679  1.00  0.00    -0.401 A  
HETATM   26  C   UNL     1     -11.337   6.488  72.680  1.00  0.00    -0.259 A  
HETATM   27  C   UNL     1     -10.004   6.241  72.347  1.00  0.00    -0.187 A  
HETATM   28  C   UNL     1      -9.610   6.220  71.007  1.00  0.00    -0.191 A  
ENDBRANCH  20  23
ENDBRANCH  19  20
ENDBRANCH  18  19
ENDBRANCH  15  18
ENDBRANCH   7   8
ENDBRANCH   6   7
TORSDOF 6
ENDMDL
MODEL       90
REMARK 921   NORMALIZED FREE ENERGY PREDICTED BY IDOCK:   -5.45 KCAL/MOL
REMARK 922        TOTAL FREE ENERGY PREDICTED BY IDOCK:   -8.94 KCAL/MOL
REMARK 923 INTER-LIGAND FREE ENERGY PREDICTED BY IDOCK:   -8.08 KCAL/MOL
REMARK 924 INTRA-LIGAND FREE ENERGY PREDICTED BY IDOCK:   -0.85 KCAL/MOL
REMARK 927      BINDING AFFINITY PREDICTED BY RF-SCORE:    0.00 PKD
ROOT
HETATM    1  C   UNL     1     -10.549  18.263  67.464  1.00  0.00    -0.409 C  
HETATM    2  N   UNL     1     -10.207  16.876  67.162  1.00  0.00    -0.291 NA 
HETATM    3  C   UNL     1      -8.841  16.778  66.633  1.00  0.00    -0.255 C  
HETATM    4  C   UNL     1      -8.422  15.363  66.967  1.00  0.00    -0.262 C  
HETATM    5  C   UNL     1      -9.020  15.150  68.341  1.00  0.00    -0.183 C  
HETATM    6  C   UNL     1     -10.304  15.991  68.348  1.00  0.00    -0.251 C  
ENDROOT
BRANCH   6   7
HETATM    7  C   UNL     1     -11.592  15.131  68.268  1.00  0.00    -0.357 C  
BRANCH   7   8
HETATM    8  C   UNL     1     -12.203  14.819  69.609  1.00  0.00    -0.310 A  
HETATM    9  C   UNL     1     -12.890  15.690  70.431  1.00  0.00    -0.206 A  
HETATM   10  N   UNL     1     -13.375  14.985  71.504  1.00  0.00    -0.382 NA 
HETATM   11  C   UNL     1     -13.035  13.657  71.390  1.00  0.00    -0.347 A  
HETATM   12  H   UNL     1     -13.910  15.388  72.274  1.00  0.00     0.000 HD 
HETATM   13  C   UNL     1     -12.241  13.544  70.254  1.00  0.00    -0.417 A  
HETATM   14  C   UNL     1     -11.721  12.280  69.923  1.00  0.00    -0.346 A  
HETATM   15  C   UNL     1     -12.075  11.139  70.656  1.00  0.00    -0.477 A  
HETATM   16  C   UNL     1     -12.909  11.293  71.772  1.00  0.00    -0.466 A  
HETATM   17  C   UNL     1     -13.376  12.553  72.178  1.00  0.00    -0.540 A  
BRANCH  15  18
HETATM   18  C   UNL     1     -11.684   9.753  70.179  1.00  0.00    -0.190 C  
BRANCH  18  19
HETATM   19  C   UNL     1     -11.902   8.653  71.210  1.00  0.00    -0.295 C  
BRANCH  19  20
HETATM   20  S   UNL     1     -10.390   8.178  72.017  1.00  0.00    -0.280 S  
HETATM   21  O   UNL     1     -10.723   7.565  73.286  1.00  0.00    -0.375 OA 
HETATM   22  O   UNL     1      -9.454   9.278  71.933  1.00  0.00    -0.291 OA 
BRANCH  20  23
HETATM   23  C   UNL     1      -9.805   6.884  70.938  1.00  0.00    -0.185 A  
HETATM   24  C   UNL     1      -8.638   7.089  70.195  1.00  0.00    -0.140 A  
HETATM   25  C   UNL     1      -8.202   6.096  69.320  1.00  0.00    -0.116 A  
HETATM   26  C   UNL     1      -8.924   4.908  69.195  1.00  0.00    -0.132 A  
HETATM   27  C   UNL     1     -10.079   4.702  69.951  1.00  0.00    -0.257 A  
HETATM   28  C   UNL     1     -10.524   5.690  70.831  1.00  0.00    -0.323 A  
ENDBRANCH  20  23
ENDBRANCH  19  20
ENDBRANCH  18  19
ENDBRANCH  15  18
ENDBRANCH   7   8
ENDBRANCH   6   7
TORSDOF 6
ENDMDL
MODEL       91
REMARK 921   NORMALIZED FREE ENERGY PREDICTED BY IDOCK:   -5.45 KCAL/MOL
REMARK 922        TOTAL FREE ENERGY PREDICTED BY IDOCK:   -8.94 KCAL/MOL
REMARK 923 INTER-LIGAND FREE ENERGY PREDICTED BY IDOCK:   -8.00 KCAL/MOL
REMARK 924 INTRA-LIGAND FREE ENERGY PREDICTED BY IDOCK:   -0.93 KCAL/MOL
REMARK 927      BINDING AFFINITY PREDICTED BY RF-SCORE:    0.00 PKD
ROOT
HETATM    1  C   UNL     1     -12.208  13.794  70.360  1.00  0.00    -0.363 C  
HETATM    2  N   UNL     1     -11.927  14.928  69.484  1.00  0.00    -0.309 NA 
HETATM    3  C   UNL     1     -11.274  16.012  70.226  1.00  0.00    -0.389 C  
HETATM    4  C   UNL     1     -10.508  16.770  69.164  1.00  0.00    -0.343 C  
HETATM    5  C   UNL     1      -9.987  15.665  68.270  1.00  0.00    -0.213 C  
HETATM    6  C   UNL     1     -11.056  14.565  68.340  1.00  0.00    -0.256 C  
ENDROOT
BRANCH   6   7
HETATM    7  C   UNL     1     -11.897  14.455  67.042  1.00  0.00    -0.437 C  
BRANCH   7   8
HETATM    8  C   UNL     1     -11.227  13.672  65.943  1.00  0.00    -0.311 A  
HETATM    9  C   UNL     1     -10.812  14.153  64.716  1.00  0.00    -0.413 A  
HETATM   10  N   UNL     1     -10.152  13.147  64.056  1.00  0.00    -0.768 NA 
HETATM   11  C   UNL     1     -10.107  12.017  64.838  1.00  0.00    -0.260 A  
HETATM   12  H   UNL     1      -9.753  13.226  63.120  1.00  0.00     0.000 HD 
HETATM   13  C   UNL     1     -10.835  12.299  65.989  1.00  0.00    -0.310 A  
HETATM   14  C   UNL     1     -10.980  11.287  66.955  1.00  0.00    -0.352 A  
HETATM   15  C   UNL     1     -10.322  10.057  66.817  1.00  0.00    -0.283 A  
HETATM   16  C   UNL     1      -9.567   9.828  65.658  1.00  0.00    -0.329 A  
HETATM   17  C   UNL     1      -9.472  10.787  64.636  1.00  0.00    -0.297 A  
BRANCH  15  18
HETATM   18  C   UNL     1     -10.309   9.048  67.950  1.00  0.00    -0.290 C  
BRANCH  18  19
HETATM   19  C   UNL     1      -9.593   9.529  69.206  1.00  0.00    -0.175 C  
BRANCH  19  20
HETATM   20  S   UNL     1     -10.112   8.641  70.657  1.00  0.00    -0.209 S  
HETATM   21  O   UNL     1     -11.559   8.594  70.670  1.00  0.00    -0.271 OA 
HETATM   22  O   UNL     1      -9.363   9.132  71.793  1.00  0.00    -0.328 OA 
BRANCH  20  23
HETATM   23  C   UNL     1      -9.529   6.996  70.292  1.00  0.00    -0.165 A  
HETATM   24  C   UNL     1      -8.159   6.782  70.107  1.00  0.00    -0.128 A  
HETATM   25  C   UNL     1      -7.706   5.505  69.780  1.00  0.00    -0.078 A  
HETATM   26  C   UNL     1      -8.614   4.453  69.647  1.00  0.00    -0.101 A  
HETATM   27  C   UNL     1      -9.978   4.670  69.849  1.00  0.00    -0.296 A  
HETATM   28  C   UNL     1     -10.443   5.944  70.177  1.00  0.00    -0.329 A  
ENDBRANCH  20  23
ENDBRANCH  19  20
ENDBRANCH  18  19
ENDBRANCH  15  18
ENDBRANCH   7   8
ENDBRANCH   6   7
TORSDOF 6
ENDMDL
MODEL       92
REMARK 921   NORMALIZED FREE ENERGY PREDICTED BY IDOCK:   -5.44 KCAL/MOL
REMARK 922        TOTAL FREE ENERGY PREDICTED BY IDOCK:   -8.92 KCAL/MOL
REMARK 923 INTER-LIGAND FREE ENERGY PREDICTED BY IDOCK:   -7.34 KCAL/MOL
REMARK 924 INTRA-LIGAND FREE ENERGY PREDICTED BY IDOCK:   -1.59 KCAL/MOL
REMARK 927      BINDING AFFINITY PREDICTED BY RF-SCORE:    0.00 PKD
ROOT
HETATM    1  C   UNL     1     -10.573  12.963  64.052  1.00  0.00    -0.389 C  
HETATM    2  N   UNL     1     -10.301  11.567  64.384  1.00  0.00    -0.287 NA 
HETATM    3  C   UNL     1      -9.827  10.832  63.205  1.00  0.00    -0.334 C  
HETATM    4  C   UNL     1      -9.023   9.691  63.787  1.00  0.00    -0.251 C  
HETATM    5  C   UNL     1      -8.315  10.339  64.958  1.00  0.00    -0.169 C  
HETATM    6  C   UNL     1      -9.285  11.420  65.454  1.00  0.00    -0.151 C  
ENDROOT
BRANCH   6   7
HETATM    7  C   UNL     1      -9.971  11.049  66.795  1.00  0.00    -0.240 C  
BRANCH   7   8
HETATM    8  C   UNL     1     -10.567  12.226  67.523  1.00  0.00    -0.242 A  
HETATM    9  C   UNL     1     -11.890  12.397  67.881  1.00  0.00    -0.308 A  
HETATM   10  N   UNL     1     -11.994  13.547  68.623  1.00  0.00    -0.358 NA 
HETATM   11  C   UNL     1     -10.756  14.125  68.777  1.00  0.00    -0.256 A  
HETATM   12  H   UNL     1     -12.864  13.919  69.004  1.00  0.00     0.000 HD 
HETATM   13  C   UNL     1      -9.862  13.357  68.037  1.00  0.00    -0.229 A  
HETATM   14  C   UNL     1      -8.514  13.755  67.993  1.00  0.00    -0.176 A  
HETATM   15  C   UNL     1      -8.054  14.837  68.758  1.00  0.00    -0.158 A  
HETATM   16  C   UNL     1      -8.983  15.560  69.520  1.00  0.00    -0.244 A  
HETATM   17  C   UNL     1     -10.351  15.239  69.518  1.00  0.00    -0.267 A  
BRANCH  15  18
HETATM   18  C   UNL     1      -6.572  15.137  68.873  1.00  0.00    -0.104 C  
BRANCH  18  19
HETATM   19  C   UNL     1      -6.250  16.603  69.131  1.00  0.00    -0.184 C  
BRANCH  19  20
HETATM   20  S   UNL     1      -6.228  17.560  67.632  1.00  0.00    -0.156 S  
HETATM   21  O   UNL     1      -6.010  16.660  66.518  1.00  0.00    -0.313 OA 
HETATM   22  O   UNL     1      -5.393  18.723  67.836  1.00  0.00    -0.177 OA 
BRANCH  20  23
HETATM   23  C   UNL     1      -7.920  18.116  67.544  1.00  0.00    -0.227 A  
HETATM   24  C   UNL     1      -8.749  17.626  66.528  1.00  0.00    -0.289 A  
HETATM   25  C   UNL     1     -10.059  18.091  66.433  1.00  0.00    -0.384 A  
HETATM   26  C   UNL     1     -10.537  19.031  67.347  1.00  0.00    -0.559 A  
HETATM   27  C   UNL     1      -9.710  19.505  68.368  1.00  0.00    -0.498 A  
HETATM   28  C   UNL     1      -8.396  19.046  68.474  1.00  0.00    -0.387 A  
ENDBRANCH  20  23
ENDBRANCH  19  20
ENDBRANCH  18  19
ENDBRANCH  15  18
ENDBRANCH   7   8
ENDBRANCH   6   7
TORSDOF 6
ENDMDL
MODEL       93
REMARK 921   NORMALIZED FREE ENERGY PREDICTED BY IDOCK:   -5.43 KCAL/MOL
REMARK 922        TOTAL FREE ENERGY PREDICTED BY IDOCK:   -8.91 KCAL/MOL
REMARK 923 INTER-LIGAND FREE ENERGY PREDICTED BY IDOCK:   -7.46 KCAL/MOL
REMARK 924 INTRA-LIGAND FREE ENERGY PREDICTED BY IDOCK:   -1.45 KCAL/MOL
REMARK 927      BINDING AFFINITY PREDICTED BY RF-SCORE:    0.00 PKD
ROOT
HETATM    1  C   UNL     1      -9.563   9.352  70.544  1.00  0.00    -0.271 C  
HETATM    2  N   UNL     1     -10.747   8.525  70.756  1.00  0.00    -0.211 NA 
HETATM    3  C   UNL     1     -10.370   7.163  71.154  1.00  0.00    -0.202 C  
HETATM    4  C   UNL     1     -11.574   6.660  71.918  1.00  0.00    -0.344 C  
HETATM    5  C   UNL     1     -12.015   7.882  72.695  1.00  0.00    -0.299 C  
HETATM    6  C   UNL     1     -11.649   9.073  71.797  1.00  0.00    -0.374 C  
ENDROOT
BRANCH   6   7
HETATM    7  C   UNL     1     -12.886   9.736  71.137  1.00  0.00    -0.434 C  
BRANCH   7   8
HETATM    8  C   UNL     1     -12.829  11.241  71.104  1.00  0.00    -0.452 A  
HETATM    9  C   UNL     1     -13.290  12.110  72.074  1.00  0.00    -0.365 A  
HETATM   10  N   UNL     1     -12.948  13.388  71.710  1.00  0.00    -0.355 NA 
HETATM   11  C   UNL     1     -12.249  13.373  70.525  1.00  0.00    -0.352 A  
HETATM   12  H   UNL     1     -13.179  14.228  72.241  1.00  0.00     0.000 HD 
HETATM   13  C   UNL     1     -12.228  12.051  70.093  1.00  0.00    -0.309 A  
HETATM   14  C   UNL     1     -11.599  11.757  68.869  1.00  0.00    -0.370 A  
HETATM   15  C   UNL     1     -10.918  12.749  68.150  1.00  0.00    -0.273 A  
HETATM   16  C   UNL     1     -10.933  14.062  68.642  1.00  0.00    -0.281 A  
HETATM   17  C   UNL     1     -11.624  14.403  69.817  1.00  0.00    -0.352 A  
BRANCH  15  18
HETATM   18  C   UNL     1     -10.068  12.394  66.945  1.00  0.00    -0.230 C  
BRANCH  18  19
HETATM   19  C   UNL     1      -9.080  11.260  67.189  1.00  0.00    -0.157 C  
BRANCH  19  20
HETATM   20  S   UNL     1      -9.039  10.101  65.841  1.00  0.00    -0.166 S  
HETATM   21  O   UNL     1      -7.721  10.144  65.242  1.00  0.00    -0.135 OA 
HETATM   22  O   UNL     1     -10.234  10.274  65.045  1.00  0.00    -0.320 OA 
BRANCH  20  23
HETATM   23  C   UNL     1      -9.181   8.548  66.705  1.00  0.00    -0.177 A  
HETATM   24  C   UNL     1      -8.029   7.941  67.214  1.00  0.00    -0.118 A  
HETATM   25  C   UNL     1      -8.132   6.707  67.853  1.00  0.00    -0.113 A  
HETATM   26  C   UNL     1      -9.378   6.090  67.986  1.00  0.00    -0.114 A  
HETATM   27  C   UNL     1     -10.527   6.709  67.490  1.00  0.00    -0.299 A  
HETATM   28  C   UNL     1     -10.435   7.945  66.849  1.00  0.00    -0.388 A  
ENDBRANCH  20  23
ENDBRANCH  19  20
ENDBRANCH  18  19
ENDBRANCH  15  18
ENDBRANCH   7   8
ENDBRANCH   6   7
TORSDOF 6
ENDMDL
MODEL       94
REMARK 921   NORMALIZED FREE ENERGY PREDICTED BY IDOCK:   -5.43 KCAL/MOL
REMARK 922        TOTAL FREE ENERGY PREDICTED BY IDOCK:   -8.90 KCAL/MOL
REMARK 923 INTER-LIGAND FREE ENERGY PREDICTED BY IDOCK:   -6.68 KCAL/MOL
REMARK 924 INTRA-LIGAND FREE ENERGY PREDICTED BY IDOCK:   -2.22 KCAL/MOL
REMARK 927      BINDING AFFINITY PREDICTED BY RF-SCORE:    0.00 PKD
ROOT
HETATM    1  C   UNL     1     -14.208   8.479  71.919  1.00  0.00    -0.455 C  
HETATM    2  N   UNL     1     -12.796   8.108  71.908  1.00  0.00    -0.329 NA 
HETATM    3  C   UNL     1     -12.636   6.654  72.026  1.00  0.00    -0.206 C  
HETATM    4  C   UNL     1     -11.293   6.382  71.386  1.00  0.00    -0.354 C  
HETATM    5  C   UNL     1     -11.281   7.335  70.209  1.00  0.00    -0.287 C  
HETATM    6  C   UNL     1     -12.098   8.548  70.676  1.00  0.00     0.035 C  
ENDROOT
BRANCH   6   7
HETATM    7  C   UNL     1     -11.219   9.791  70.974  1.00  0.00    -0.451 C  
BRANCH   7   8
HETATM    8  C   UNL     1     -11.710  11.057  70.322  1.00  0.00    -0.445 A  
HETATM    9  C   UNL     1     -12.310  12.133  70.945  1.00  0.00    -0.273 A  
HETATM   10  N   UNL     1     -12.504  13.122  70.014  1.00  0.00    -0.147 NA 
HETATM   11  C   UNL     1     -12.020  12.722  68.790  1.00  0.00    -0.240 A  
HETATM   12  H   UNL     1     -12.942  14.024  70.202  1.00  0.00     0.000 HD 
HETATM   13  C   UNL     1     -11.587  11.409  68.942  1.00  0.00    -0.388 A  
HETATM   14  C   UNL     1     -11.074  10.738  67.818  1.00  0.00    -0.381 A  
HETATM   15  C   UNL     1     -10.902  11.404  66.596  1.00  0.00    -0.339 A  
HETATM   16  C   UNL     1     -11.317  12.739  66.497  1.00  0.00    -0.369 A  
HETATM   17  C   UNL     1     -11.911  13.411  67.578  1.00  0.00    -0.408 A  
BRANCH  15  18
HETATM   18  C   UNL     1     -10.161  10.746  65.447  1.00  0.00    -0.347 C  
BRANCH  18  19
HETATM   19  C   UNL     1      -9.767   9.297  65.707  1.00  0.00    -0.269 C  
BRANCH  19  20
HETATM   20  S   UNL     1      -8.008   9.100  65.880  1.00  0.00    -0.108 S  
HETATM   21  O   UNL     1      -7.354  10.177  65.165  1.00  0.00    -0.134 OA 
HETATM   22  O   UNL     1      -7.670   7.715  65.631  1.00  0.00    -0.089 OA 
BRANCH  20  23
HETATM   23  C   UNL     1      -7.788   9.407  67.623  1.00  0.00    -0.095 A  
HETATM   24  C   UNL     1      -7.276  10.640  68.040  1.00  0.00    -0.087 A  
HETATM   25  C   UNL     1      -7.065  10.867  69.399  1.00  0.00    -0.131 A  
HETATM   26  C   UNL     1      -7.368   9.872  70.330  1.00  0.00    -0.166 A  
HETATM   27  C   UNL     1      -7.894   8.649  69.909  1.00  0.00    -0.093 A  
HETATM   28  C   UNL     1      -8.110   8.412  68.550  1.00  0.00    -0.123 A  
ENDBRANCH  20  23
ENDBRANCH  19  20
ENDBRANCH  18  19
ENDBRANCH  15  18
ENDBRANCH   7   8
ENDBRANCH   6   7
TORSDOF 6
ENDMDL
MODEL       95
REMARK 921   NORMALIZED FREE ENERGY PREDICTED BY IDOCK:   -5.40 KCAL/MOL
REMARK 922        TOTAL FREE ENERGY PREDICTED BY IDOCK:   -8.87 KCAL/MOL
REMARK 923 INTER-LIGAND FREE ENERGY PREDICTED BY IDOCK:   -8.41 KCAL/MOL
REMARK 924 INTRA-LIGAND FREE ENERGY PREDICTED BY IDOCK:   -0.46 KCAL/MOL
REMARK 927      BINDING AFFINITY PREDICTED BY RF-SCORE:    0.00 PKD
ROOT
HETATM    1  C   UNL     1      -9.112   6.029  70.150  1.00  0.00    -0.147 C  
HETATM    2  N   UNL     1     -10.049   6.703  71.044  1.00  0.00    -0.187 NA 
HETATM    3  C   UNL     1      -9.753   6.387  72.446  1.00  0.00    -0.153 C  
HETATM    4  C   UNL     1     -10.315   7.564  73.211  1.00  0.00    -0.412 C  
HETATM    5  C   UNL     1      -9.974   8.740  72.320  1.00  0.00    -0.302 C  
HETATM    6  C   UNL     1     -10.024   8.178  70.892  1.00  0.00    -0.187 C  
ENDROOT
BRANCH   6   7
HETATM    7  C   UNL     1     -11.269   8.653  70.098  1.00  0.00    -0.152 C  
BRANCH   7   8
HETATM    8  C   UNL     1     -12.221   9.500  70.902  1.00  0.00    -0.332 A  
HETATM    9  C   UNL     1     -13.067   9.071  71.905  1.00  0.00    -0.400 A  
HETATM   10  N   UNL     1     -13.682  10.168  72.455  1.00  0.00    -0.534 NA 
HETATM   11  C   UNL     1     -13.236  11.316  71.843  1.00  0.00    -0.386 A  
HETATM   12  H   UNL     1     -14.369  10.137  73.208  1.00  0.00     0.000 HD 
HETATM   13  C   UNL     1     -12.380  10.917  70.821  1.00  0.00    -0.487 A  
HETATM   14  C   UNL     1     -11.807  11.907  70.003  1.00  0.00    -0.407 A  
HETATM   15  C   UNL     1     -12.004  13.269  70.270  1.00  0.00    -0.372 A  
HETATM   16  C   UNL     1     -12.845  13.627  71.333  1.00  0.00    -0.442 A  
HETATM   17  C   UNL     1     -13.500  12.662  72.115  1.00  0.00    -0.561 A  
BRANCH  15  18
HETATM   18  C   UNL     1     -11.224  14.332  69.521  1.00  0.00    -0.286 C  
BRANCH  18  19
HETATM   19  C   UNL     1     -11.237  14.165  68.006  1.00  0.00    -0.281 C  
BRANCH  19  20
HETATM   20  S   UNL     1      -9.614  14.328  67.298  1.00  0.00    -0.239 S  
HETATM   21  O   UNL     1      -9.672  13.889  65.918  1.00  0.00    -0.280 OA 
HETATM   22  O   UNL     1      -8.647  13.779  68.223  1.00  0.00    -0.166 OA 
BRANCH  20  23
HETATM   23  C   UNL     1      -9.409  16.099  67.285  1.00  0.00    -0.213 A  
HETATM   24  C   UNL     1     -10.171  16.869  66.400  1.00  0.00    -0.326 A  
HETATM   25  C   UNL     1      -9.983  18.249  66.360  1.00  0.00    -0.385 A  
HETATM   26  C   UNL     1      -9.046  18.852  67.200  1.00  0.00    -0.305 A  
HETATM   27  C   UNL     1      -8.300  18.081  68.093  1.00  0.00    -0.273 A  
HETATM   28  C   UNL     1      -8.481  16.697  68.143  1.00  0.00    -0.198 A  
ENDBRANCH  20  23
ENDBRANCH  19  20
ENDBRANCH  18  19
ENDBRANCH  15  18
ENDBRANCH   7   8
ENDBRANCH   6   7
TORSDOF 6
ENDMDL
MODEL       96
REMARK 921   NORMALIZED FREE ENERGY PREDICTED BY IDOCK:   -5.40 KCAL/MOL
REMARK 922        TOTAL FREE ENERGY PREDICTED BY IDOCK:   -8.87 KCAL/MOL
REMARK 923 INTER-LIGAND FREE ENERGY PREDICTED BY IDOCK:   -7.91 KCAL/MOL
REMARK 924 INTRA-LIGAND FREE ENERGY PREDICTED BY IDOCK:   -0.95 KCAL/MOL
REMARK 927      BINDING AFFINITY PREDICTED BY RF-SCORE:    0.00 PKD
ROOT
HETATM    1  C   UNL     1     -10.512   5.428  71.851  1.00  0.00    -0.224 C  
HETATM    2  N   UNL     1     -10.427   6.839  71.481  1.00  0.00    -0.212 NA 
HETATM    3  C   UNL     1      -9.654   7.594  72.475  1.00  0.00    -0.176 C  
HETATM    4  C   UNL     1      -9.127   8.781  71.699  1.00  0.00    -0.314 C  
HETATM    5  C   UNL     1      -8.779   8.178  70.355  1.00  0.00    -0.136 C  
HETATM    6  C   UNL     1      -9.797   7.046  70.155  1.00  0.00    -0.175 C  
ENDROOT
BRANCH   6   7
HETATM    7  C   UNL     1     -10.879   7.384  69.097  1.00  0.00    -0.129 C  
BRANCH   7   8
HETATM    8  C   UNL     1     -10.328   7.984  67.830  1.00  0.00    -0.294 A  
HETATM    9  C   UNL     1      -9.685   7.316  66.806  1.00  0.00    -0.198 A  
HETATM   10  N   UNL     1      -9.441   8.207  65.791  1.00  0.00    -0.432 NA 
HETATM   11  C   UNL     1      -9.933   9.448  66.121  1.00  0.00    -0.281 A  
HETATM   12  H   UNL     1      -8.964   7.981  64.918  1.00  0.00     0.000 HD 
HETATM   13  C   UNL     1     -10.425   9.349  67.419  1.00  0.00    -0.343 A  
HETATM   14  C   UNL     1     -10.959  10.502  68.022  1.00  0.00    -0.345 A  
HETATM   15  C   UNL     1     -11.093  11.698  67.303  1.00  0.00    -0.346 A  
HETATM   16  C   UNL     1     -10.619  11.742  65.984  1.00  0.00    -0.302 A  
HETATM   17  C   UNL     1     -10.003  10.633  65.382  1.00  0.00    -0.343 A  
BRANCH  15  18
HETATM   18  C   UNL     1     -11.854  12.875  67.882  1.00  0.00    -0.388 C  
BRANCH  18  19
HETATM   19  C   UNL     1     -11.431  14.228  67.324  1.00  0.00    -0.352 C  
BRANCH  19  20
HETATM   20  S   UNL     1     -10.173  15.001  68.317  1.00  0.00    -0.225 S  
HETATM   21  O   UNL     1      -8.882  14.501  67.889  1.00  0.00    -0.164 OA 
HETATM   22  O   UNL     1     -10.580  14.948  69.704  1.00  0.00    -0.240 OA 
BRANCH  20  23
HETATM   23  C   UNL     1     -10.291  16.697  67.780  1.00  0.00    -0.306 A  
HETATM   24  C   UNL     1     -10.472  16.973  66.420  1.00  0.00    -0.252 A  
HETATM   25  C   UNL     1     -10.523  18.298  65.994  1.00  0.00    -0.380 A  
HETATM   26  C   UNL     1     -10.401  19.336  66.919  1.00  0.00    -0.524 A  
HETATM   27  C   UNL     1     -10.237  19.055  68.277  1.00  0.00    -0.460 A  
HETATM   28  C   UNL     1     -10.185  17.731  68.715  1.00  0.00    -0.373 A  
ENDBRANCH  20  23
ENDBRANCH  19  20
ENDBRANCH  18  19
ENDBRANCH  15  18
ENDBRANCH   7   8
ENDBRANCH   6   7
TORSDOF 6
ENDMDL
MODEL       97
REMARK 921   NORMALIZED FREE ENERGY PREDICTED BY IDOCK:   -5.39 KCAL/MOL
REMARK 922        TOTAL FREE ENERGY PREDICTED BY IDOCK:   -8.85 KCAL/MOL
REMARK 923 INTER-LIGAND FREE ENERGY PREDICTED BY IDOCK:   -7.50 KCAL/MOL
REMARK 924 INTRA-LIGAND FREE ENERGY PREDICTED BY IDOCK:   -1.35 KCAL/MOL
REMARK 927      BINDING AFFINITY PREDICTED BY RF-SCORE:    0.00 PKD
ROOT
HETATM    1  C   UNL     1     -10.784  10.990  64.574  1.00  0.00    -0.264 C  
HETATM    2  N   UNL     1     -10.980  12.401  64.896  1.00  0.00    -0.292 NA 
HETATM    3  C   UNL     1     -11.378  13.158  63.704  1.00  0.00    -0.257 C  
HETATM    4  C   UNL     1     -12.127  14.348  64.262  1.00  0.00    -0.461 C  
HETATM    5  C   UNL     1     -12.902  13.748  65.416  1.00  0.00    -0.455 C  
HETATM    6  C   UNL     1     -12.012  12.612  65.940  1.00  0.00    -0.438 C  
ENDROOT
BRANCH   6   7
HETATM    7  C   UNL     1     -11.338  12.946  67.296  1.00  0.00    -0.356 C  
BRANCH   7   8
HETATM    8  C   UNL     1      -9.852  13.170  67.202  1.00  0.00    -0.235 A  
HETATM    9  C   UNL     1      -9.210  14.340  66.847  1.00  0.00    -0.254 A  
HETATM   10  N   UNL     1      -7.857  14.155  66.992  1.00  0.00    -0.358 NA 
HETATM   11  C   UNL     1      -7.600  12.887  67.457  1.00  0.00    -0.164 A  
HETATM   12  H   UNL     1      -7.147  14.857  66.784  1.00  0.00     0.000 HD 
HETATM   13  C   UNL     1      -8.825  12.231  67.525  1.00  0.00    -0.182 A  
HETATM   14  C   UNL     1      -8.842  10.888  67.942  1.00  0.00    -0.134 A  
HETATM   15  C   UNL     1      -7.672  10.251  68.380  1.00  0.00    -0.093 A  
HETATM   16  C   UNL     1      -6.465  10.963  68.330  1.00  0.00    -0.057 A  
HETATM   17  C   UNL     1      -6.401  12.277  67.840  1.00  0.00    -0.088 A  
BRANCH  15  18
HETATM   18  C   UNL     1      -7.725   8.878  69.022  1.00  0.00    -0.090 C  
BRANCH  18  19
HETATM   19  C   UNL     1      -8.557   8.816  70.297  1.00  0.00    -0.152 C  
BRANCH  19  20
HETATM   20  S   UNL     1     -10.026   7.834  70.095  1.00  0.00    -0.188 S  
HETATM   21  O   UNL     1      -9.939   6.695  70.986  1.00  0.00    -0.183 OA 
HETATM   22  O   UNL     1     -10.281   7.668  68.681  1.00  0.00    -0.190 OA 
BRANCH  20  23
HETATM   23  C   UNL     1     -11.274   8.927  70.748  1.00  0.00    -0.272 A  
HETATM   24  C   UNL     1     -12.217   8.425  71.652  1.00  0.00    -0.358 A  
HETATM   25  C   UNL     1     -13.218   9.268  72.131  1.00  0.00    -0.535 A  
HETATM   26  C   UNL     1     -13.271  10.599  71.715  1.00  0.00    -0.526 A  
HETATM   27  C   UNL     1     -12.318  11.098  70.826  1.00  0.00    -0.504 A  
HETATM   28  C   UNL     1     -11.310  10.264  70.340  1.00  0.00    -0.410 A  
ENDBRANCH  20  23
ENDBRANCH  19  20
ENDBRANCH  18  19
ENDBRANCH  15  18
ENDBRANCH   7   8
ENDBRANCH   6   7
TORSDOF 6
ENDMDL
MODEL       98
REMARK 921   NORMALIZED FREE ENERGY PREDICTED BY IDOCK:   -5.36 KCAL/MOL
REMARK 922        TOTAL FREE ENERGY PREDICTED BY IDOCK:   -8.82 KCAL/MOL
REMARK 923 INTER-LIGAND FREE ENERGY PREDICTED BY IDOCK:   -7.56 KCAL/MOL
REMARK 924 INTRA-LIGAND FREE ENERGY PREDICTED BY IDOCK:   -1.25 KCAL/MOL
REMARK 927      BINDING AFFINITY PREDICTED BY RF-SCORE:    0.00 PKD
ROOT
HETATM    1  C   UNL     1      -8.766   6.992  66.337  1.00  0.00    -0.142 C  
HETATM    2  N   UNL     1      -7.728   7.977  66.627  1.00  0.00    -0.093 NA 
HETATM    3  C   UNL     1      -6.465   7.316  66.981  1.00  0.00    -0.055 C  
HETATM    4  C   UNL     1      -5.409   8.341  66.632  1.00  0.00    -0.032 C  
HETATM    5  C   UNL     1      -5.938   8.949  65.350  1.00  0.00    -0.052 C  
HETATM    6  C   UNL     1      -7.466   8.886  65.486  1.00  0.00    -0.086 C  
ENDROOT
BRANCH   6   7
HETATM    7  C   UNL     1      -8.108  10.273  65.750  1.00  0.00    -0.149 C  
BRANCH   7   8
HETATM    8  C   UNL     1      -9.061  10.721  64.673  1.00  0.00    -0.223 A  
HETATM    9  C   UNL     1      -9.325  10.078  63.480  1.00  0.00    -0.256 A  
HETATM   10  N   UNL     1     -10.330  10.755  62.835  1.00  0.00    -0.754 NA 
HETATM   11  C   UNL     1     -10.747  11.822  63.596  1.00  0.00    -0.440 A  
HETATM   12  H   UNL     1     -10.713  10.502  61.923  1.00  0.00     0.000 HD 
HETATM   13  C   UNL     1      -9.918  11.863  64.712  1.00  0.00    -0.262 A  
HETATM   14  C   UNL     1     -10.107  12.896  65.649  1.00  0.00    -0.282 A  
HETATM   15  C   UNL     1     -11.169  13.802  65.521  1.00  0.00    -0.303 A  
HETATM   16  C   UNL     1     -12.004  13.701  64.399  1.00  0.00    -0.476 A  
HETATM   17  C   UNL     1     -11.789  12.734  63.403  1.00  0.00    -0.591 A  
BRANCH  15  18
HETATM   18  C   UNL     1     -11.497  14.781  66.632  1.00  0.00    -0.339 C  
BRANCH  18  19
HETATM   19  C   UNL     1     -12.399  14.212  67.719  1.00  0.00    -0.015 C  
BRANCH  19  20
HETATM   20  S   UNL     1     -11.630  14.254  69.323  1.00  0.00    -0.326 S  
HETATM   21  O   UNL     1     -12.490  14.996  70.222  1.00  0.00    -0.332 OA 
HETATM   22  O   UNL     1     -10.235  14.599  69.158  1.00  0.00    -0.231 OA 
BRANCH  20  23
HETATM   23  C   UNL     1     -11.714  12.538  69.800  1.00  0.00    -0.285 A  
HETATM   24  C   UNL     1     -11.013  11.586  69.053  1.00  0.00    -0.285 A  
HETATM   25  C   UNL     1     -11.110  10.240  69.399  1.00  0.00    -0.299 A  
HETATM   26  C   UNL     1     -11.896   9.852  70.486  1.00  0.00    -0.350 A  
HETATM   27  C   UNL     1     -12.581  10.808  71.238  1.00  0.00    -0.532 A  
HETATM   28  C   UNL     1     -12.490  12.160  70.900  1.00  0.00    -0.374 A  
ENDBRANCH  20  23
ENDBRANCH  19  20
ENDBRANCH  18  19
ENDBRANCH  15  18
ENDBRANCH   7   8
ENDBRANCH   6   7
TORSDOF 6
ENDMDL
MODEL       99
REMARK 921   NORMALIZED FREE ENERGY PREDICTED BY IDOCK:   -5.36 KCAL/MOL
REMARK 922        TOTAL FREE ENERGY PREDICTED BY IDOCK:   -8.81 KCAL/MOL
REMARK 923 INTER-LIGAND FREE ENERGY PREDICTED BY IDOCK:   -7.33 KCAL/MOL
REMARK 924 INTRA-LIGAND FREE ENERGY PREDICTED BY IDOCK:   -1.48 KCAL/MOL
REMARK 927      BINDING AFFINITY PREDICTED BY RF-SCORE:    0.00 PKD
ROOT
HETATM    1  C   UNL     1     -12.473  12.181  63.728  1.00  0.00    -0.514 C  
HETATM    2  N   UNL     1     -11.700  12.924  64.719  1.00  0.00    -0.329 NA 
HETATM    3  C   UNL     1     -12.443  14.101  65.186  1.00  0.00    -0.439 C  
HETATM    4  C   UNL     1     -11.870  14.371  66.559  1.00  0.00    -0.406 C  
HETATM    5  C   UNL     1     -11.671  12.980  67.122  1.00  0.00    -0.439 C  
HETATM    6  C   UNL     1     -11.347  12.104  65.903  1.00  0.00    -0.356 C  
ENDROOT
BRANCH   6   7
HETATM    7  C   UNL     1      -9.856  11.685  65.837  1.00  0.00    -0.262 C  
BRANCH   7   8
HETATM    8  C   UNL     1      -9.642  10.195  65.779  1.00  0.00    -0.288 A  
HETATM    9  C   UNL     1      -9.026   9.485  64.767  1.00  0.00    -0.218 A  
HETATM   10  N   UNL     1      -8.938   8.170  65.150  1.00  0.00    -0.391 NA 
HETATM   11  C   UNL     1      -9.467   8.007  66.409  1.00  0.00    -0.201 A  
HETATM   12  H   UNL     1      -8.537   7.422  64.583  1.00  0.00     0.000 HD 
HETATM   13  C   UNL     1      -9.978   9.243  66.789  1.00  0.00    -0.312 A  
HETATM   14  C   UNL     1     -10.618   9.348  68.037  1.00  0.00    -0.278 A  
HETATM   15  C   UNL     1     -10.650   8.264  68.926  1.00  0.00    -0.160 A  
HETATM   16  C   UNL     1     -10.088   7.046  68.517  1.00  0.00    -0.171 A  
HETATM   17  C   UNL     1      -9.518   6.886  67.243  1.00  0.00    -0.161 A  
BRANCH  15  18
HETATM   18  C   UNL     1     -11.153   8.435  70.347  1.00  0.00    -0.240 C  
BRANCH  18  19
HETATM   19  C   UNL     1     -10.150   9.089  71.290  1.00  0.00    -0.314 C  
BRANCH  19  20
HETATM   20  S   UNL     1      -9.736   8.039  72.664  1.00  0.00    -0.285 S  
HETATM   21  O   UNL     1     -10.963   7.661  73.336  1.00  0.00    -0.371 OA 
HETATM   22  O   UNL     1      -8.634   8.634  73.387  1.00  0.00    -0.361 OA 
BRANCH  20  23
HETATM   23  C   UNL     1      -9.119   6.590  71.829  1.00  0.00    -0.142 A  
HETATM   24  C   UNL     1      -7.882   6.650  71.179  1.00  0.00    -0.102 A  
HETATM   25  C   UNL     1      -7.417   5.531  70.491  1.00  0.00    -0.080 A  
HETATM   26  C   UNL     1      -8.180   4.363  70.458  1.00  0.00    -0.071 A  
HETATM   27  C   UNL     1      -9.407   4.303  71.121  1.00  0.00    -0.218 A  
HETATM   28  C   UNL     1      -9.882   5.418  71.815  1.00  0.00    -0.223 A  
ENDBRANCH  20  23
ENDBRANCH  19  20
ENDBRANCH  18  19
ENDBRANCH  15  18
ENDBRANCH   7   8
ENDBRANCH   6   7
TORSDOF 6
ENDMDL
MODEL      100
REMARK 921   NORMALIZED FREE ENERGY PREDICTED BY IDOCK:   -5.35 KCAL/MOL
REMARK 922        TOTAL FREE ENERGY PREDICTED BY IDOCK:   -8.81 KCAL/MOL
REMARK 923 INTER-LIGAND FREE ENERGY PREDICTED BY IDOCK:   -7.22 KCAL/MOL
REMARK 924 INTRA-LIGAND FREE ENERGY PREDICTED BY IDOCK:   -1.58 KCAL/MOL
REMARK 927      BINDING AFFINITY PREDICTED BY RF-SCORE:    0.00 PKD
ROOT
HETATM    1  C   UNL     1      -9.535  10.882  63.593  1.00  0.00    -0.285 C  
HETATM    2  N   UNL     1      -9.696  10.348  64.943  1.00  0.00    -0.284 NA 
HETATM    3  C   UNL     1      -8.527   9.551  65.333  1.00  0.00    -0.148 C  
HETATM    4  C   UNL     1      -8.529   9.617  66.844  1.00  0.00    -0.121 C  
HETATM    5  C   UNL     1      -8.949  11.045  67.119  1.00  0.00    -0.145 C  
HETATM    6  C   UNL     1      -9.886  11.411  65.960  1.00  0.00    -0.223 C  
ENDROOT
BRANCH   6   7
HETATM    7  C   UNL     1     -11.376  11.482  66.385  1.00  0.00    -0.246 C  
BRANCH   7   8
HETATM    8  C   UNL     1     -11.655  12.491  67.468  1.00  0.00    -0.424 A  
HETATM    9  C   UNL     1     -11.820  13.853  67.310  1.00  0.00    -0.407 A  
HETATM   10  N   UNL     1     -12.165  14.393  68.524  1.00  0.00    -0.588 NA 
HETATM   11  C   UNL     1     -12.251  13.403  69.475  1.00  0.00    -0.205 A  
HETATM   12  H   UNL     1     -12.334  15.384  68.696  1.00  0.00     0.000 HD 
HETATM   13  C   UNL     1     -11.864  12.219  68.855  1.00  0.00    -0.355 A  
HETATM   14  C   UNL     1     -11.826  11.042  69.623  1.00  0.00    -0.414 A  
HETATM   15  C   UNL     1     -12.266  11.033  70.955  1.00  0.00    -0.471 A  
HETATM   16  C   UNL     1     -12.683  12.242  71.529  1.00  0.00    -0.339 A  
HETATM   17  C   UNL     1     -12.653  13.451  70.814  1.00  0.00    -0.369 A  
BRANCH  15  18
HETATM   18  C   UNL     1     -12.420   9.731  71.717  1.00  0.00    -0.485 C  
BRANCH  18  19
HETATM   19  C   UNL     1     -13.060   8.608  70.910  1.00  0.00     0.225 C  
BRANCH  19  20
HETATM   20  S   UNL     1     -12.118   7.102  70.990  1.00  0.00    -0.335 S  
HETATM   21  O   UNL     1     -12.107   6.500  69.672  1.00  0.00    -0.078 OA 
HETATM   22  O   UNL     1     -12.536   6.355  72.156  1.00  0.00    -0.291 OA 
BRANCH  20  23
HETATM   23  C   UNL     1     -10.478   7.727  71.304  1.00  0.00    -0.206 A  
HETATM   24  C   UNL     1     -10.010   7.788  72.621  1.00  0.00    -0.298 A  
HETATM   25  C   UNL     1      -8.745   8.315  72.872  1.00  0.00    -0.291 A  
HETATM   26  C   UNL     1      -7.954   8.770  71.815  1.00  0.00    -0.107 A  
HETATM   27  C   UNL     1      -8.420   8.692  70.501  1.00  0.00    -0.160 A  
HETATM   28  C   UNL     1      -9.685   8.165  70.238  1.00  0.00    -0.175 A  
ENDBRANCH  20  23
ENDBRANCH  19  20
ENDBRANCH  18  19
ENDBRANCH  15  18
ENDBRANCH   7   8
ENDBRANCH   6   7
TORSDOF 6
ENDMDL
MODEL      101
REMARK 921   NORMALIZED FREE ENERGY PREDICTED BY IDOCK:   -5.32 KCAL/MOL
REMARK 922        TOTAL FREE ENERGY PREDICTED BY IDOCK:   -8.77 KCAL/MOL
REMARK 923 INTER-LIGAND FREE ENERGY PREDICTED BY IDOCK:   -7.92 KCAL/MOL
REMARK 924 INTRA-LIGAND FREE ENERGY PREDICTED BY IDOCK:   -0.84 KCAL/MOL
REMARK 927      BINDING AFFINITY PREDICTED BY RF-SCORE:    0.00 PKD
ROOT
HETATM    1  C   UNL     1     -10.546  19.554  66.019  1.00  0.00    -0.491 C  
HETATM    2  N   UNL     1      -9.682  18.581  66.681  1.00  0.00    -0.325 NA 
HETATM    3  C   UNL     1      -9.333  19.028  68.035  1.00  0.00    -0.317 C  
HETATM    4  C   UNL     1      -9.023  17.744  68.772  1.00  0.00    -0.205 C  
HETATM    5  C   UNL     1     -10.063  16.785  68.233  1.00  0.00    -0.274 C  
HETATM    6  C   UNL     1     -10.305  17.240  66.786  1.00  0.00    -0.308 C  
ENDROOT
BRANCH   6   7
HETATM    7  C   UNL     1      -9.685  16.279  65.738  1.00  0.00    -0.299 C  
BRANCH   7   8
HETATM    8  C   UNL     1     -10.700  15.453  64.991  1.00  0.00    -0.460 A  
HETATM    9  C   UNL     1     -11.736  15.921  64.208  1.00  0.00    -0.132 A  
HETATM   10  N   UNL     1     -12.357  14.847  63.621  1.00  0.00    -1.053 NA 
HETATM   11  C   UNL     1     -11.731  13.679  63.988  1.00  0.00    -0.364 A  
HETATM   12  H   UNL     1     -13.165  14.906  63.001  1.00  0.00     0.000 HD 
HETATM   13  C   UNL     1     -10.740  14.028  64.901  1.00  0.00    -0.432 A  
HETATM   14  C   UNL     1      -9.964  13.003  65.471  1.00  0.00    -0.226 A  
HETATM   15  C   UNL     1     -10.107  11.671  65.055  1.00  0.00    -0.305 A  
HETATM   16  C   UNL     1     -11.092  11.370  64.104  1.00  0.00    -0.382 A  
HETATM   17  C   UNL     1     -11.941  12.358  63.580  1.00  0.00    -0.627 A  
BRANCH  15  18
HETATM   18  C   UNL     1      -9.134  10.602  65.514  1.00  0.00    -0.214 C  
BRANCH  18  19
HETATM   19  C   UNL     1      -8.554  10.840  66.902  1.00  0.00    -0.132 C  
BRANCH  19  20
HETATM   20  S   UNL     1      -7.654   9.429  67.506  1.00  0.00    -0.091 S  
HETATM   21  O   UNL     1      -7.379   9.631  68.914  1.00  0.00    -0.071 OA 
HETATM   22  O   UNL     1      -6.598   9.117  66.568  1.00  0.00    -0.066 OA 
BRANCH  20  23
HETATM   23  C   UNL     1      -8.886   8.146  67.383  1.00  0.00    -0.127 A  
HETATM   24  C   UNL     1      -8.776   7.187  66.370  1.00  0.00    -0.146 A  
HETATM   25  C   UNL     1      -9.760   6.208  66.247  1.00  0.00    -0.106 A  
HETATM   26  C   UNL     1     -10.840   6.186  67.132  1.00  0.00    -0.442 A  
HETATM   27  C   UNL     1     -10.936   7.136  68.150  1.00  0.00    -0.114 A  
HETATM   28  C   UNL     1      -9.956   8.120  68.283  1.00  0.00    -0.212 A  
ENDBRANCH  20  23
ENDBRANCH  19  20
ENDBRANCH  18  19
ENDBRANCH  15  18
ENDBRANCH   7   8
ENDBRANCH   6   7
TORSDOF 6
ENDMDL
MODEL      102
REMARK 921   NORMALIZED FREE ENERGY PREDICTED BY IDOCK:   -5.32 KCAL/MOL
REMARK 922        TOTAL FREE ENERGY PREDICTED BY IDOCK:   -8.76 KCAL/MOL
REMARK 923 INTER-LIGAND FREE ENERGY PREDICTED BY IDOCK:   -7.80 KCAL/MOL
REMARK 924 INTRA-LIGAND FREE ENERGY PREDICTED BY IDOCK:   -0.96 KCAL/MOL
REMARK 927      BINDING AFFINITY PREDICTED BY RF-SCORE:    0.00 PKD
ROOT
HETATM    1  C   UNL     1     -11.547  14.498  69.183  1.00  0.00    -0.298 C  
HETATM    2  N   UNL     1     -11.626  15.206  67.908  1.00  0.00    -0.334 NA 
HETATM    3  C   UNL     1     -10.901  16.481  67.973  1.00  0.00    -0.337 C  
HETATM    4  C   UNL     1     -10.532  16.762  66.534  1.00  0.00    -0.258 C  
HETATM    5  C   UNL     1     -10.172  15.391  66.003  1.00  0.00    -0.343 C  
HETATM    6  C   UNL     1     -11.071  14.419  66.781  1.00  0.00    -0.323 C  
ENDROOT
BRANCH   6   7
HETATM    7  C   UNL     1     -12.221  13.836  65.919  1.00  0.00    -0.501 C  
BRANCH   7   8
HETATM    8  C   UNL     1     -11.777  12.778  64.943  1.00  0.00    -0.394 A  
HETATM    9  C   UNL     1     -12.324  12.511  63.703  1.00  0.00    -0.522 A  
HETATM   10  N   UNL     1     -11.563  11.549  63.089  1.00  0.00    -0.882 NA 
HETATM   11  C   UNL     1     -10.508  11.193  63.897  1.00  0.00    -0.381 A  
HETATM   12  H   UNL     1     -11.751  11.155  62.167  1.00  0.00     0.000 HD 
HETATM   13  C   UNL     1     -10.665  11.893  65.089  1.00  0.00    -0.339 A  
HETATM   14  C   UNL     1      -9.730  11.682  66.118  1.00  0.00    -0.253 A  
HETATM   15  C   UNL     1      -8.606  10.868  65.917  1.00  0.00    -0.179 A  
HETATM   16  C   UNL     1      -8.468  10.210  64.687  1.00  0.00    -0.178 A  
HETATM   17  C   UNL     1      -9.429  10.333  63.670  1.00  0.00    -0.348 A  
BRANCH  15  18
HETATM   18  C   UNL     1      -7.495  10.805  66.947  1.00  0.00    -0.120 C  
BRANCH  18  19
HETATM   19  C   UNL     1      -7.196   9.401  67.459  1.00  0.00    -0.079 C  
BRANCH  19  20
HETATM   20  S   UNL     1      -7.829   9.134  69.099  1.00  0.00    -0.095 S  
HETATM   21  O   UNL     1      -8.504  10.341  69.530  1.00  0.00    -0.165 OA 
HETATM   22  O   UNL     1      -6.793   8.522  69.902  1.00  0.00    -0.042 OA 
BRANCH  20  23
HETATM   23  C   UNL     1      -9.083   7.902  68.798  1.00  0.00    -0.140 A  
HETATM   24  C   UNL     1      -9.899   8.019  67.668  1.00  0.00    -0.214 A  
HETATM   25  C   UNL     1     -10.906   7.081  67.453  1.00  0.00    -0.371 A  
HETATM   26  C   UNL     1     -11.091   6.033  68.357  1.00  0.00    -0.271 A  
HETATM   27  C   UNL     1     -10.263   5.912  69.475  1.00  0.00    -0.288 A  
HETATM   28  C   UNL     1      -9.250   6.846  69.699  1.00  0.00    -0.146 A  
ENDBRANCH  20  23
ENDBRANCH  19  20
ENDBRANCH  18  19
ENDBRANCH  15  18
ENDBRANCH   7   8
ENDBRANCH   6   7
TORSDOF 6
ENDMDL
MODEL      103
REMARK 921   NORMALIZED FREE ENERGY PREDICTED BY IDOCK:   -5.32 KCAL/MOL
REMARK 922        TOTAL FREE ENERGY PREDICTED BY IDOCK:   -8.76 KCAL/MOL
REMARK 923 INTER-LIGAND FREE ENERGY PREDICTED BY IDOCK:   -7.91 KCAL/MOL
REMARK 924 INTRA-LIGAND FREE ENERGY PREDICTED BY IDOCK:   -0.85 KCAL/MOL
REMARK 927      BINDING AFFINITY PREDICTED BY RF-SCORE:    0.00 PKD
ROOT
HETATM    1  C   UNL     1     -11.945   6.367  72.062  1.00  0.00    -0.326 C  
HETATM    2  N   UNL     1     -11.510   7.414  71.141  1.00  0.00    -0.271 NA 
HETATM    3  C   UNL     1     -11.013   8.583  71.876  1.00  0.00    -0.324 C  
HETATM    4  C   UNL     1     -10.066   9.249  70.903  1.00  0.00    -0.373 C  
HETATM    5  C   UNL     1      -9.380   8.072  70.241  1.00  0.00    -0.159 C  
HETATM    6  C   UNL     1     -10.437   6.959  70.224  1.00  0.00    -0.204 C  
ENDROOT
BRANCH   6   7
HETATM    7  C   UNL     1     -11.019   6.699  68.810  1.00  0.00    -0.322 C  
BRANCH   7   8
HETATM    8  C   UNL     1     -10.061   7.005  67.689  1.00  0.00    -0.218 A  
HETATM    9  C   UNL     1      -9.156   6.137  67.111  1.00  0.00    -0.114 A  
HETATM   10  N   UNL     1      -8.555   6.774  66.055  1.00  0.00    -0.142 NA 
HETATM   11  C   UNL     1      -9.066   8.043  65.914  1.00  0.00    -0.106 A  
HETATM   12  H   UNL     1      -7.833   6.366  65.460  1.00  0.00     0.000 HD 
HETATM   13  C   UNL     1      -9.954   8.234  66.968  1.00  0.00    -0.325 A  
HETATM   14  C   UNL     1     -10.598   9.479  67.084  1.00  0.00    -0.295 A  
HETATM   15  C   UNL     1     -10.435  10.471  66.107  1.00  0.00    -0.237 A  
HETATM   16  C   UNL     1      -9.559  10.222  65.041  1.00  0.00    -0.346 A  
HETATM   17  C   UNL     1      -8.836   9.022  64.942  1.00  0.00    -0.190 A  
BRANCH  15  18
HETATM   18  C   UNL     1     -11.284  11.727  66.122  1.00  0.00    -0.363 C  
BRANCH  18  19
HETATM   19  C   UNL     1     -10.704  12.883  65.316  1.00  0.00    -0.296 C  
BRANCH  19  20
HETATM   20  S   UNL     1     -11.651  14.376  65.504  1.00  0.00    -0.353 S  
HETATM   21  O   UNL     1     -13.058  14.036  65.438  1.00  0.00    -0.763 OA 
HETATM   22  O   UNL     1     -11.082  15.397  64.652  1.00  0.00    -0.399 OA 
BRANCH  20  23
HETATM   23  C   UNL     1     -11.288  14.814  67.194  1.00  0.00    -0.356 A  
HETATM   24  C   UNL     1     -10.206  15.658  67.464  1.00  0.00    -0.263 A  
HETATM   25  C   UNL     1      -9.895  15.968  68.786  1.00  0.00    -0.223 A  
HETATM   26  C   UNL     1     -10.663  15.444  69.827  1.00  0.00    -0.300 A  
HETATM   27  C   UNL     1     -11.752  14.615  69.551  1.00  0.00    -0.366 A  
HETATM   28  C   UNL     1     -12.073  14.299  68.230  1.00  0.00    -0.278 A  
ENDBRANCH  20  23
ENDBRANCH  19  20
ENDBRANCH  18  19
ENDBRANCH  15  18
ENDBRANCH   7   8
ENDBRANCH   6   7
TORSDOF 6
ENDMDL
MODEL      104
REMARK 921   NORMALIZED FREE ENERGY PREDICTED BY IDOCK:   -5.31 KCAL/MOL
REMARK 922        TOTAL FREE ENERGY PREDICTED BY IDOCK:   -8.75 KCAL/MOL
REMARK 923 INTER-LIGAND FREE ENERGY PREDICTED BY IDOCK:   -7.17 KCAL/MOL
REMARK 924 INTRA-LIGAND FREE ENERGY PREDICTED BY IDOCK:   -1.58 KCAL/MOL
REMARK 927      BINDING AFFINITY PREDICTED BY RF-SCORE:    0.00 PKD
ROOT
HETATM    1  C   UNL     1     -10.276  16.160  66.048  1.00  0.00    -0.356 C  
HETATM    2  N   UNL     1     -10.470  15.098  67.031  1.00  0.00    -0.276 NA 
HETATM    3  C   UNL     1     -10.136  15.567  68.381  1.00  0.00    -0.214 C  
HETATM    4  C   UNL     1     -10.945  14.668  69.289  1.00  0.00    -0.278 C  
HETATM    5  C   UNL     1     -12.250  14.516  68.538  1.00  0.00    -0.164 C  
HETATM    6  C   UNL     1     -11.861  14.586  67.054  1.00  0.00    -0.385 C  
ENDROOT
BRANCH   6   7
HETATM    7  C   UNL     1     -11.936  13.210  66.343  1.00  0.00    -0.462 C  
BRANCH   7   8
HETATM    8  C   UNL     1     -10.702  12.365  66.514  1.00  0.00    -0.265 A  
HETATM    9  C   UNL     1      -9.580  12.361  65.708  1.00  0.00    -0.156 A  
HETATM   10  N   UNL     1      -8.643  11.532  66.271  1.00  0.00    -0.278 NA 
HETATM   11  C   UNL     1      -9.122  11.006  67.448  1.00  0.00    -0.141 A  
HETATM   12  H   UNL     1      -7.724  11.334  65.874  1.00  0.00     0.000 HD 
HETATM   13  C   UNL     1     -10.432  11.454  67.581  1.00  0.00    -0.225 A  
HETATM   14  C   UNL     1     -11.176  11.027  68.696  1.00  0.00    -0.322 A  
HETATM   15  C   UNL     1     -10.585  10.255  69.706  1.00  0.00    -0.312 A  
HETATM   16  C   UNL     1      -9.250   9.856  69.549  1.00  0.00    -0.238 A  
HETATM   17  C   UNL     1      -8.506  10.195  68.407  1.00  0.00    -0.118 A  
BRANCH  15  18
HETATM   18  C   UNL     1     -11.321   9.970  71.001  1.00  0.00    -0.434 C  
BRANCH  18  19
HETATM   19  C   UNL     1     -10.627   8.958  71.904  1.00  0.00    -0.349 C  
BRANCH  19  20
HETATM   20  S   UNL     1     -11.411   7.362  71.852  1.00  0.00    -0.276 S  
HETATM   21  O   UNL     1     -12.780   7.540  71.411  1.00  0.00    -0.342 OA 
HETATM   22  O   UNL     1     -11.099   6.651  73.072  1.00  0.00    -0.255 OA 
BRANCH  20  23
HETATM   23  C   UNL     1     -10.522   6.575  70.522  1.00  0.00    -0.207 A  
HETATM   24  C   UNL     1     -11.206   6.230  69.351  1.00  0.00    -0.489 A  
HETATM   25  C   UNL     1     -10.522   5.578  68.327  1.00  0.00    -0.225 A  
HETATM   26  C   UNL     1      -9.166   5.279  68.471  1.00  0.00    -0.138 A  
HETATM   27  C   UNL     1      -8.485   5.640  69.635  1.00  0.00    -0.110 A  
HETATM   28  C   UNL     1      -9.160   6.295  70.666  1.00  0.00    -0.153 A  
ENDBRANCH  20  23
ENDBRANCH  19  20
ENDBRANCH  18  19
ENDBRANCH  15  18
ENDBRANCH   7   8
ENDBRANCH   6   7
TORSDOF 6
ENDMDL
MODEL      105
REMARK 921   NORMALIZED FREE ENERGY PREDICTED BY IDOCK:   -5.30 KCAL/MOL
REMARK 922        TOTAL FREE ENERGY PREDICTED BY IDOCK:   -8.74 KCAL/MOL
REMARK 923 INTER-LIGAND FREE ENERGY PREDICTED BY IDOCK:   -7.33 KCAL/MOL
REMARK 924 INTRA-LIGAND FREE ENERGY PREDICTED BY IDOCK:   -1.41 KCAL/MOL
REMARK 927      BINDING AFFINITY PREDICTED BY RF-SCORE:    0.00 PKD
ROOT
HETATM    1  C   UNL     1      -7.236   9.103  69.072  1.00  0.00    -0.072 C  
HETATM    2  N   UNL     1      -8.593   8.764  69.490  1.00  0.00    -0.128 NA 
HETATM    3  C   UNL     1      -8.721   8.823  70.951  1.00  0.00    -0.194 C  
HETATM    4  C   UNL     1     -10.193   9.085  71.178  1.00  0.00    -0.363 C  
HETATM    5  C   UNL     1     -10.538  10.054  70.067  1.00  0.00    -0.344 C  
HETATM    6  C   UNL     1      -9.614   9.666  68.904  1.00  0.00    -0.161 C  
ENDROOT
BRANCH   6   7
HETATM    7  C   UNL     1     -10.362   8.948  67.750  1.00  0.00    -0.301 C  
BRANCH   7   8
HETATM    8  C   UNL     1      -9.917   9.373  66.376  1.00  0.00    -0.346 A  
HETATM    9  C   UNL     1      -9.250   8.602  65.444  1.00  0.00    -0.035 A  
HETATM   10  N   UNL     1      -9.129   9.327  64.285  1.00  0.00    -0.429 NA 
HETATM   11  C   UNL     1      -9.725  10.558  64.432  1.00  0.00    -0.328 A  
HETATM   12  H   UNL     1      -8.664   9.001  63.438  1.00  0.00     0.000 HD 
HETATM   13  C   UNL     1     -10.158  10.636  65.752  1.00  0.00    -0.327 A  
HETATM   14  C   UNL     1     -10.779  11.822  66.184  1.00  0.00    -0.320 A  
HETATM   15  C   UNL     1     -11.052  12.863  65.286  1.00  0.00    -0.313 A  
HETATM   16  C   UNL     1     -10.632  12.727  63.956  1.00  0.00    -0.446 A  
HETATM   17  C   UNL     1      -9.934  11.591  63.513  1.00  0.00    -0.429 A  
BRANCH  15  18
HETATM   18  C   UNL     1     -11.902  14.049  65.702  1.00  0.00    -0.384 C  
BRANCH  18  19
HETATM   19  C   UNL     1     -11.544  14.626  67.066  1.00  0.00    -0.371 C  
BRANCH  19  20
HETATM   20  S   UNL     1     -10.545  16.091  66.936  1.00  0.00    -0.267 S  
HETATM   21  O   UNL     1     -11.139  17.123  67.761  1.00  0.00    -0.263 OA 
HETATM   22  O   UNL     1     -10.242  16.323  65.540  1.00  0.00    -0.456 OA 
BRANCH  20  23
HETATM   23  C   UNL     1      -9.042  15.567  67.738  1.00  0.00    -0.178 A  
HETATM   24  C   UNL     1      -8.548  14.281  67.492  1.00  0.00    -0.203 A  
HETATM   25  C   UNL     1      -7.396  13.855  68.151  1.00  0.00    -0.123 A  
HETATM   26  C   UNL     1      -6.742  14.709  69.041  1.00  0.00    -0.103 A  
HETATM   27  C   UNL     1      -7.230  15.996  69.270  1.00  0.00    -0.226 A  
HETATM   28  C   UNL     1      -8.383  16.434  68.615  1.00  0.00    -0.221 A  
ENDBRANCH  20  23
ENDBRANCH  19  20
ENDBRANCH  18  19
ENDBRANCH  15  18
ENDBRANCH   7   8
ENDBRANCH   6   7
TORSDOF 6
ENDMDL
MODEL      106
REMARK 921   NORMALIZED FREE ENERGY PREDICTED BY IDOCK:   -5.29 KCAL/MOL
REMARK 922        TOTAL FREE ENERGY PREDICTED BY IDOCK:   -8.72 KCAL/MOL
REMARK 923 INTER-LIGAND FREE ENERGY PREDICTED BY IDOCK:   -7.83 KCAL/MOL
REMARK 924 INTRA-LIGAND FREE ENERGY PREDICTED BY IDOCK:   -0.89 KCAL/MOL
REMARK 927      BINDING AFFINITY PREDICTED BY RF-SCORE:    0.00 PKD
ROOT
HETATM    1  C   UNL     1     -11.462  15.873  64.223  1.00  0.00    -0.191 C  
HETATM    2  N   UNL     1     -11.163  14.823  65.192  1.00  0.00    -0.364 NA 
HETATM    3  C   UNL     1     -10.521  15.382  66.388  1.00  0.00    -0.303 C  
HETATM    4  C   UNL     1     -10.849  14.386  67.477  1.00  0.00    -0.285 C  
HETATM    5  C   UNL     1     -12.274  13.990  67.155  1.00  0.00    -0.356 C  
HETATM    6  C   UNL     1     -12.373  14.083  65.625  1.00  0.00    -0.479 C  
ENDROOT
BRANCH   6   7
HETATM    7  C   UNL     1     -12.424  12.694  64.937  1.00  0.00    -0.564 C  
BRANCH   7   8
HETATM    8  C   UNL     1     -11.087  12.006  64.848  1.00  0.00    -0.368 A  
HETATM    9  C   UNL     1     -10.205  12.042  63.785  1.00  0.00    -0.422 A  
HETATM   10  N   UNL     1      -9.060  11.377  64.148  1.00  0.00    -0.404 NA 
HETATM   11  C   UNL     1      -9.166  10.923  65.442  1.00  0.00    -0.207 A  
HETATM   12  H   UNL     1      -8.248  11.241  63.545  1.00  0.00     0.000 HD 
HETATM   13  C   UNL     1     -10.450  11.240  65.872  1.00  0.00    -0.314 A  
HETATM   14  C   UNL     1     -10.839  10.849  67.166  1.00  0.00    -0.337 A  
HETATM   15  C   UNL     1      -9.926  10.248  68.044  1.00  0.00    -0.177 A  
HETATM   16  C   UNL     1      -8.629   9.981  67.581  1.00  0.00    -0.118 A  
HETATM   17  C   UNL     1      -8.236  10.282  66.267  1.00  0.00    -0.131 A  
BRANCH  15  18
HETATM   18  C   UNL     1     -10.281  10.017  69.500  1.00  0.00    -0.255 C  
BRANCH  18  19
HETATM   19  C   UNL     1      -9.148   9.431  70.334  1.00  0.00    -0.256 C  
BRANCH  19  20
HETATM   20  S   UNL     1      -9.742   8.627  71.805  1.00  0.00    -0.311 S  
HETATM   21  O   UNL     1     -11.120   9.021  72.016  1.00  0.00    -0.364 OA 
HETATM   22  O   UNL     1      -8.749   8.773  72.846  1.00  0.00    -0.379 OA 
BRANCH  20  23
HETATM   23  C   UNL     1      -9.748   6.918  71.296  1.00  0.00    -0.172 A  
HETATM   24  C   UNL     1      -9.281   6.583  70.021  1.00  0.00    -0.157 A  
HETATM   25  C   UNL     1      -9.324   5.253  69.606  1.00  0.00    -0.174 A  
HETATM   26  C   UNL     1      -9.824   4.269  70.461  1.00  0.00    -0.269 A  
HETATM   27  C   UNL     1     -10.274   4.607  71.739  1.00  0.00    -0.242 A  
HETATM   28  C   UNL     1     -10.235   5.936  72.165  1.00  0.00    -0.231 A  
ENDBRANCH  20  23
ENDBRANCH  19  20
ENDBRANCH  18  19
ENDBRANCH  15  18
ENDBRANCH   7   8
ENDBRANCH   6   7
TORSDOF 6
ENDMDL
MODEL      107
REMARK 921   NORMALIZED FREE ENERGY PREDICTED BY IDOCK:   -5.29 KCAL/MOL
REMARK 922        TOTAL FREE ENERGY PREDICTED BY IDOCK:   -8.72 KCAL/MOL
REMARK 923 INTER-LIGAND FREE ENERGY PREDICTED BY IDOCK:   -7.37 KCAL/MOL
REMARK 924 INTRA-LIGAND FREE ENERGY PREDICTED BY IDOCK:   -1.35 KCAL/MOL
REMARK 927      BINDING AFFINITY PREDICTED BY RF-SCORE:    0.00 PKD
ROOT
HETATM    1  C   UNL     1      -7.793  19.294  66.249  1.00  0.00    -0.299 C  
HETATM    2  N   UNL     1      -8.508  18.394  67.150  1.00  0.00    -0.250 NA 
HETATM    3  C   UNL     1      -8.937  19.102  68.363  1.00  0.00    -0.349 C  
HETATM    4  C   UNL     1     -10.127  18.304  68.847  1.00  0.00    -0.358 C  
HETATM    5  C   UNL     1     -10.831  17.932  67.559  1.00  0.00    -0.239 C  
HETATM    6  C   UNL     1      -9.707  17.789  66.523  1.00  0.00    -0.320 C  
ENDROOT
BRANCH   6   7
HETATM    7  C   UNL     1      -9.422  16.314  66.138  1.00  0.00    -0.373 C  
BRANCH   7   8
HETATM    8  C   UNL     1     -10.498  15.684  65.294  1.00  0.00    -0.439 A  
HETATM    9  C   UNL     1     -11.315  16.319  64.380  1.00  0.00    -0.129 A  
HETATM   10  N   UNL     1     -12.081  15.372  63.748  1.00  0.00    -0.965 NA 
HETATM   11  C   UNL     1     -11.766  14.118  64.217  1.00  0.00    -0.345 A  
HETATM   12  H   UNL     1     -12.782  15.569  63.033  1.00  0.00     0.000 HD 
HETATM   13  C   UNL     1     -10.834  14.296  65.234  1.00  0.00    -0.363 A  
HETATM   14  C   UNL     1     -10.365  13.160  65.919  1.00  0.00    -0.295 A  
HETATM   15  C   UNL     1     -10.742  11.870  65.521  1.00  0.00    -0.329 A  
HETATM   16  C   UNL     1     -11.655  11.735  64.465  1.00  0.00    -0.299 A  
HETATM   17  C   UNL     1     -12.206  12.853  63.818  1.00  0.00    -0.555 A  
BRANCH  15  18
HETATM   18  C   UNL     1     -10.079  10.644  66.120  1.00  0.00    -0.306 C  
BRANCH  18  19
HETATM   19  C   UNL     1      -9.372  10.902  67.445  1.00  0.00    -0.155 C  
BRANCH  19  20
HETATM   20  S   UNL     1      -7.604  10.778  67.298  1.00  0.00    -0.105 S  
HETATM   21  O   UNL     1      -7.243  11.013  65.915  1.00  0.00    -0.082 OA 
HETATM   22  O   UNL     1      -7.162   9.594  68.001  1.00  0.00    -0.079 OA 
BRANCH  20  23
HETATM   23  C   UNL     1      -7.071  12.198  68.236  1.00  0.00    -0.084 A  
HETATM   24  C   UNL     1      -7.311  13.480  67.731  1.00  0.00    -0.166 A  
HETATM   25  C   UNL     1      -6.859  14.589  68.443  1.00  0.00    -0.104 A  
HETATM   26  C   UNL     1      -6.179  14.417  69.650  1.00  0.00    -0.126 A  
HETATM   27  C   UNL     1      -5.956  13.136  70.157  1.00  0.00    -0.138 A  
HETATM   28  C   UNL     1      -6.406  12.017  69.453  1.00  0.00    -0.116 A  
ENDBRANCH  20  23
ENDBRANCH  19  20
ENDBRANCH  18  19
ENDBRANCH  15  18
ENDBRANCH   7   8
ENDBRANCH   6   7
TORSDOF 6
ENDMDL
MODEL      108
REMARK 921   NORMALIZED FREE ENERGY PREDICTED BY IDOCK:   -5.29 KCAL/MOL
REMARK 922        TOTAL FREE ENERGY PREDICTED BY IDOCK:   -8.72 KCAL/MOL
REMARK 923 INTER-LIGAND FREE ENERGY PREDICTED BY IDOCK:   -7.68 KCAL/MOL
REMARK 924 INTRA-LIGAND FREE ENERGY PREDICTED BY IDOCK:   -1.04 KCAL/MOL
REMARK 927      BINDING AFFINITY PREDICTED BY RF-SCORE:    0.00 PKD
ROOT
HETATM    1  C   UNL     1     -10.897  19.485  67.203  1.00  0.00    -0.437 C  
HETATM    2  N   UNL     1      -9.928  18.598  66.566  1.00  0.00    -0.359 NA 
HETATM    3  C   UNL     1      -8.668  19.303  66.303  1.00  0.00    -0.321 C  
HETATM    4  C   UNL     1      -7.635  18.199  66.265  1.00  0.00    -0.299 C  
HETATM    5  C   UNL     1      -8.092  17.270  67.370  1.00  0.00    -0.205 C  
HETATM    6  C   UNL     1      -9.622  17.401  67.386  1.00  0.00    -0.257 C  
ENDROOT
BRANCH   6   7
HETATM    7  C   UNL     1     -10.342  16.156  66.805  1.00  0.00    -0.291 C  
BRANCH   7   8
HETATM    8  C   UNL     1     -11.040  15.315  67.841  1.00  0.00    -0.321 A  
HETATM    9  C   UNL     1     -11.863  15.761  68.856  1.00  0.00    -0.341 A  
HETATM   10  N   UNL     1     -12.381  14.671  69.508  1.00  0.00    -0.532 NA 
HETATM   11  C   UNL     1     -11.928  13.511  68.924  1.00  0.00    -0.341 A  
HETATM   12  H   UNL     1     -13.011  14.714  70.309  1.00  0.00     0.000 HD 
HETATM   13  C   UNL     1     -11.032  13.889  67.930  1.00  0.00    -0.265 A  
HETATM   14  C   UNL     1     -10.386  12.880  67.192  1.00  0.00    -0.239 A  
HETATM   15  C   UNL     1     -10.710  11.529  67.377  1.00  0.00    -0.275 A  
HETATM   16  C   UNL     1     -11.647  11.195  68.365  1.00  0.00    -0.376 A  
HETATM   17  C   UNL     1     -12.247  12.173  69.176  1.00  0.00    -0.086 A  
BRANCH  15  18
HETATM   18  C   UNL     1     -10.170  10.462  66.444  1.00  0.00    -0.292 C  
BRANCH  18  19
HETATM   19  C   UNL     1     -10.503   9.037  66.866  1.00  0.00    -0.223 C  
BRANCH  19  20
HETATM   20  S   UNL     1      -9.240   8.328  67.899  1.00  0.00    -0.131 S  
HETATM   21  O   UNL     1      -8.218   9.330  68.122  1.00  0.00    -0.117 OA 
HETATM   22  O   UNL     1      -8.910   7.014  67.391  1.00  0.00    -0.119 OA 
BRANCH  20  23
HETATM   23  C   UNL     1     -10.120   8.112  69.434  1.00  0.00    -0.194 A  
HETATM   24  C   UNL     1      -9.976   9.068  70.445  1.00  0.00    -0.244 A  
HETATM   25  C   UNL     1     -10.629   8.880  71.661  1.00  0.00    -0.422 A  
HETATM   26  C   UNL     1     -11.424   7.750  71.861  1.00  0.00    -0.320 A  
HETATM   27  C   UNL     1     -11.577   6.806  70.843  1.00  0.00    -0.403 A  
HETATM   28  C   UNL     1     -10.927   6.985  69.621  1.00  0.00    -0.268 A  
ENDBRANCH  20  23
ENDBRANCH  19  20
ENDBRANCH  18  19
ENDBRANCH  15  18
ENDBRANCH   7   8
ENDBRANCH   6   7
TORSDOF 6
ENDMDL
MODEL      109
REMARK 921   NORMALIZED FREE ENERGY PREDICTED BY IDOCK:   -5.27 KCAL/MOL
REMARK 922        TOTAL FREE ENERGY PREDICTED BY IDOCK:   -8.69 KCAL/MOL
REMARK 923 INTER-LIGAND FREE ENERGY PREDICTED BY IDOCK:   -7.41 KCAL/MOL
REMARK 924 INTRA-LIGAND FREE ENERGY PREDICTED BY IDOCK:   -1.28 KCAL/MOL
REMARK 927      BINDING AFFINITY PREDICTED BY RF-SCORE:    0.00 PKD
ROOT
HETATM    1  C   UNL     1     -11.394   5.375  72.956  1.00  0.00    -0.293 C  
HETATM    2  N   UNL     1     -11.158   6.532  72.097  1.00  0.00    -0.248 NA 
HETATM    3  C   UNL     1     -12.349   6.839  71.296  1.00  0.00    -0.344 C  
HETATM    4  C   UNL     1     -12.208   8.313  70.985  1.00  0.00    -0.189 C  
HETATM    5  C   UNL     1     -11.653   8.878  72.275  1.00  0.00    -0.332 C  
HETATM    6  C   UNL     1     -10.794   7.749  72.862  1.00  0.00    -0.392 C  
ENDROOT
BRANCH   6   7
HETATM    7  C   UNL     1      -9.272   8.020  72.741  1.00  0.00    -0.318 C  
BRANCH   7   8
HETATM    8  C   UNL     1      -8.684   7.623  71.413  1.00  0.00    -0.132 A  
HETATM    9  C   UNL     1      -8.252   6.365  71.040  1.00  0.00    -0.122 A  
HETATM   10  N   UNL     1      -7.889   6.405  69.717  1.00  0.00    -0.112 NA 
HETATM   11  C   UNL     1      -8.096   7.665  69.206  1.00  0.00    -0.128 A  
HETATM   12  H   UNL     1      -7.520   5.614  69.188  1.00  0.00     0.000 HD 
HETATM   13  C   UNL     1      -8.521   8.459  70.266  1.00  0.00    -0.126 A  
HETATM   14  C   UNL     1      -8.772   9.822  70.023  1.00  0.00    -0.237 A  
HETATM   15  C   UNL     1      -8.698  10.350  68.727  1.00  0.00    -0.146 A  
HETATM   16  C   UNL     1      -8.302   9.504  67.681  1.00  0.00    -0.125 A  
HETATM   17  C   UNL     1      -7.963   8.160  67.905  1.00  0.00    -0.127 A  
BRANCH  15  18
HETATM   18  C   UNL     1      -9.167  11.762  68.432  1.00  0.00    -0.175 C  
BRANCH  18  19
HETATM   19  C   UNL     1      -9.900  11.913  67.105  1.00  0.00    -0.194 C  
BRANCH  19  20
HETATM   20  S   UNL     1     -11.661  12.038  67.319  1.00  0.00    -0.195 S  
HETATM   21  O   UNL     1     -12.113  10.881  68.065  1.00  0.00    -0.563 OA 
HETATM   22  O   UNL     1     -12.258  12.398  66.052  1.00  0.00    -0.636 OA 
BRANCH  20  23
HETATM   23  C   UNL     1     -11.786  13.450  68.400  1.00  0.00    -0.366 A  
HETATM   24  C   UNL     1     -11.503  14.724  67.897  1.00  0.00    -0.361 A  
HETATM   25  C   UNL     1     -11.560  15.824  68.750  1.00  0.00    -0.401 A  
HETATM   26  C   UNL     1     -11.903  15.651  70.092  1.00  0.00    -0.381 A  
HETATM   27  C   UNL     1     -12.200  14.380  70.586  1.00  0.00    -0.414 A  
HETATM   28  C   UNL     1     -12.147  13.271  69.739  1.00  0.00    -0.355 A  
ENDBRANCH  20  23
ENDBRANCH  19  20
ENDBRANCH  18  19
ENDBRANCH  15  18
ENDBRANCH   7   8
ENDBRANCH   6   7
TORSDOF 6
ENDMDL
MODEL      110
REMARK 921   NORMALIZED FREE ENERGY PREDICTED BY IDOCK:   -5.25 KCAL/MOL
REMARK 922        TOTAL FREE ENERGY PREDICTED BY IDOCK:   -8.67 KCAL/MOL
REMARK 923 INTER-LIGAND FREE ENERGY PREDICTED BY IDOCK:   -7.73 KCAL/MOL
REMARK 924 INTRA-LIGAND FREE ENERGY PREDICTED BY IDOCK:   -0.94 KCAL/MOL
REMARK 927      BINDING AFFINITY PREDICTED BY RF-SCORE:    0.00 PKD
ROOT
HETATM    1  C   UNL     1     -10.327   6.536  73.898  1.00  0.00    -0.335 C  
HETATM    2  N   UNL     1     -10.595   6.843  72.496  1.00  0.00    -0.213 NA 
HETATM    3  C   UNL     1     -11.765   6.101  72.012  1.00  0.00    -0.299 C  
HETATM    4  C   UNL     1     -12.280   6.941  70.865  1.00  0.00    -0.404 C  
HETATM    5  C   UNL     1     -12.086   8.355  71.369  1.00  0.00    -0.337 C  
HETATM    6  C   UNL     1     -10.840   8.287  72.263  1.00  0.00    -0.338 C  
ENDROOT
BRANCH   6   7
HETATM    7  C   UNL     1      -9.593   8.943  71.615  1.00  0.00    -0.363 C  
BRANCH   7   8
HETATM    8  C   UNL     1      -9.256   8.400  70.251  1.00  0.00    -0.154 A  
HETATM    9  C   UNL     1      -8.614   7.211  69.967  1.00  0.00    -0.141 A  
HETATM   10  N   UNL     1      -8.600   7.039  68.605  1.00  0.00    -0.121 NA 
HETATM   11  C   UNL     1      -9.243   8.087  67.989  1.00  0.00    -0.135 A  
HETATM   12  H   UNL     1      -8.175   6.248  68.121  1.00  0.00     0.000 HD 
HETATM   13  C   UNL     1      -9.595   8.984  68.992  1.00  0.00    -0.160 A  
HETATM   14  C   UNL     1     -10.241  10.179  68.626  1.00  0.00    -0.193 A  
HETATM   15  C   UNL     1     -10.619  10.418  67.297  1.00  0.00    -0.322 A  
HETATM   16  C   UNL     1     -10.278   9.469  66.324  1.00  0.00    -0.290 A  
HETATM   17  C   UNL     1      -9.558   8.306  66.644  1.00  0.00    -0.299 A  
BRANCH  15  18
HETATM   18  C   UNL     1     -11.495  11.603  66.937  1.00  0.00    -0.320 C  
BRANCH  18  19
HETATM   19  C   UNL     1     -11.067  12.333  65.670  1.00  0.00    -0.317 C  
BRANCH  19  20
HETATM   20  S   UNL     1     -11.584  14.035  65.668  1.00  0.00    -0.342 S  
HETATM   21  O   UNL     1     -13.027  14.073  65.546  1.00  0.00    -0.681 OA 
HETATM   22  O   UNL     1     -10.731  14.778  64.767  1.00  0.00    -0.407 OA 
BRANCH  20  23
HETATM   23  C   UNL     1     -11.178  14.530  67.332  1.00  0.00    -0.327 A  
HETATM   24  C   UNL     1     -12.203  14.676  68.272  1.00  0.00    -0.112 A  
HETATM   25  C   UNL     1     -11.892  15.103  69.562  1.00  0.00    -0.358 A  
HETATM   26  C   UNL     1     -10.568  15.375  69.908  1.00  0.00    -0.315 A  
HETATM   27  C   UNL     1      -9.546  15.212  68.971  1.00  0.00    -0.229 A  
HETATM   28  C   UNL     1      -9.846  14.784  67.676  1.00  0.00    -0.218 A  
ENDBRANCH  20  23
ENDBRANCH  19  20
ENDBRANCH  18  19
ENDBRANCH  15  18
ENDBRANCH   7   8
ENDBRANCH   6   7
TORSDOF 6
ENDMDL
MODEL      111
REMARK 921   NORMALIZED FREE ENERGY PREDICTED BY IDOCK:   -5.25 KCAL/MOL
REMARK 922        TOTAL FREE ENERGY PREDICTED BY IDOCK:   -8.67 KCAL/MOL
REMARK 923 INTER-LIGAND FREE ENERGY PREDICTED BY IDOCK:   -8.06 KCAL/MOL
REMARK 924 INTRA-LIGAND FREE ENERGY PREDICTED BY IDOCK:   -0.61 KCAL/MOL
REMARK 927      BINDING AFFINITY PREDICTED BY RF-SCORE:    0.00 PKD
ROOT
HETATM    1  C   UNL     1     -10.088   8.614  70.363  1.00  0.00    -0.188 C  
HETATM    2  N   UNL     1      -9.604   7.379  69.751  1.00  0.00    -0.163 NA 
HETATM    3  C   UNL     1      -8.551   6.768  70.570  1.00  0.00    -0.142 C  
HETATM    4  C   UNL     1      -8.611   5.301  70.206  1.00  0.00    -0.126 C  
HETATM    5  C   UNL     1     -10.098   5.048  70.071  1.00  0.00    -0.342 C  
HETATM    6  C   UNL     1     -10.679   6.375  69.563  1.00  0.00    -0.289 C  
ENDROOT
BRANCH   6   7
HETATM    7  C   UNL     1     -11.102   6.319  68.072  1.00  0.00    -0.365 C  
BRANCH   7   8
HETATM    8  C   UNL     1      -9.970   6.555  67.106  1.00  0.00    -0.203 A  
HETATM    9  C   UNL     1      -9.085   5.613  66.619  1.00  0.00    -0.129 A  
HETATM   10  N   UNL     1      -8.281   6.215  65.684  1.00  0.00    -0.135 NA 
HETATM   11  C   UNL     1      -8.637   7.535  65.532  1.00  0.00    -0.083 A  
HETATM   12  H   UNL     1      -7.528   5.751  65.176  1.00  0.00     0.000 HD 
HETATM   13  C   UNL     1      -9.640   7.787  66.463  1.00  0.00    -0.270 A  
HETATM   14  C   UNL     1     -10.164   9.089  66.545  1.00  0.00    -0.318 A  
HETATM   15  C   UNL     1      -9.766  10.088  65.645  1.00  0.00    -0.336 A  
HETATM   16  C   UNL     1      -8.779   9.779  64.698  1.00  0.00    -0.218 A  
HETATM   17  C   UNL     1      -8.175   8.512  64.645  1.00  0.00    -0.162 A  
BRANCH  15  18
HETATM   18  C   UNL     1     -10.478  11.426  65.599  1.00  0.00    -0.316 C  
BRANCH  18  19
HETATM   19  C   UNL     1     -10.962  11.829  64.212  1.00  0.00    -0.359 C  
BRANCH  19  20
HETATM   20  S   UNL     1     -12.208  13.097  64.277  1.00  0.00    -0.388 S  
HETATM   21  O   UNL     1     -13.372  12.559  64.950  1.00  0.00    -0.702 OA 
HETATM   22  O   UNL     1     -12.309  13.714  62.972  1.00  0.00    -0.672 OA 
BRANCH  20  23
HETATM   23  C   UNL     1     -11.453  14.278  65.379  1.00  0.00    -0.332 A  
HETATM   24  C   UNL     1     -11.602  14.115  66.761  1.00  0.00    -0.409 A  
HETATM   25  C   UNL     1     -11.049  15.060  67.623  1.00  0.00    -0.317 A  
HETATM   26  C   UNL     1     -10.348  16.152  67.108  1.00  0.00    -0.291 A  
HETATM   27  C   UNL     1     -10.190  16.301  65.728  1.00  0.00    -0.390 A  
HETATM   28  C   UNL     1     -10.739  15.360  64.856  1.00  0.00    -0.416 A  
ENDBRANCH  20  23
ENDBRANCH  19  20
ENDBRANCH  18  19
ENDBRANCH  15  18
ENDBRANCH   7   8
ENDBRANCH   6   7
TORSDOF 6
ENDMDL
MODEL      112
REMARK 921   NORMALIZED FREE ENERGY PREDICTED BY IDOCK:   -5.23 KCAL/MOL
REMARK 922        TOTAL FREE ENERGY PREDICTED BY IDOCK:   -8.64 KCAL/MOL
REMARK 923 INTER-LIGAND FREE ENERGY PREDICTED BY IDOCK:   -7.29 KCAL/MOL
REMARK 924 INTRA-LIGAND FREE ENERGY PREDICTED BY IDOCK:   -1.34 KCAL/MOL
REMARK 927      BINDING AFFINITY PREDICTED BY RF-SCORE:    0.00 PKD
ROOT
HETATM    1  C   UNL     1     -11.193   5.488  73.156  1.00  0.00    -0.267 C  
HETATM    2  N   UNL     1     -10.750   6.534  72.239  1.00  0.00    -0.216 NA 
HETATM    3  C   UNL     1     -11.569   7.743  72.389  1.00  0.00    -0.356 C  
HETATM    4  C   UNL     1     -10.665   8.857  71.911  1.00  0.00    -0.426 C  
HETATM    5  C   UNL     1      -9.311   8.448  72.451  1.00  0.00    -0.356 C  
HETATM    6  C   UNL     1      -9.331   6.913  72.444  1.00  0.00    -0.136 C  
ENDROOT
BRANCH   6   7
HETATM    7  C   UNL     1      -8.448   6.300  71.327  1.00  0.00    -0.124 C  
BRANCH   7   8
HETATM    8  C   UNL     1      -9.193   6.005  70.051  1.00  0.00    -0.160 A  
HETATM    9  C   UNL     1      -9.821   4.823  69.712  1.00  0.00    -0.218 A  
HETATM   10  N   UNL     1     -10.472   5.004  68.517  1.00  0.00    -0.027 NA 
HETATM   11  C   UNL     1     -10.300   6.295  68.075  1.00  0.00    -0.192 A  
HETATM   12  H   UNL     1     -11.007   4.285  68.028  1.00  0.00     0.000 HD 
HETATM   13  C   UNL     1      -9.444   6.915  68.979  1.00  0.00    -0.137 A  
HETATM   14  C   UNL     1      -9.069   8.249  68.738  1.00  0.00    -0.144 A  
HETATM   15  C   UNL     1      -9.622   8.975  67.674  1.00  0.00    -0.183 A  
HETATM   16  C   UNL     1     -10.511   8.321  66.809  1.00  0.00    -0.313 A  
HETATM   17  C   UNL     1     -10.840   6.966  66.973  1.00  0.00    -0.436 A  
BRANCH  15  18
HETATM   18  C   UNL     1      -9.379  10.466  67.537  1.00  0.00    -0.163 C  
BRANCH  18  19
HETATM   19  C   UNL     1      -9.773  11.278  68.765  1.00  0.00    -0.174 C  
BRANCH  19  20
HETATM   20  S   UNL     1     -11.366  12.048  68.579  1.00  0.00    -0.299 S  
HETATM   21  O   UNL     1     -11.471  13.120  69.548  1.00  0.00    -0.264 OA 
HETATM   22  O   UNL     1     -12.373  11.014  68.487  1.00  0.00    -0.536 OA 
BRANCH  20  23
HETATM   23  C   UNL     1     -11.210  12.799  66.969  1.00  0.00    -0.292 A  
HETATM   24  C   UNL     1     -10.301  13.848  66.789  1.00  0.00    -0.272 A  
HETATM   25  C   UNL     1     -10.208  14.463  65.543  1.00  0.00    -0.386 A  
HETATM   26  C   UNL     1     -11.010  14.030  64.486  1.00  0.00    -0.361 A  
HETATM   27  C   UNL     1     -11.904  12.973  64.667  1.00  0.00    -0.422 A  
HETATM   28  C   UNL     1     -12.005  12.348  65.912  1.00  0.00    -0.434 A  
ENDBRANCH  20  23
ENDBRANCH  19  20
ENDBRANCH  18  19
ENDBRANCH  15  18
ENDBRANCH   7   8
ENDBRANCH   6   7
TORSDOF 6
ENDMDL
MODEL      113
REMARK 921   NORMALIZED FREE ENERGY PREDICTED BY IDOCK:   -5.21 KCAL/MOL
REMARK 922        TOTAL FREE ENERGY PREDICTED BY IDOCK:   -8.61 KCAL/MOL
REMARK 923 INTER-LIGAND FREE ENERGY PREDICTED BY IDOCK:   -7.50 KCAL/MOL
REMARK 924 INTRA-LIGAND FREE ENERGY PREDICTED BY IDOCK:   -1.11 KCAL/MOL
REMARK 927      BINDING AFFINITY PREDICTED BY RF-SCORE:    0.00 PKD
ROOT
HETATM    1  C   UNL     1     -12.208  14.973  64.409  1.00  0.00    -0.337 C  
HETATM    2  N   UNL     1     -11.765  13.946  65.347  1.00  0.00    -0.328 NA 
HETATM    3  C   UNL     1     -12.513  12.698  65.149  1.00  0.00    -0.463 C  
HETATM    4  C   UNL     1     -11.582  11.629  65.674  1.00  0.00    -0.087 C  
HETATM    5  C   UNL     1     -10.222  12.107  65.211  1.00  0.00    -0.304 C  
HETATM    6  C   UNL     1     -10.320  13.639  65.220  1.00  0.00    -0.348 C  
ENDROOT
BRANCH   6   7
HETATM    7  C   UNL     1      -9.531  14.289  66.386  1.00  0.00    -0.297 C  
BRANCH   7   8
HETATM    8  C   UNL     1     -10.400  14.773  67.517  1.00  0.00    -0.238 A  
HETATM    9  C   UNL     1     -10.899  16.049  67.694  1.00  0.00    -0.311 A  
HETATM   10  N   UNL     1     -11.731  16.044  68.785  1.00  0.00    -0.365 NA 
HETATM   11  C   UNL     1     -11.806  14.778  69.317  1.00  0.00    -0.318 A  
HETATM   12  H   UNL     1     -12.223  16.860  69.148  1.00  0.00     0.000 HD 
HETATM   13  C   UNL     1     -10.926  13.985  68.587  1.00  0.00    -0.281 A  
HETATM   14  C   UNL     1     -10.780  12.635  68.953  1.00  0.00    -0.201 A  
HETATM   15  C   UNL     1     -11.575  12.069  69.960  1.00  0.00    -0.275 A  
HETATM   16  C   UNL     1     -12.476  12.896  70.645  1.00  0.00    -0.333 A  
HETATM   17  C   UNL     1     -12.585  14.267  70.360  1.00  0.00    -0.405 A  
BRANCH  15  18
HETATM   18  C   UNL     1     -11.565  10.573  70.212  1.00  0.00    -0.417 C  
BRANCH  18  19
HETATM   19  C   UNL     1     -10.229   9.900  69.923  1.00  0.00    -0.257 C  
BRANCH  19  20
HETATM   20  S   UNL     1     -10.100   8.303  70.695  1.00  0.00    -0.194 S  
HETATM   21  O   UNL     1     -11.286   8.088  71.500  1.00  0.00    -0.245 OA 
HETATM   22  O   UNL     1      -8.774   8.164  71.255  1.00  0.00    -0.128 OA 
BRANCH  20  23
HETATM   23  C   UNL     1     -10.211   7.218  69.284  1.00  0.00    -0.193 A  
HETATM   24  C   UNL     1     -10.423   5.851  69.488  1.00  0.00    -0.346 A  
HETATM   25  C   UNL     1     -10.469   4.996  68.388  1.00  0.00    -0.016 A  
HETATM   26  C   UNL     1     -10.309   5.506  67.098  1.00  0.00    -0.301 A  
HETATM   27  C   UNL     1     -10.114   6.874  66.900  1.00  0.00    -0.286 A  
HETATM   28  C   UNL     1     -10.068   7.739  67.994  1.00  0.00    -0.227 A  
ENDBRANCH  20  23
ENDBRANCH  19  20
ENDBRANCH  18  19
ENDBRANCH  15  18
ENDBRANCH   7   8
ENDBRANCH   6   7
TORSDOF 6
ENDMDL
MODEL      114
REMARK 921   NORMALIZED FREE ENERGY PREDICTED BY IDOCK:   -5.20 KCAL/MOL
REMARK 922        TOTAL FREE ENERGY PREDICTED BY IDOCK:   -8.61 KCAL/MOL
REMARK 923 INTER-LIGAND FREE ENERGY PREDICTED BY IDOCK:   -8.40 KCAL/MOL
REMARK 924 INTRA-LIGAND FREE ENERGY PREDICTED BY IDOCK:   -0.20 KCAL/MOL
REMARK 927      BINDING AFFINITY PREDICTED BY RF-SCORE:    0.00 PKD
ROOT
HETATM    1  C   UNL     1     -10.936  15.902  64.931  1.00  0.00    -0.411 C  
HETATM    2  N   UNL     1     -10.192  15.966  66.186  1.00  0.00    -0.304 NA 
HETATM    3  C   UNL     1      -9.324  17.149  66.220  1.00  0.00    -0.234 C  
HETATM    4  C   UNL     1      -9.143  17.425  67.696  1.00  0.00    -0.234 C  
HETATM    5  C   UNL     1     -10.514  17.129  68.266  1.00  0.00    -0.373 C  
HETATM    6  C   UNL     1     -11.078  16.013  67.375  1.00  0.00    -0.167 C  
ENDROOT
BRANCH   6   7
HETATM    7  C   UNL     1     -11.101  14.630  68.078  1.00  0.00    -0.291 C  
BRANCH   7   8
HETATM    8  C   UNL     1     -11.911  14.604  69.347  1.00  0.00    -0.351 A  
HETATM    9  C   UNL     1     -12.640  15.645  69.888  1.00  0.00    -0.073 A  
HETATM   10  N   UNL     1     -13.317  15.177  70.987  1.00  0.00    -0.551 NA 
HETATM   11  C   UNL     1     -13.063  13.838  71.165  1.00  0.00    -0.253 A  
HETATM   12  H   UNL     1     -13.922  15.742  71.584  1.00  0.00     0.000 HD 
HETATM   13  C   UNL     1     -12.130  13.477  70.197  1.00  0.00    -0.425 A  
HETATM   14  C   UNL     1     -11.662  12.151  70.180  1.00  0.00    -0.301 A  
HETATM   15  C   UNL     1     -12.196  11.184  71.045  1.00  0.00    -0.438 A  
HETATM   16  C   UNL     1     -13.162  11.584  71.979  1.00  0.00    -0.443 A  
HETATM   17  C   UNL     1     -13.588  12.918  72.078  1.00  0.00    -0.499 A  
BRANCH  15  18
HETATM   18  C   UNL     1     -11.845   9.717  70.887  1.00  0.00    -0.420 C  
BRANCH  18  19
HETATM   19  C   UNL     1     -12.406   8.820  71.982  1.00  0.00    -0.377 C  
BRANCH  19  20
HETATM   20  S   UNL     1     -12.419   7.106  71.507  1.00  0.00    -0.393 S  
HETATM   21  O   UNL     1     -11.907   7.004  70.155  1.00  0.00    -0.241 OA 
HETATM   22  O   UNL     1     -13.694   6.531  71.876  1.00  0.00    -0.105 OA 
BRANCH  20  23
HETATM   23  C   UNL     1     -11.181   6.428  72.597  1.00  0.00    -0.255 A  
HETATM   24  C   UNL     1     -10.833   5.078  72.480  1.00  0.00    -0.257 A  
HETATM   25  C   UNL     1      -9.897   4.536  73.359  1.00  0.00    -0.162 A  
HETATM   26  C   UNL     1      -9.311   5.339  74.339  1.00  0.00    -0.134 A  
HETATM   27  C   UNL     1      -9.650   6.689  74.441  1.00  0.00    -0.304 A  
HETATM   28  C   UNL     1     -10.587   7.242  73.565  1.00  0.00    -0.408 A  
ENDBRANCH  20  23
ENDBRANCH  19  20
ENDBRANCH  18  19
ENDBRANCH  15  18
ENDBRANCH   7   8
ENDBRANCH   6   7
TORSDOF 6
ENDMDL
MODEL      115
REMARK 921   NORMALIZED FREE ENERGY PREDICTED BY IDOCK:   -5.19 KCAL/MOL
REMARK 922        TOTAL FREE ENERGY PREDICTED BY IDOCK:   -8.59 KCAL/MOL
REMARK 923 INTER-LIGAND FREE ENERGY PREDICTED BY IDOCK:   -7.07 KCAL/MOL
REMARK 924 INTRA-LIGAND FREE ENERGY PREDICTED BY IDOCK:   -1.52 KCAL/MOL
REMARK 927      BINDING AFFINITY PREDICTED BY RF-SCORE:    0.00 PKD
ROOT
HETATM    1  C   UNL     1      -9.987   9.752  70.297  1.00  0.00    -0.253 C  
HETATM    2  N   UNL     1      -9.323   9.867  69.002  1.00  0.00    -0.165 NA 
HETATM    3  C   UNL     1      -8.031  10.551  69.136  1.00  0.00    -0.145 C  
HETATM    4  C   UNL     1      -7.230  10.051  67.954  1.00  0.00    -0.087 C  
HETATM    5  C   UNL     1      -7.627   8.592  67.871  1.00  0.00    -0.098 C  
HETATM    6  C   UNL     1      -9.080   8.550  68.364  1.00  0.00    -0.139 C  
ENDROOT
BRANCH   6   7
HETATM    7  C   UNL     1     -10.101   8.315  67.221  1.00  0.00    -0.315 C  
BRANCH   7   8
HETATM    8  C   UNL     1      -9.739   8.997  65.928  1.00  0.00    -0.306 A  
HETATM    9  C   UNL     1      -8.987   8.472  64.895  1.00  0.00     0.115 A  
HETATM   10  N   UNL     1      -8.983   9.371  63.859  1.00  0.00    -0.398 NA 
HETATM   11  C   UNL     1      -9.739  10.473  64.185  1.00  0.00    -0.327 A  
HETATM   12  H   UNL     1      -8.491   9.242  62.974  1.00  0.00     0.000 HD 
HETATM   13  C   UNL     1     -10.159  10.294  65.499  1.00  0.00    -0.351 A  
HETATM   14  C   UNL     1     -10.927  11.306  66.101  1.00  0.00    -0.252 A  
HETATM   15  C   UNL     1     -11.353  12.423  65.368  1.00  0.00    -0.379 A  
HETATM   16  C   UNL     1     -10.938  12.545  64.034  1.00  0.00    -0.443 A  
HETATM   17  C   UNL     1     -10.100  11.593  63.430  1.00  0.00    -0.468 A  
BRANCH  15  18
HETATM   18  C   UNL     1     -12.349  13.406  65.952  1.00  0.00    -0.493 C  
BRANCH  18  19
HETATM   19  C   UNL     1     -11.719  14.674  66.514  1.00  0.00    -0.325 C  
BRANCH  19  20
HETATM   20  S   UNL     1     -11.471  14.578  68.273  1.00  0.00    -0.328 S  
HETATM   21  O   UNL     1     -11.912  13.275  68.726  1.00  0.00    -0.325 OA 
HETATM   22  O   UNL     1     -11.967  15.794  68.878  1.00  0.00    -0.382 OA 
BRANCH  20  23
HETATM   23  C   UNL     1      -9.691  14.605  68.381  1.00  0.00    -0.217 A  
HETATM   24  C   UNL     1      -9.077  15.413  69.343  1.00  0.00    -0.258 A  
HETATM   25  C   UNL     1      -7.685  15.467  69.401  1.00  0.00    -0.227 A  
HETATM   26  C   UNL     1      -6.918  14.716  68.509  1.00  0.00    -0.110 A  
HETATM   27  C   UNL     1      -7.537  13.899  67.561  1.00  0.00    -0.190 A  
HETATM   28  C   UNL     1      -8.930  13.836  67.495  1.00  0.00    -0.201 A  
ENDBRANCH  20  23
ENDBRANCH  19  20
ENDBRANCH  18  19
ENDBRANCH  15  18
ENDBRANCH   7   8
ENDBRANCH   6   7
TORSDOF 6
ENDMDL
MODEL      116
REMARK 921   NORMALIZED FREE ENERGY PREDICTED BY IDOCK:   -5.19 KCAL/MOL
REMARK 922        TOTAL FREE ENERGY PREDICTED BY IDOCK:   -8.59 KCAL/MOL
REMARK 923 INTER-LIGAND FREE ENERGY PREDICTED BY IDOCK:   -7.24 KCAL/MOL
REMARK 924 INTRA-LIGAND FREE ENERGY PREDICTED BY IDOCK:   -1.34 KCAL/MOL
REMARK 927      BINDING AFFINITY PREDICTED BY RF-SCORE:    0.00 PKD
ROOT
HETATM    1  C   UNL     1      -8.944   7.078  65.763  1.00  0.00    -0.005 C  
HETATM    2  N   UNL     1      -7.757   7.898  65.990  1.00  0.00    -0.089 NA 
HETATM    3  C   UNL     1      -6.576   7.057  66.216  1.00  0.00    -0.052 C  
HETATM    4  C   UNL     1      -5.417   7.939  65.806  1.00  0.00    -0.029 C  
HETATM    5  C   UNL     1      -5.958   8.662  64.590  1.00  0.00    -0.064 C  
HETATM    6  C   UNL     1      -7.463   8.806  64.855  1.00  0.00    -0.095 C  
ENDROOT
BRANCH   6   7
HETATM    7  C   UNL     1      -7.880  10.257  65.209  1.00  0.00    -0.145 C  
BRANCH   7   8
HETATM    8  C   UNL     1      -9.041  10.775  64.401  1.00  0.00    -0.217 A  
HETATM    9  C   UNL     1      -9.359  10.442  63.099  1.00  0.00    -0.312 A  
HETATM   10  N   UNL     1     -10.548  11.046  62.774  1.00  0.00    -0.778 NA 
HETATM   11  C   UNL     1     -11.029  11.754  63.850  1.00  0.00    -0.407 A  
HETATM   12  H   UNL     1     -11.008  10.978  61.866  1.00  0.00     0.000 HD 
HETATM   13  C   UNL     1     -10.068  11.659  64.852  1.00  0.00    -0.303 A  
HETATM   14  C   UNL     1     -10.296  12.334  66.065  1.00  0.00    -0.273 A  
HETATM   15  C   UNL     1     -11.506  13.001  66.305  1.00  0.00    -0.379 A  
HETATM   16  C   UNL     1     -12.463  13.039  65.281  1.00  0.00    -0.555 A  
HETATM   17  C   UNL     1     -12.230  12.447  64.029  1.00  0.00    -0.579 A  
BRANCH  15  18
HETATM   18  C   UNL     1     -11.835  13.549  67.680  1.00  0.00    -0.399 C  
BRANCH  18  19
HETATM   19  C   UNL     1     -10.975  12.979  68.801  1.00  0.00    -0.258 C  
BRANCH  19  20
HETATM   20  S   UNL     1     -11.678  11.503  69.503  1.00  0.00    -0.373 S  
HETATM   21  O   UNL     1     -12.469  10.845  68.484  1.00  0.00    -0.375 OA 
HETATM   22  O   UNL     1     -12.235  11.826  70.799  1.00  0.00    -0.378 OA 
BRANCH  20  23
HETATM   23  C   UNL     1     -10.220  10.511  69.771  1.00  0.00    -0.123 A  
HETATM   24  C   UNL     1     -10.224   9.551  70.788  1.00  0.00    -0.363 A  
HETATM   25  C   UNL     1      -9.072   8.804  71.026  1.00  0.00    -0.272 A  
HETATM   26  C   UNL     1      -7.931   9.011  70.249  1.00  0.00    -0.124 A  
HETATM   27  C   UNL     1      -7.938   9.959  69.224  1.00  0.00    -0.121 A  
HETATM   28  C   UNL     1      -9.087  10.712  68.977  1.00  0.00    -0.174 A  
ENDBRANCH  20  23
ENDBRANCH  19  20
ENDBRANCH  18  19
ENDBRANCH  15  18
ENDBRANCH   7   8
ENDBRANCH   6   7
TORSDOF 6
ENDMDL
MODEL      117
REMARK 921   NORMALIZED FREE ENERGY PREDICTED BY IDOCK:   -5.18 KCAL/MOL
REMARK 922        TOTAL FREE ENERGY PREDICTED BY IDOCK:   -8.58 KCAL/MOL
REMARK 923 INTER-LIGAND FREE ENERGY PREDICTED BY IDOCK:   -7.81 KCAL/MOL
REMARK 924 INTRA-LIGAND FREE ENERGY PREDICTED BY IDOCK:   -0.76 KCAL/MOL
REMARK 927      BINDING AFFINITY PREDICTED BY RF-SCORE:    0.00 PKD
ROOT
HETATM    1  C   UNL     1      -9.224   6.993  65.995  1.00  0.00    -0.021 C  
HETATM    2  N   UNL     1      -8.176   7.861  66.524  1.00  0.00    -0.110 NA 
HETATM    3  C   UNL     1      -7.120   7.072  67.171  1.00  0.00    -0.083 C  
HETATM    4  C   UNL     1      -5.898   7.958  67.085  1.00  0.00    -0.041 C  
HETATM    5  C   UNL     1      -6.031   8.584  65.712  1.00  0.00    -0.048 C  
HETATM    6  C   UNL     1      -7.544   8.700  65.478  1.00  0.00    -0.087 C  
ENDROOT
BRANCH   6   7
HETATM    7  C   UNL     1      -8.062  10.159  65.578  1.00  0.00    -0.147 C  
BRANCH   7   8
HETATM    8  C   UNL     1      -9.038  10.537  64.495  1.00  0.00    -0.251 A  
HETATM    9  C   UNL     1      -9.112  10.006  63.223  1.00  0.00    -0.275 A  
HETATM   10  N   UNL     1     -10.205  10.543  62.590  1.00  0.00    -0.714 NA 
HETATM   11  C   UNL     1     -10.866  11.404  63.435  1.00  0.00    -0.297 A  
HETATM   12  H   UNL     1     -10.487  10.333  61.632  1.00  0.00     0.000 HD 
HETATM   13  C   UNL     1     -10.113  11.472  64.603  1.00  0.00    -0.318 A  
HETATM   14  C   UNL     1     -10.551  12.323  65.633  1.00  0.00    -0.295 A  
HETATM   15  C   UNL     1     -11.771  13.009  65.535  1.00  0.00    -0.408 A  
HETATM   16  C   UNL     1     -12.516  12.881  64.354  1.00  0.00    -0.447 A  
HETATM   17  C   UNL     1     -12.064  12.106  63.274  1.00  0.00    -0.512 A  
BRANCH  15  18
HETATM   18  C   UNL     1     -12.341  13.759  66.723  1.00  0.00    -0.365 C  
BRANCH  18  19
HETATM   19  C   UNL     1     -11.367  13.927  67.882  1.00  0.00    -0.292 C  
BRANCH  19  20
HETATM   20  S   UNL     1     -11.464  12.582  69.042  1.00  0.00    -0.320 S  
HETATM   21  O   UNL     1     -10.120  12.242  69.461  1.00  0.00     0.472 OA 
HETATM   22  O   UNL     1     -12.366  11.580  68.517  1.00  0.00    -0.459 OA 
BRANCH  20  23
HETATM   23  C   UNL     1     -12.270  13.366  70.426  1.00  0.00    -0.345 A  
HETATM   24  C   UNL     1     -12.891  12.572  71.396  1.00  0.00    -0.359 A  
HETATM   25  C   UNL     1     -13.557  13.184  72.455  1.00  0.00    -0.595 A  
HETATM   26  C   UNL     1     -13.597  14.577  72.546  1.00  0.00    -0.586 A  
HETATM   27  C   UNL     1     -12.962  15.364  71.584  1.00  0.00    -0.513 A  
HETATM   28  C   UNL     1     -12.291  14.761  70.519  1.00  0.00    -0.398 A  
ENDBRANCH  20  23
ENDBRANCH  19  20
ENDBRANCH  18  19
ENDBRANCH  15  18
ENDBRANCH   7   8
ENDBRANCH   6   7
TORSDOF 6
ENDMDL
MODEL      118
REMARK 921   NORMALIZED FREE ENERGY PREDICTED BY IDOCK:   -5.18 KCAL/MOL
REMARK 922        TOTAL FREE ENERGY PREDICTED BY IDOCK:   -8.57 KCAL/MOL
REMARK 923 INTER-LIGAND FREE ENERGY PREDICTED BY IDOCK:   -6.96 KCAL/MOL
REMARK 924 INTRA-LIGAND FREE ENERGY PREDICTED BY IDOCK:   -1.62 KCAL/MOL
REMARK 927      BINDING AFFINITY PREDICTED BY RF-SCORE:    0.00 PKD
ROOT
HETATM    1  C   UNL     1     -13.342  13.996  72.531  1.00  0.00    -0.539 C  
HETATM    2  N   UNL     1     -13.206  13.736  71.100  1.00  0.00    -0.254 NA 
HETATM    3  C   UNL     1     -12.761  14.940  70.390  1.00  0.00    -0.321 C  
HETATM    4  C   UNL     1     -12.080  14.402  69.151  1.00  0.00    -0.316 C  
HETATM    5  C   UNL     1     -11.357  13.177  69.669  1.00  0.00    -0.182 C  
HETATM    6  C   UNL     1     -12.243  12.647  70.806  1.00  0.00    -0.240 C  
ENDROOT
BRANCH   6   7
HETATM    7  C   UNL     1     -13.003  11.350  70.427  1.00  0.00     0.060 C  
BRANCH   7   8
HETATM    8  C   UNL     1     -12.849  10.236  71.429  1.00  0.00    -0.544 A  
HETATM    9  C   UNL     1     -13.763   9.853  72.391  1.00  0.00    -0.098 A  
HETATM   10  N   UNL     1     -13.286   8.732  73.023  1.00  0.00    -0.903 NA 
HETATM   11  C   UNL     1     -12.080   8.358  72.477  1.00  0.00    -0.337 A  
HETATM   12  H   UNL     1     -13.758   8.246  73.786  1.00  0.00     0.000 HD 
HETATM   13  C   UNL     1     -11.753   9.325  71.532  1.00  0.00    -0.450 A  
HETATM   14  C   UNL     1     -10.533   9.202  70.843  1.00  0.00    -0.347 A  
HETATM   15  C   UNL     1      -9.711   8.080  71.022  1.00  0.00    -0.185 A  
HETATM   16  C   UNL     1     -10.098   7.110  71.958  1.00  0.00    -0.194 A  
HETATM   17  C   UNL     1     -11.268   7.246  72.723  1.00  0.00    -0.348 A  
BRANCH  15  18
HETATM   18  C   UNL     1      -8.506   7.846  70.132  1.00  0.00    -0.129 C  
BRANCH  18  19
HETATM   19  C   UNL     1      -8.574   6.563  69.313  1.00  0.00    -0.127 C  
BRANCH  19  20
HETATM   20  S   UNL     1      -8.335   6.862  67.576  1.00  0.00    -0.123 S  
HETATM   21  O   UNL     1      -9.282   6.050  66.839  1.00  0.00    -0.121 OA 
HETATM   22  O   UNL     1      -6.918   6.815  67.288  1.00  0.00    -0.070 OA 
BRANCH  20  23
HETATM   23  C   UNL     1      -8.863   8.559  67.433  1.00  0.00    -0.134 A  
HETATM   24  C   UNL     1      -7.923   9.583  67.589  1.00  0.00    -0.106 A  
HETATM   25  C   UNL     1      -8.341  10.910  67.519  1.00  0.00    -0.117 A  
HETATM   26  C   UNL     1      -9.685  11.209  67.289  1.00  0.00    -0.186 A  
HETATM   27  C   UNL     1     -10.616  10.183  67.118  1.00  0.00    -0.308 A  
HETATM   28  C   UNL     1     -10.208   8.850  67.186  1.00  0.00    -0.339 A  
ENDBRANCH  20  23
ENDBRANCH  19  20
ENDBRANCH  18  19
ENDBRANCH  15  18
ENDBRANCH   7   8
ENDBRANCH   6   7
TORSDOF 6
ENDMDL
MODEL      119
REMARK 921   NORMALIZED FREE ENERGY PREDICTED BY IDOCK:   -5.17 KCAL/MOL
REMARK 922        TOTAL FREE ENERGY PREDICTED BY IDOCK:   -8.57 KCAL/MOL
REMARK 923 INTER-LIGAND FREE ENERGY PREDICTED BY IDOCK:   -7.53 KCAL/MOL
REMARK 924 INTRA-LIGAND FREE ENERGY PREDICTED BY IDOCK:   -1.03 KCAL/MOL
REMARK 927      BINDING AFFINITY PREDICTED BY RF-SCORE:    0.00 PKD
ROOT
HETATM    1  C   UNL     1     -10.725  19.833  65.871  1.00  0.00    -0.383 C  
HETATM    2  N   UNL     1      -9.609  19.183  66.552  1.00  0.00    -0.339 NA 
HETATM    3  C   UNL     1      -9.115  20.014  67.657  1.00  0.00    -0.342 C  
HETATM    4  C   UNL     1      -8.474  19.021  68.600  1.00  0.00    -0.394 C  
HETATM    5  C   UNL     1      -9.414  17.836  68.534  1.00  0.00    -0.304 C  
HETATM    6  C   UNL     1      -9.971  17.855  67.104  1.00  0.00    -0.327 C  
ENDROOT
BRANCH   6   7
HETATM    7  C   UNL     1      -9.387  16.729  66.211  1.00  0.00    -0.310 C  
BRANCH   7   8
HETATM    8  C   UNL     1     -10.431  15.849  65.575  1.00  0.00    -0.425 A  
HETATM    9  C   UNL     1     -11.211  16.149  64.476  1.00  0.00    -0.264 A  
HETATM   10  N   UNL     1     -11.953  15.041  64.153  1.00  0.00    -0.832 NA 
HETATM   11  C   UNL     1     -11.658  14.007  65.011  1.00  0.00    -0.350 A  
HETATM   12  H   UNL     1     -12.626  14.991  63.388  1.00  0.00     0.000 HD 
HETATM   13  C   UNL     1     -10.765  14.512  65.951  1.00  0.00    -0.308 A  
HETATM   14  C   UNL     1     -10.324  13.661  66.980  1.00  0.00    -0.260 A  
HETATM   15  C   UNL     1     -10.687  12.307  67.004  1.00  0.00    -0.263 A  
HETATM   16  C   UNL     1     -11.559  11.831  66.015  1.00  0.00    -0.206 A  
HETATM   17  C   UNL     1     -12.084  12.675  65.023  1.00  0.00    -0.497 A  
BRANCH  15  18
HETATM   18  C   UNL     1     -10.050  11.345  67.989  1.00  0.00    -0.193 C  
BRANCH  18  19
HETATM   19  C   UNL     1      -8.828  10.614  67.445  1.00  0.00    -0.132 C  
BRANCH  19  20
HETATM   20  S   UNL     1      -9.160   8.896  67.124  1.00  0.00    -0.140 S  
HETATM   21  O   UNL     1     -10.593   8.725  66.995  1.00  0.00    -0.282 OA 
HETATM   22  O   UNL     1      -8.385   8.095  68.046  1.00  0.00    -0.127 OA 
BRANCH  20  23
HETATM   23  C   UNL     1      -8.451   8.697  65.501  1.00  0.00    -0.165 A  
HETATM   24  C   UNL     1      -8.913   9.497  64.450  1.00  0.00    -0.255 A  
HETATM   25  C   UNL     1      -8.389   9.313  63.172  1.00  0.00    -0.196 A  
HETATM   26  C   UNL     1      -7.410   8.344  62.949  1.00  0.00    -0.100 A  
HETATM   27  C   UNL     1      -6.942   7.559  64.005  1.00  0.00    -0.058 A  
HETATM   28  C   UNL     1      -7.458   7.735  65.289  1.00  0.00    -0.082 A  
ENDBRANCH  20  23
ENDBRANCH  19  20
ENDBRANCH  18  19
ENDBRANCH  15  18
ENDBRANCH   7   8
ENDBRANCH   6   7
TORSDOF 6
ENDMDL
MODEL      120
REMARK 921   NORMALIZED FREE ENERGY PREDICTED BY IDOCK:   -5.15 KCAL/MOL
REMARK 922        TOTAL FREE ENERGY PREDICTED BY IDOCK:   -8.53 KCAL/MOL
REMARK 923 INTER-LIGAND FREE ENERGY PREDICTED BY IDOCK:   -6.91 KCAL/MOL
REMARK 924 INTRA-LIGAND FREE ENERGY PREDICTED BY IDOCK:   -1.61 KCAL/MOL
REMARK 927      BINDING AFFINITY PREDICTED BY RF-SCORE:    0.00 PKD
ROOT
HETATM    1  C   UNL     1     -10.227   8.602  71.937  1.00  0.00    -0.334 C  
HETATM    2  N   UNL     1     -11.494   8.537  71.214  1.00  0.00    -0.266 NA 
HETATM    3  C   UNL     1     -12.101   7.206  71.343  1.00  0.00    -0.344 C  
HETATM    4  C   UNL     1     -13.578   7.459  71.135  1.00  0.00    -0.247 C  
HETATM    5  C   UNL     1     -13.800   8.773  71.853  1.00  0.00    -0.491 C  
HETATM    6  C   UNL     1     -12.478   9.538  71.692  1.00  0.00    -0.391 C  
ENDROOT
BRANCH   6   7
HETATM    7  C   UNL     1     -12.577  10.712  70.684  1.00  0.00    -0.454 C  
BRANCH   7   8
HETATM    8  C   UNL     1     -12.939  12.031  71.316  1.00  0.00    -0.315 A  
HETATM    9  C   UNL     1     -13.873  12.246  72.311  1.00  0.00     0.062 A  
HETATM   10  N   UNL     1     -13.820  13.566  72.680  1.00  0.00    -0.753 NA 
HETATM   11  C   UNL     1     -12.850  14.221  71.957  1.00  0.00    -0.347 A  
HETATM   12  H   UNL     1     -14.413  14.000  73.387  1.00  0.00     0.000 HD 
HETATM   13  C   UNL     1     -12.339  13.300  71.048  1.00  0.00    -0.379 A  
HETATM   14  C   UNL     1     -11.345  13.726  70.149  1.00  0.00    -0.025 A  
HETATM   15  C   UNL     1     -10.802  15.016  70.231  1.00  0.00    -0.202 A  
HETATM   16  C   UNL     1     -11.320  15.901  71.187  1.00  0.00    -0.435 A  
HETATM   17  C   UNL     1     -12.372  15.533  72.042  1.00  0.00    -0.478 A  
BRANCH  15  18
HETATM   18  C   UNL     1      -9.593  15.407  69.403  1.00  0.00    -0.270 C  
BRANCH  18  19
HETATM   19  C   UNL     1      -8.433  14.422  69.490  1.00  0.00     0.397 C  
BRANCH  19  20
HETATM   20  S   UNL     1      -8.001  13.751  67.900  1.00  0.00    -0.175 S  
HETATM   21  O   UNL     1      -6.562  13.594  67.846  1.00  0.00    -0.121 OA 
HETATM   22  O   UNL     1      -8.719  14.481  66.878  1.00  0.00    -0.225 OA 
BRANCH  20  23
HETATM   23  C   UNL     1      -8.711  12.118  68.002  1.00  0.00    -0.180 A  
HETATM   24  C   UNL     1      -9.875  11.833  67.281  1.00  0.00    -0.198 A  
HETATM   25  C   UNL     1     -10.455  10.570  67.392  1.00  0.00    -0.291 A  
HETATM   26  C   UNL     1      -9.871   9.602  68.210  1.00  0.00    -0.169 A  
HETATM   27  C   UNL     1      -8.700   9.887  68.915  1.00  0.00    -0.140 A  
HETATM   28  C   UNL     1      -8.111  11.148  68.811  1.00  0.00    -0.140 A  
ENDBRANCH  20  23
ENDBRANCH  19  20
ENDBRANCH  18  19
ENDBRANCH  15  18
ENDBRANCH   7   8
ENDBRANCH   6   7
TORSDOF 6
ENDMDL
MODEL      121
REMARK 921   NORMALIZED FREE ENERGY PREDICTED BY IDOCK:   -5.14 KCAL/MOL
REMARK 922        TOTAL FREE ENERGY PREDICTED BY IDOCK:   -8.52 KCAL/MOL
REMARK 923 INTER-LIGAND FREE ENERGY PREDICTED BY IDOCK:   -7.57 KCAL/MOL
REMARK 924 INTRA-LIGAND FREE ENERGY PREDICTED BY IDOCK:   -0.94 KCAL/MOL
REMARK 927      BINDING AFFINITY PREDICTED BY RF-SCORE:    0.00 PKD
ROOT
HETATM    1  C   UNL     1      -8.199   5.379  69.743  1.00  0.00    -0.100 C  
HETATM    2  N   UNL     1      -9.004   5.173  70.944  1.00  0.00    -0.133 NA 
HETATM    3  C   UNL     1      -9.732   3.901  70.874  1.00  0.00    -0.183 C  
HETATM    4  C   UNL     1      -9.968   3.537  72.323  1.00  0.00    -0.236 C  
HETATM    5  C   UNL     1      -8.676   3.957  72.991  1.00  0.00    -0.100 C  
HETATM    6  C   UNL     1      -8.191   5.169  72.184  1.00  0.00    -0.114 C  
ENDROOT
BRANCH   6   7
HETATM    7  C   UNL     1      -8.366   6.511  72.942  1.00  0.00    -0.115 C  
BRANCH   7   8
HETATM    8  C   UNL     1      -9.702   7.169  72.719  1.00  0.00    -0.190 A  
HETATM    9  C   UNL     1     -10.860   6.965  73.444  1.00  0.00    -0.273 A  
HETATM   10  N   UNL     1     -11.818   7.836  72.989  1.00  0.00    -0.631 NA 
HETATM   11  C   UNL     1     -11.302   8.626  71.988  1.00  0.00    -0.362 A  
HETATM   12  H   UNL     1     -12.773   7.890  73.342  1.00  0.00     0.000 HD 
HETATM   13  C   UNL     1     -10.007   8.177  71.753  1.00  0.00    -0.264 A  
HETATM   14  C   UNL     1      -9.257   8.797  70.737  1.00  0.00    -0.242 A  
HETATM   15  C   UNL     1      -9.757   9.910  70.047  1.00  0.00    -0.274 A  
HETATM   16  C   UNL     1     -11.054  10.354  70.343  1.00  0.00    -0.371 A  
HETATM   17  C   UNL     1     -11.860   9.703  71.291  1.00  0.00    -0.460 A  
BRANCH  15  18
HETATM   18  C   UNL     1      -8.875  10.704  69.103  1.00  0.00    -0.133 C  
BRANCH  18  19
HETATM   19  C   UNL     1      -9.638  11.471  68.031  1.00  0.00    -0.180 C  
BRANCH  19  20
HETATM   20  S   UNL     1      -9.702  10.587  66.489  1.00  0.00    -0.199 S  
HETATM   21  O   UNL     1     -10.436   9.356  66.699  1.00  0.00    -0.233 OA 
HETATM   22  O   UNL     1      -8.381  10.586  65.900  1.00  0.00    -0.149 OA 
BRANCH  20  23
HETATM   23  C   UNL     1     -10.734  11.662  65.509  1.00  0.00    -0.281 A  
HETATM   24  C   UNL     1     -11.601  12.552  66.152  1.00  0.00    -0.448 A  
HETATM   25  C   UNL     1     -12.437  13.363  65.388  1.00  0.00    -0.543 A  
HETATM   26  C   UNL     1     -12.402  13.288  63.994  1.00  0.00    -0.415 A  
HETATM   27  C   UNL     1     -11.524  12.410  63.357  1.00  0.00    -0.526 A  
HETATM   28  C   UNL     1     -10.681  11.593  64.113  1.00  0.00    -0.418 A  
ENDBRANCH  20  23
ENDBRANCH  19  20
ENDBRANCH  18  19
ENDBRANCH  15  18
ENDBRANCH   7   8
ENDBRANCH   6   7
TORSDOF 6
ENDMDL
MODEL      122
REMARK 921   NORMALIZED FREE ENERGY PREDICTED BY IDOCK:   -5.12 KCAL/MOL
REMARK 922        TOTAL FREE ENERGY PREDICTED BY IDOCK:   -8.49 KCAL/MOL
REMARK 923 INTER-LIGAND FREE ENERGY PREDICTED BY IDOCK:   -6.82 KCAL/MOL
REMARK 924 INTRA-LIGAND FREE ENERGY PREDICTED BY IDOCK:   -1.67 KCAL/MOL
REMARK 927      BINDING AFFINITY PREDICTED BY RF-SCORE:    0.00 PKD
ROOT
HETATM    1  C   UNL     1      -9.798   6.968  66.836  1.00  0.00    -0.199 C  
HETATM    2  N   UNL     1      -8.831   7.946  66.344  1.00  0.00    -0.150 NA 
HETATM    3  C   UNL     1      -8.188   7.472  65.113  1.00  0.00    -0.120 C  
HETATM    4  C   UNL     1      -7.754   8.742  64.417  1.00  0.00    -0.123 C  
HETATM    5  C   UNL     1      -8.906   9.686  64.687  1.00  0.00    -0.253 C  
HETATM    6  C   UNL     1      -9.446   9.266  66.062  1.00  0.00    -0.247 C  
ENDROOT
BRANCH   6   7
HETATM    7  C   UNL     1      -9.089  10.272  67.186  1.00  0.00    -0.156 C  
BRANCH   7   8
HETATM    8  C   UNL     1     -10.281  10.772  67.959  1.00  0.00    -0.203 A  
HETATM    9  C   UNL     1     -11.323  10.016  68.459  1.00  0.00    -0.052 A  
HETATM   10  N   UNL     1     -12.144  10.836  69.192  1.00  0.00    -0.642 NA 
HETATM   11  C   UNL     1     -11.647  12.118  69.201  1.00  0.00    -0.319 A  
HETATM   12  H   UNL     1     -12.999  10.538  69.662  1.00  0.00     0.000 HD 
HETATM   13  C   UNL     1     -10.525  12.117  68.377  1.00  0.00    -0.242 A  
HETATM   14  C   UNL     1      -9.839  13.328  68.179  1.00  0.00    -0.231 A  
HETATM   15  C   UNL     1     -10.206  14.489  68.873  1.00  0.00    -0.229 A  
HETATM   16  C   UNL     1     -11.320  14.436  69.723  1.00  0.00    -0.285 A  
HETATM   17  C   UNL     1     -12.078  13.264  69.877  1.00  0.00    -0.377 A  
BRANCH  15  18
HETATM   18  C   UNL     1      -9.344  15.736  68.819  1.00  0.00    -0.218 C  
BRANCH  18  19
HETATM   19  C   UNL     1      -9.046  16.229  67.409  1.00  0.00    -0.195 C  
BRANCH  19  20
HETATM   20  S   UNL     1     -10.519  16.732  66.548  1.00  0.00    -0.211 S  
HETATM   21  O   UNL     1     -10.135  17.615  65.465  1.00  0.00    -0.566 OA 
HETATM   22  O   UNL     1     -11.515  17.122  67.522  1.00  0.00     0.185 OA 
BRANCH  20  23
HETATM   23  C   UNL     1     -11.045  15.193  65.818  1.00  0.00    -0.330 A  
HETATM   24  C   UNL     1     -10.136  14.451  65.056  1.00  0.00    -0.322 A  
HETATM   25  C   UNL     1     -10.558  13.269  64.451  1.00  0.00    -0.438 A  
HETATM   26  C   UNL     1     -11.874  12.831  64.612  1.00  0.00    -0.428 A  
HETATM   27  C   UNL     1     -12.772  13.567  65.387  1.00  0.00    -0.495 A  
HETATM   28  C   UNL     1     -12.360  14.752  65.998  1.00  0.00     0.020 A  
ENDBRANCH  20  23
ENDBRANCH  19  20
ENDBRANCH  18  19
ENDBRANCH  15  18
ENDBRANCH   7   8
ENDBRANCH   6   7
TORSDOF 6
ENDMDL
MODEL      123
REMARK 921   NORMALIZED FREE ENERGY PREDICTED BY IDOCK:   -5.11 KCAL/MOL
REMARK 922        TOTAL FREE ENERGY PREDICTED BY IDOCK:   -8.48 KCAL/MOL
REMARK 923 INTER-LIGAND FREE ENERGY PREDICTED BY IDOCK:   -7.46 KCAL/MOL
REMARK 924 INTRA-LIGAND FREE ENERGY PREDICTED BY IDOCK:   -1.02 KCAL/MOL
REMARK 927      BINDING AFFINITY PREDICTED BY RF-SCORE:    0.00 PKD
ROOT
HETATM    1  C   UNL     1     -10.837   5.168  73.653  1.00  0.00    -0.305 C  
HETATM    2  N   UNL     1     -10.836   6.204  72.625  1.00  0.00    -0.232 NA 
HETATM    3  C   UNL     1     -12.098   6.199  71.875  1.00  0.00    -0.165 C  
HETATM    4  C   UNL     1     -12.216   7.612  71.351  1.00  0.00    -0.351 C  
HETATM    5  C   UNL     1     -11.700   8.445  72.505  1.00  0.00    -0.429 C  
HETATM    6  C   UNL     1     -10.641   7.564  73.183  1.00  0.00    -0.388 C  
ENDROOT
BRANCH   6   7
HETATM    7  C   UNL     1      -9.191   8.047  72.917  1.00  0.00    -0.332 C  
BRANCH   7   8
HETATM    8  C   UNL     1      -8.477   7.274  71.840  1.00  0.00    -0.114 A  
HETATM    9  C   UNL     1      -7.645   6.185  72.013  1.00  0.00    -0.096 A  
HETATM   10  N   UNL     1      -7.288   5.709  70.777  1.00  0.00    -0.081 NA 
HETATM   11  C   UNL     1      -7.890   6.454  69.790  1.00  0.00    -0.114 A  
HETATM   12  H   UNL     1      -6.666   4.916  70.613  1.00  0.00     0.000 HD 
HETATM   13  C   UNL     1      -8.577   7.481  70.430  1.00  0.00    -0.143 A  
HETATM   14  C   UNL     1      -9.260   8.423  69.640  1.00  0.00    -0.160 A  
HETATM   15  C   UNL     1      -9.339   8.278  68.247  1.00  0.00    -0.138 A  
HETATM   16  C   UNL     1      -8.663   7.206  67.648  1.00  0.00    -0.121 A  
HETATM   17  C   UNL     1      -7.902   6.297  68.401  1.00  0.00    -0.105 A  
BRANCH  15  18
HETATM   18  C   UNL     1     -10.243   9.171  67.420  1.00  0.00    -0.310 C  
BRANCH  18  19
HETATM   19  C   UNL     1      -9.750  10.606  67.286  1.00  0.00    -0.168 C  
BRANCH  19  20
HETATM   20  S   UNL     1     -11.019  11.792  67.670  1.00  0.00    -0.250 S  
HETATM   21  O   UNL     1     -10.406  12.910  68.359  1.00  0.00    -0.237 OA 
HETATM   22  O   UNL     1     -12.154  11.092  68.230  1.00  0.00    -0.604 OA 
BRANCH  20  23
HETATM   23  C   UNL     1     -11.478  12.357  66.042  1.00  0.00    -0.382 A  
HETATM   24  C   UNL     1     -10.984  11.684  64.920  1.00  0.00    -0.345 A  
HETATM   25  C   UNL     1     -11.308  12.149  63.647  1.00  0.00    -0.545 A  
HETATM   26  C   UNL     1     -12.123  13.273  63.499  1.00  0.00    -0.550 A  
HETATM   27  C   UNL     1     -12.627  13.931  64.623  1.00  0.00    -0.287 A  
HETATM   28  C   UNL     1     -12.309  13.473  65.902  1.00  0.00    -0.507 A  
ENDBRANCH  20  23
ENDBRANCH  19  20
ENDBRANCH  18  19
ENDBRANCH  15  18
ENDBRANCH   7   8
ENDBRANCH   6   7
TORSDOF 6
ENDMDL
MODEL      124
REMARK 921   NORMALIZED FREE ENERGY PREDICTED BY IDOCK:   -5.11 KCAL/MOL
REMARK 922        TOTAL FREE ENERGY PREDICTED BY IDOCK:   -8.48 KCAL/MOL
REMARK 923 INTER-LIGAND FREE ENERGY PREDICTED BY IDOCK:   -7.09 KCAL/MOL
REMARK 924 INTRA-LIGAND FREE ENERGY PREDICTED BY IDOCK:   -1.38 KCAL/MOL
REMARK 927      BINDING AFFINITY PREDICTED BY RF-SCORE:    0.00 PKD
ROOT
HETATM    1  C   UNL     1      -7.668   7.723  67.948  1.00  0.00    -0.122 C  
HETATM    2  N   UNL     1      -8.913   8.485  67.897  1.00  0.00    -0.137 NA 
HETATM    3  C   UNL     1      -8.647   9.927  67.977  1.00  0.00    -0.121 C  
HETATM    4  C   UNL     1      -9.845  10.555  67.301  1.00  0.00    -0.209 C  
HETATM    5  C   UNL     1     -10.115   9.614  66.147  1.00  0.00    -0.328 C  
HETATM    6  C   UNL     1      -9.690   8.230  66.660  1.00  0.00    -0.251 C  
ENDROOT
BRANCH   6   7
HETATM    7  C   UNL     1     -10.895   7.303  66.968  1.00  0.00    -0.350 C  
BRANCH   7   8
HETATM    8  C   UNL     1     -10.538   5.841  67.039  1.00  0.00    -0.373 A  
HETATM    9  C   UNL     1     -10.317   4.988  65.976  1.00  0.00    -0.237 A  
HETATM   10  N   UNL     1      -9.911   3.774  66.469  1.00  0.00    -0.395 NA 
HETATM   11  C   UNL     1      -9.840   3.820  67.842  1.00  0.00     0.041 A  
HETATM   12  H   UNL     1      -9.694   2.955  65.900  1.00  0.00     0.000 HD 
HETATM   13  C   UNL     1     -10.298   5.077  68.223  1.00  0.00    -0.089 A  
HETATM   14  C   UNL     1     -10.365   5.378  69.595  1.00  0.00    -0.361 A  
HETATM   15  C   UNL     1      -9.884   4.478  70.557  1.00  0.00    -0.297 A  
HETATM   16  C   UNL     1      -9.396   3.236  70.126  1.00  0.00    -0.242 A  
HETATM   17  C   UNL     1      -9.395   2.872  68.769  1.00  0.00    -0.234 A  
BRANCH  15  18
HETATM   18  C   UNL     1      -9.764   4.883  72.013  1.00  0.00    -0.219 C  
BRANCH  18  19
HETATM   19  C   UNL     1     -10.706   6.007  72.428  1.00  0.00    -0.228 C  
BRANCH  19  20
HETATM   20  S   UNL     1      -9.900   7.593  72.433  1.00  0.00    -0.198 S  
HETATM   21  O   UNL     1      -8.851   7.575  71.434  1.00  0.00    -0.130 OA 
HETATM   22  O   UNL     1      -9.629   7.971  73.803  1.00  0.00    -0.176 OA 
BRANCH  20  23
HETATM   23  C   UNL     1     -11.199   8.651  71.823  1.00  0.00    -0.326 A  
HETATM   24  C   UNL     1     -10.891   9.636  70.879  1.00  0.00    -0.409 A  
HETATM   25  C   UNL     1     -11.896  10.492  70.432  1.00  0.00    -0.431 A  
HETATM   26  C   UNL     1     -13.197  10.358  70.921  1.00  0.00    -0.321 A  
HETATM   27  C   UNL     1     -13.502   9.363  71.851  1.00  0.00    -0.500 A  
HETATM   28  C   UNL     1     -12.503   8.500  72.305  1.00  0.00    -0.448 A  
ENDBRANCH  20  23
ENDBRANCH  19  20
ENDBRANCH  18  19
ENDBRANCH  15  18
ENDBRANCH   7   8
ENDBRANCH   6   7
TORSDOF 6
ENDMDL
MODEL      125
REMARK 921   NORMALIZED FREE ENERGY PREDICTED BY IDOCK:   -5.06 KCAL/MOL
REMARK 922        TOTAL FREE ENERGY PREDICTED BY IDOCK:   -8.41 KCAL/MOL
REMARK 923 INTER-LIGAND FREE ENERGY PREDICTED BY IDOCK:   -7.51 KCAL/MOL
REMARK 924 INTRA-LIGAND FREE ENERGY PREDICTED BY IDOCK:   -0.90 KCAL/MOL
REMARK 927      BINDING AFFINITY PREDICTED BY RF-SCORE:    0.00 PKD
ROOT
HETATM    1  C   UNL     1      -9.344   4.988  65.783  1.00  0.00    -0.160 C  
HETATM    2  N   UNL     1      -9.532   6.280  66.437  1.00  0.00    -0.153 NA 
HETATM    3  C   UNL     1     -10.859   6.362  67.060  1.00  0.00    -0.392 C  
HETATM    4  C   UNL     1     -10.681   7.381  68.163  1.00  0.00    -0.169 C  
HETATM    5  C   UNL     1      -9.303   7.060  68.700  1.00  0.00    -0.136 C  
HETATM    6  C   UNL     1      -8.517   6.544  67.486  1.00  0.00    -0.120 C  
ENDROOT
BRANCH   6   7
HETATM    7  C   UNL     1      -7.467   7.561  66.968  1.00  0.00    -0.098 C  
BRANCH   7   8
HETATM    8  C   UNL     1      -7.884   8.286  65.715  1.00  0.00    -0.098 A  
HETATM    9  C   UNL     1      -7.517   7.982  64.419  1.00  0.00    -0.104 A  
HETATM   10  N   UNL     1      -8.198   8.815  63.567  1.00  0.00    -0.191 NA 
HETATM   11  C   UNL     1      -9.025   9.649  64.282  1.00  0.00    -0.229 A  
HETATM   12  H   UNL     1      -8.105   8.814  62.551  1.00  0.00     0.000 HD 
HETATM   13  C   UNL     1      -8.790   9.387  65.628  1.00  0.00    -0.208 A  
HETATM   14  C   UNL     1      -9.488  10.140  66.589  1.00  0.00    -0.211 A  
HETATM   15  C   UNL     1     -10.476  11.060  66.208  1.00  0.00    -0.310 A  
HETATM   16  C   UNL     1     -10.707  11.266  64.841  1.00  0.00    -0.337 A  
HETATM   17  C   UNL     1      -9.967  10.592  63.856  1.00  0.00    -0.348 A  
BRANCH  15  18
HETATM   18  C   UNL     1     -11.370  11.717  67.242  1.00  0.00    -0.372 C  
BRANCH  18  19
HETATM   19  C   UNL     1     -10.619  12.527  68.293  1.00  0.00    -0.231 C  
BRANCH  19  20
HETATM   20  S   UNL     1     -11.248  14.184  68.440  1.00  0.00    -0.282 S  
HETATM   21  O   UNL     1     -12.206  14.405  67.376  1.00  0.00    -0.364 OA 
HETATM   22  O   UNL     1     -10.137  15.084  68.654  1.00  0.00    -0.219 OA 
BRANCH  20  23
HETATM   23  C   UNL     1     -12.164  14.079  69.967  1.00  0.00    -0.352 A  
HETATM   24  C   UNL     1     -12.610  15.255  70.578  1.00  0.00    -0.450 A  
HETATM   25  C   UNL     1     -13.290  15.178  71.792  1.00  0.00    -0.506 A  
HETATM   26  C   UNL     1     -13.525  13.936  72.385  1.00  0.00    -0.661 A  
HETATM   27  C   UNL     1     -13.091  12.765  71.762  1.00  0.00    -0.455 A  
HETATM   28  C   UNL     1     -12.411  12.830  70.545  1.00  0.00    -0.355 A  
ENDBRANCH  20  23
ENDBRANCH  19  20
ENDBRANCH  18  19
ENDBRANCH  15  18
ENDBRANCH   7   8
ENDBRANCH   6   7
TORSDOF 6
ENDMDL
MODEL      126
REMARK 921   NORMALIZED FREE ENERGY PREDICTED BY IDOCK:   -5.04 KCAL/MOL
REMARK 922        TOTAL FREE ENERGY PREDICTED BY IDOCK:   -8.39 KCAL/MOL
REMARK 923 INTER-LIGAND FREE ENERGY PREDICTED BY IDOCK:   -7.19 KCAL/MOL
REMARK 924 INTRA-LIGAND FREE ENERGY PREDICTED BY IDOCK:   -1.19 KCAL/MOL
REMARK 927      BINDING AFFINITY PREDICTED BY RF-SCORE:    0.00 PKD
ROOT
HETATM    1  C   UNL     1     -11.977  16.389  70.662  1.00  0.00     0.251 C  
HETATM    2  N   UNL     1     -11.918  15.102  71.350  1.00  0.00    -0.321 NA 
HETATM    3  C   UNL     1     -12.739  15.123  72.567  1.00  0.00    -0.356 C  
HETATM    4  C   UNL     1     -13.090  13.669  72.793  1.00  0.00    -0.371 C  
HETATM    5  C   UNL     1     -13.332  13.158  71.388  1.00  0.00    -0.216 C  
HETATM    6  C   UNL     1     -12.383  13.978  70.502  1.00  0.00    -0.367 C  
ENDROOT
BRANCH   6   7
HETATM    7  C   UNL     1     -11.170  13.157  69.992  1.00  0.00     0.174 C  
BRANCH   7   8
HETATM    8  C   UNL     1     -11.177  12.916  68.505  1.00  0.00    -0.310 A  
HETATM    9  C   UNL     1     -11.494  11.738  67.857  1.00  0.00    -0.317 A  
HETATM   10  N   UNL     1     -11.485  11.970  66.504  1.00  0.00    -0.418 NA 
HETATM   11  C   UNL     1     -11.187  13.289  66.252  1.00  0.00    -0.299 A  
HETATM   12  H   UNL     1     -11.671  11.266  65.790  1.00  0.00     0.000 HD 
HETATM   13  C   UNL     1     -10.919  13.880  67.483  1.00  0.00    -0.288 A  
HETATM   14  C   UNL     1     -10.546  15.236  67.507  1.00  0.00    -0.273 A  
HETATM   15  C   UNL     1     -10.545  16.006  66.336  1.00  0.00    -0.284 A  
HETATM   16  C   UNL     1     -10.859  15.379  65.122  1.00  0.00    -0.447 A  
HETATM   17  C   UNL     1     -11.152  14.007  65.053  1.00  0.00    -0.364 A  
BRANCH  15  18
HETATM   18  C   UNL     1     -10.347  17.509  66.392  1.00  0.00    -0.334 C  
BRANCH  18  19
HETATM   19  C   UNL     1      -8.891  17.950  66.300  1.00  0.00    -0.163 C  
BRANCH  19  20
HETATM   20  S   UNL     1      -8.523  19.288  67.413  1.00  0.00    -0.295 S  
HETATM   21  O   UNL     1      -9.733  19.630  68.132  1.00  0.00    -0.359 OA 
HETATM   22  O   UNL     1      -7.762  20.290  66.698  1.00  0.00    -0.286 OA 
BRANCH  20  23
HETATM   23  C   UNL     1      -7.423  18.493  68.569  1.00  0.00    -0.297 A  
HETATM   24  C   UNL     1      -6.571  19.278  69.353  1.00  0.00    -0.348 A  
HETATM   25  C   UNL     1      -5.682  18.656  70.227  1.00  0.00    -0.216 A  
HETATM   26  C   UNL     1      -5.649  17.264  70.319  1.00  0.00    -0.227 A  
HETATM   27  C   UNL     1      -6.512  16.486  69.546  1.00  0.00    -0.223 A  
HETATM   28  C   UNL     1      -7.408  17.098  68.668  1.00  0.00    -0.238 A  
ENDBRANCH  20  23
ENDBRANCH  19  20
ENDBRANCH  18  19
ENDBRANCH  15  18
ENDBRANCH   7   8
ENDBRANCH   6   7
TORSDOF 6
ENDMDL
MODEL      127
REMARK 921   NORMALIZED FREE ENERGY PREDICTED BY IDOCK:   -5.04 KCAL/MOL
REMARK 922        TOTAL FREE ENERGY PREDICTED BY IDOCK:   -8.38 KCAL/MOL
REMARK 923 INTER-LIGAND FREE ENERGY PREDICTED BY IDOCK:   -6.91 KCAL/MOL
REMARK 924 INTRA-LIGAND FREE ENERGY PREDICTED BY IDOCK:   -1.47 KCAL/MOL
REMARK 927      BINDING AFFINITY PREDICTED BY RF-SCORE:    0.00 PKD
ROOT
HETATM    1  C   UNL     1      -9.937  10.443  64.881  1.00  0.00    -0.339 C  
HETATM    2  N   UNL     1     -10.544  11.764  64.748  1.00  0.00    -0.286 NA 
HETATM    3  C   UNL     1     -10.809  12.079  63.339  1.00  0.00    -0.405 C  
HETATM    4  C   UNL     1     -11.939  13.082  63.397  1.00  0.00    -0.592 C  
HETATM    5  C   UNL     1     -12.804  12.553  64.522  1.00  0.00    -0.352 C  
HETATM    6  C   UNL     1     -11.820  11.885  65.494  1.00  0.00    -0.063 C  
ENDROOT
BRANCH   6   7
HETATM    7  C   UNL     1     -11.604  12.703  66.794  1.00  0.00    -0.438 C  
BRANCH   7   8
HETATM    8  C   UNL     1     -10.611  13.826  66.652  1.00  0.00    -0.274 A  
HETATM    9  C   UNL     1     -10.876  15.124  66.263  1.00  0.00    -0.333 A  
HETATM   10  N   UNL     1      -9.720  15.855  66.368  1.00  0.00    -0.266 NA 
HETATM   11  C   UNL     1      -8.700  15.063  66.841  1.00  0.00    -0.256 A  
HETATM   12  H   UNL     1      -9.629  16.843  66.130  1.00  0.00     0.000 HD 
HETATM   13  C   UNL     1      -9.216  13.775  66.955  1.00  0.00    -0.263 A  
HETATM   14  C   UNL     1      -8.360  12.747  67.388  1.00  0.00    -0.189 A  
HETATM   15  C   UNL     1      -7.048  13.024  67.799  1.00  0.00    -0.139 A  
HETATM   16  C   UNL     1      -6.581  14.342  67.703  1.00  0.00    -0.172 A  
HETATM   17  C   UNL     1      -7.384  15.376  67.194  1.00  0.00    -0.203 A  
BRANCH  15  18
HETATM   18  C   UNL     1      -6.196  11.956  68.459  1.00  0.00    -0.052 C  
BRANCH  18  19
HETATM   19  C   UNL     1      -6.822  11.339  69.703  1.00  0.00    -0.095 C  
BRANCH  19  20
HETATM   20  S   UNL     1      -7.238   9.626  69.468  1.00  0.00    -0.091 S  
HETATM   21  O   UNL     1      -6.399   8.829  70.338  1.00  0.00    -0.036 OA 
HETATM   22  O   UNL     1      -7.320   9.360  68.048  1.00  0.00    -0.078 OA 
BRANCH  20  23
HETATM   23  C   UNL     1      -8.894   9.571  70.128  1.00  0.00    -0.235 A  
HETATM   24  C   UNL     1      -9.131   8.883  71.322  1.00  0.00    -0.323 A  
HETATM   25  C   UNL     1     -10.431   8.804  71.818  1.00  0.00    -0.417 A  
HETATM   26  C   UNL     1     -11.481   9.412  71.128  1.00  0.00    -0.422 A  
HETATM   27  C   UNL     1     -11.236  10.111  69.945  1.00  0.00    -0.343 A  
HETATM   28  C   UNL     1      -9.937  10.198  69.440  1.00  0.00    -0.247 A  
ENDBRANCH  20  23
ENDBRANCH  19  20
ENDBRANCH  18  19
ENDBRANCH  15  18
ENDBRANCH   7   8
ENDBRANCH   6   7
TORSDOF 6
ENDMDL
MODEL      128
REMARK 921   NORMALIZED FREE ENERGY PREDICTED BY IDOCK:   -5.02 KCAL/MOL
REMARK 922        TOTAL FREE ENERGY PREDICTED BY IDOCK:   -8.36 KCAL/MOL
REMARK 923 INTER-LIGAND FREE ENERGY PREDICTED BY IDOCK:   -7.17 KCAL/MOL
REMARK 924 INTRA-LIGAND FREE ENERGY PREDICTED BY IDOCK:   -1.19 KCAL/MOL
REMARK 927      BINDING AFFINITY PREDICTED BY RF-SCORE:    0.00 PKD
ROOT
HETATM    1  C   UNL     1     -10.083   9.073  71.484  1.00  0.00    -0.339 C  
HETATM    2  N   UNL     1     -11.492   9.287  71.170  1.00  0.00    -0.304 NA 
HETATM    3  C   UNL     1     -12.340   8.960  72.323  1.00  0.00    -0.360 C  
HETATM    4  C   UNL     1     -13.587   9.787  72.103  1.00  0.00    -0.432 C  
HETATM    5  C   UNL     1     -13.038  11.087  71.556  1.00  0.00    -0.500 C  
HETATM    6  C   UNL     1     -11.784  10.685  70.768  1.00  0.00    -0.335 C  
ENDROOT
BRANCH   6   7
HETATM    7  C   UNL     1     -11.980  10.769  69.232  1.00  0.00    -0.334 C  
BRANCH   7   8
HETATM    8  C   UNL     1     -11.678  12.125  68.651  1.00  0.00    -0.382 A  
HETATM    9  C   UNL     1     -11.560  13.316  69.341  1.00  0.00    -0.305 A  
HETATM   10  N   UNL     1     -11.173  14.293  68.458  1.00  0.00    -0.253 NA 
HETATM   11  C   UNL     1     -11.013  13.760  67.201  1.00  0.00    -0.290 A  
HETATM   12  H   UNL     1     -11.025  15.273  68.700  1.00  0.00     0.000 HD 
HETATM   13  C   UNL     1     -11.395  12.424  67.283  1.00  0.00    -0.384 A  
HETATM   14  C   UNL     1     -11.362  11.646  66.112  1.00  0.00    -0.275 A  
HETATM   15  C   UNL     1     -10.859  12.166  64.911  1.00  0.00    -0.352 A  
HETATM   16  C   UNL     1     -10.450  13.507  64.883  1.00  0.00    -0.417 A  
HETATM   17  C   UNL     1     -10.549  14.335  66.013  1.00  0.00    -0.302 A  
BRANCH  15  18
HETATM   18  C   UNL     1     -10.631  11.271  63.709  1.00  0.00    -0.455 C  
BRANCH  18  19
HETATM   19  C   UNL     1      -9.169  10.923  63.458  1.00  0.00    -0.245 C  
BRANCH  19  20
HETATM   20  S   UNL     1      -8.647   9.500  64.390  1.00  0.00    -0.206 S  
HETATM   21  O   UNL     1      -7.857   8.651  63.522  1.00  0.00    -0.133 OA 
HETATM   22  O   UNL     1      -9.784   8.983  65.120  1.00  0.00     0.002 OA 
BRANCH  20  23
HETATM   23  C   UNL     1      -7.534  10.239  65.570  1.00  0.00    -0.149 A  
HETATM   24  C   UNL     1      -6.260  10.637  65.151  1.00  0.00    -0.023 A  
HETATM   25  C   UNL     1      -5.373  11.177  66.081  1.00  0.00    -0.141 A  
HETATM   26  C   UNL     1      -5.760  11.322  67.414  1.00  0.00    -0.057 A  
HETATM   27  C   UNL     1      -7.038  10.938  67.823  1.00  0.00    -0.082 A  
HETATM   28  C   UNL     1      -7.935  10.397  66.900  1.00  0.00    -0.114 A  
ENDBRANCH  20  23
ENDBRANCH  19  20
ENDBRANCH  18  19
ENDBRANCH  15  18
ENDBRANCH   7   8
ENDBRANCH   6   7
TORSDOF 6
ENDMDL
MODEL      129
REMARK 921   NORMALIZED FREE ENERGY PREDICTED BY IDOCK:   -5.01 KCAL/MOL
REMARK 922        TOTAL FREE ENERGY PREDICTED BY IDOCK:   -8.34 KCAL/MOL
REMARK 923 INTER-LIGAND FREE ENERGY PREDICTED BY IDOCK:   -7.42 KCAL/MOL
REMARK 924 INTRA-LIGAND FREE ENERGY PREDICTED BY IDOCK:   -0.93 KCAL/MOL
REMARK 927      BINDING AFFINITY PREDICTED BY RF-SCORE:    0.00 PKD
ROOT
HETATM    1  C   UNL     1      -9.033  20.301  66.031  1.00  0.00    -0.048 C  
HETATM    2  N   UNL     1      -7.838  19.734  66.651  1.00  0.00    -0.283 NA 
HETATM    3  C   UNL     1      -6.649  20.000  65.834  1.00  0.00    -0.232 C  
HETATM    4  C   UNL     1      -5.508  19.952  66.825  1.00  0.00    -0.172 C  
HETATM    5  C   UNL     1      -6.096  20.622  68.049  1.00  0.00    -0.336 C  
HETATM    6  C   UNL     1      -7.590  20.271  68.011  1.00  0.00    -0.205 C  
ENDROOT
BRANCH   6   7
HETATM    7  C   UNL     1      -7.993  19.223  69.081  1.00  0.00    -0.222 C  
BRANCH   7   8
HETATM    8  C   UNL     1      -7.303  17.893  68.924  1.00  0.00    -0.251 A  
HETATM    9  C   UNL     1      -6.212  17.435  69.636  1.00  0.00    -0.233 A  
HETATM   10  N   UNL     1      -5.964  16.137  69.265  1.00  0.00    -0.128 NA 
HETATM   11  C   UNL     1      -6.889  15.726  68.334  1.00  0.00    -0.116 A  
HETATM   12  H   UNL     1      -5.204  15.561  69.627  1.00  0.00     0.000 HD 
HETATM   13  C   UNL     1      -7.689  16.829  68.052  1.00  0.00    -0.174 A  
HETATM   14  C   UNL     1      -8.706  16.690  67.091  1.00  0.00    -0.215 A  
HETATM   15  C   UNL     1      -8.982  15.447  66.504  1.00  0.00    -0.344 A  
HETATM   16  C   UNL     1      -8.175  14.353  66.845  1.00  0.00    -0.048 A  
HETATM   17  C   UNL     1      -7.098  14.478  67.738  1.00  0.00    -0.190 A  
BRANCH  15  18
HETATM   18  C   UNL     1     -10.204  15.252  65.628  1.00  0.00    -0.398 C  
BRANCH  18  19
HETATM   19  C   UNL     1     -10.478  13.801  65.251  1.00  0.00    -0.363 C  
BRANCH  19  20
HETATM   20  S   UNL     1     -12.145  13.311  65.631  1.00  0.00    -0.466 S  
HETATM   21  O   UNL     1     -12.440  12.095  64.901  1.00  0.00    -0.467 OA 
HETATM   22  O   UNL     1     -13.002  14.472  65.539  1.00  0.00    -0.406 OA 
BRANCH  20  23
HETATM   23  C   UNL     1     -12.001  12.876  67.354  1.00  0.00    -0.300 A  
HETATM   24  C   UNL     1     -11.910  11.527  67.714  1.00  0.00    -0.228 A  
HETATM   25  C   UNL     1     -11.839  11.183  69.062  1.00  0.00    -0.418 A  
HETATM   26  C   UNL     1     -11.854  12.180  70.040  1.00  0.00    -0.383 A  
HETATM   27  C   UNL     1     -11.930  13.525  69.675  1.00  0.00    -0.397 A  
HETATM   28  C   UNL     1     -12.000  13.881  68.327  1.00  0.00    -0.392 A  
ENDBRANCH  20  23
ENDBRANCH  19  20
ENDBRANCH  18  19
ENDBRANCH  15  18
ENDBRANCH   7   8
ENDBRANCH   6   7
TORSDOF 6
ENDMDL
MODEL      130
REMARK 921   NORMALIZED FREE ENERGY PREDICTED BY IDOCK:   -5.00 KCAL/MOL
REMARK 922        TOTAL FREE ENERGY PREDICTED BY IDOCK:   -8.33 KCAL/MOL
REMARK 923 INTER-LIGAND FREE ENERGY PREDICTED BY IDOCK:   -6.62 KCAL/MOL
REMARK 924 INTRA-LIGAND FREE ENERGY PREDICTED BY IDOCK:   -1.71 KCAL/MOL
REMARK 927      BINDING AFFINITY PREDICTED BY RF-SCORE:    0.00 PKD
ROOT
HETATM    1  C   UNL     1     -11.693  14.538  67.233  1.00  0.00    -0.406 C  
HETATM    2  N   UNL     1     -11.185  13.578  68.210  1.00  0.00    -0.260 NA 
HETATM    3  C   UNL     1     -12.019  13.572  69.418  1.00  0.00    -0.330 C  
HETATM    4  C   UNL     1     -11.800  12.195  70.004  1.00  0.00    -0.383 C  
HETATM    5  C   UNL     1     -11.747  11.311  68.776  1.00  0.00    -0.405 C  
HETATM    6  C   UNL     1     -11.136  12.195  67.680  1.00  0.00    -0.268 C  
ENDROOT
BRANCH   6   7
HETATM    7  C   UNL     1      -9.674  11.807  67.334  1.00  0.00    -0.186 C  
BRANCH   7   8
HETATM    8  C   UNL     1      -9.545  10.488  66.619  1.00  0.00    -0.210 A  
HETATM    9  C   UNL     1      -9.883  10.218  65.308  1.00  0.00    -0.306 A  
HETATM   10  N   UNL     1      -9.508   8.931  65.017  1.00  0.00    -0.395 NA 
HETATM   11  C   UNL     1      -8.908   8.354  66.112  1.00  0.00    -0.165 A  
HETATM   12  H   UNL     1      -9.653   8.468  64.119  1.00  0.00     0.000 HD 
HETATM   13  C   UNL     1      -8.986   9.282  67.145  1.00  0.00    -0.141 A  
HETATM   14  C   UNL     1      -8.473   8.927  68.405  1.00  0.00    -0.129 A  
HETATM   15  C   UNL     1      -7.802   7.711  68.596  1.00  0.00    -0.121 A  
HETATM   16  C   UNL     1      -7.713   6.820  67.516  1.00  0.00    -0.110 A  
HETATM   17  C   UNL     1      -8.290   7.109  66.269  1.00  0.00    -0.129 A  
BRANCH  15  18
HETATM   18  C   UNL     1      -7.070   7.418  69.891  1.00  0.00    -0.065 C  
BRANCH  18  19
HETATM   19  C   UNL     1      -7.364   8.408  71.012  1.00  0.00    -0.069 C  
BRANCH  19  20
HETATM   20  S   UNL     1      -8.136   7.629  72.412  1.00  0.00    -0.116 S  
HETATM   21  O   UNL     1      -8.063   8.538  73.538  1.00  0.00    -0.378 OA 
HETATM   22  O   UNL     1      -7.656   6.268  72.509  1.00  0.00    -0.099 OA 
BRANCH  20  23
HETATM   23  C   UNL     1      -9.839   7.568  71.888  1.00  0.00    -0.163 A  
HETATM   24  C   UNL     1     -10.720   8.572  72.304  1.00  0.00    -0.411 A  
HETATM   25  C   UNL     1     -12.060   8.503  71.930  1.00  0.00    -0.411 A  
HETATM   26  C   UNL     1     -12.513   7.444  71.142  1.00  0.00    -0.343 A  
HETATM   27  C   UNL     1     -11.627   6.453  70.716  1.00  0.00    -0.402 A  
HETATM   28  C   UNL     1     -10.282   6.512  71.084  1.00  0.00    -0.219 A  
ENDBRANCH  20  23
ENDBRANCH  19  20
ENDBRANCH  18  19
ENDBRANCH  15  18
ENDBRANCH   7   8
ENDBRANCH   6   7
TORSDOF 6
ENDMDL
MODEL      131
REMARK 921   NORMALIZED FREE ENERGY PREDICTED BY IDOCK:   -4.99 KCAL/MOL
REMARK 922        TOTAL FREE ENERGY PREDICTED BY IDOCK:   -8.31 KCAL/MOL
REMARK 923 INTER-LIGAND FREE ENERGY PREDICTED BY IDOCK:   -7.45 KCAL/MOL
REMARK 924 INTRA-LIGAND FREE ENERGY PREDICTED BY IDOCK:   -0.86 KCAL/MOL
REMARK 927      BINDING AFFINITY PREDICTED BY RF-SCORE:    0.00 PKD
ROOT
HETATM    1  C   UNL     1      -5.459   7.182  70.691  1.00  0.00    -0.024 C  
HETATM    2  N   UNL     1      -6.883   7.401  70.454  1.00  0.00    -0.051 NA 
HETATM    3  C   UNL     1      -7.282   6.871  69.145  1.00  0.00    -0.090 C  
HETATM    4  C   UNL     1      -8.760   6.589  69.302  1.00  0.00    -0.130 C  
HETATM    5  C   UNL     1      -8.851   6.046  70.713  1.00  0.00    -0.139 C  
HETATM    6  C   UNL     1      -7.739   6.769  71.486  1.00  0.00    -0.096 C  
ENDROOT
BRANCH   6   7
HETATM    7  C   UNL     1      -8.282   7.845  72.462  1.00  0.00    -0.184 C  
BRANCH   7   8
HETATM    8  C   UNL     1      -9.785   7.915  72.521  1.00  0.00    -0.290 A  
HETATM    9  C   UNL     1     -10.611   7.269  73.420  1.00  0.00    -0.389 A  
HETATM   10  N   UNL     1     -11.901   7.684  73.201  1.00  0.00    -0.610 NA 
HETATM   11  C   UNL     1     -11.934   8.611  72.185  1.00  0.00    -0.379 A  
HETATM   12  H   UNL     1     -12.716   7.353  73.717  1.00  0.00     0.000 HD 
HETATM   13  C   UNL     1     -10.636   8.715  71.697  1.00  0.00    -0.374 A  
HETATM   14  C   UNL     1     -10.394   9.579  70.615  1.00  0.00    -0.369 A  
HETATM   15  C   UNL     1     -11.411  10.398  70.103  1.00  0.00    -0.397 A  
HETATM   16  C   UNL     1     -12.697  10.288  70.650  1.00  0.00    -0.382 A  
HETATM   17  C   UNL     1     -12.989   9.373  71.675  1.00  0.00    -0.471 A  
BRANCH  15  18
HETATM   18  C   UNL     1     -11.104  11.475  69.080  1.00  0.00    -0.302 C  
BRANCH  18  19
HETATM   19  C   UNL     1     -11.521  11.122  67.658  1.00  0.00    -0.250 C  
BRANCH  19  20
HETATM   20  S   UNL     1     -11.095  12.399  66.495  1.00  0.00    -0.318 S  
HETATM   21  O   UNL     1     -10.224  13.348  67.159  1.00  0.00    -0.243 OA 
HETATM   22  O   UNL     1     -12.298  12.827  65.816  1.00  0.00    -0.547 OA 
BRANCH  20  23
HETATM   23  C   UNL     1     -10.102  11.494  65.323  1.00  0.00    -0.269 A  
HETATM   24  C   UNL     1     -10.641  11.177  64.072  1.00  0.00    -0.436 A  
HETATM   25  C   UNL     1      -9.881  10.434  63.171  1.00  0.00    -0.215 A  
HETATM   26  C   UNL     1      -8.594  10.018  63.516  1.00  0.00    -0.209 A  
HETATM   27  C   UNL     1      -8.056  10.351  64.760  1.00  0.00    -0.124 A  
HETATM   28  C   UNL     1      -8.808  11.096  65.671  1.00  0.00    -0.165 A  
ENDBRANCH  20  23
ENDBRANCH  19  20
ENDBRANCH  18  19
ENDBRANCH  15  18
ENDBRANCH   7   8
ENDBRANCH   6   7
TORSDOF 6
ENDMDL
MODEL      132
REMARK 921   NORMALIZED FREE ENERGY PREDICTED BY IDOCK:   -4.99 KCAL/MOL
REMARK 922        TOTAL FREE ENERGY PREDICTED BY IDOCK:   -8.31 KCAL/MOL
REMARK 923 INTER-LIGAND FREE ENERGY PREDICTED BY IDOCK:   -7.44 KCAL/MOL
REMARK 924 INTRA-LIGAND FREE ENERGY PREDICTED BY IDOCK:   -0.87 KCAL/MOL
REMARK 927      BINDING AFFINITY PREDICTED BY RF-SCORE:    0.00 PKD
ROOT
HETATM    1  C   UNL     1     -13.269  11.841  72.152  1.00  0.00    -0.237 C  
HETATM    2  N   UNL     1     -13.455  13.129  71.490  1.00  0.00    -0.224 NA 
HETATM    3  C   UNL     1     -14.249  14.037  72.326  1.00  0.00    -0.504 C  
HETATM    4  C   UNL     1     -13.833  15.415  71.863  1.00  0.00    -0.619 C  
HETATM    5  C   UNL     1     -12.346  15.257  71.626  1.00  0.00    -0.432 C  
HETATM    6  C   UNL     1     -12.172  13.801  71.174  1.00  0.00    -0.278 C  
ENDROOT
BRANCH   6   7
HETATM    7  C   UNL     1     -11.859  13.670  69.660  1.00  0.00    -0.396 C  
BRANCH   7   8
HETATM    8  C   UNL     1     -11.013  14.789  69.112  1.00  0.00    -0.277 A  
HETATM    9  C   UNL     1     -10.035  15.495  69.784  1.00  0.00    -0.274 A  
HETATM   10  N   UNL     1      -9.429  16.350  68.898  1.00  0.00    -0.246 NA 
HETATM   11  C   UNL     1      -9.979  16.203  67.646  1.00  0.00    -0.241 A  
HETATM   12  H   UNL     1      -8.679  17.001  69.134  1.00  0.00     0.000 HD 
HETATM   13  C   UNL     1     -11.019  15.287  67.773  1.00  0.00    -0.312 A  
HETATM   14  C   UNL     1     -11.782  14.979  66.633  1.00  0.00    -0.144 A  
HETATM   15  C   UNL     1     -11.444  15.498  65.375  1.00  0.00    -0.046 A  
HETATM   16  C   UNL     1     -10.364  16.388  65.286  1.00  0.00    -0.209 A  
HETATM   17  C   UNL     1      -9.635  16.781  66.420  1.00  0.00    -0.303 A  
BRANCH  15  18
HETATM   18  C   UNL     1     -12.135  15.006  64.117  1.00  0.00    -0.244 C  
BRANCH  18  19
HETATM   19  C   UNL     1     -11.495  13.771  63.495  1.00  0.00     0.338 C  
BRANCH  19  20
HETATM   20  S   UNL     1     -12.339  12.273  63.954  1.00  0.00    -0.494 S  
HETATM   21  O   UNL     1     -12.605  11.512  62.751  1.00  0.00     0.017 OA 
HETATM   22  O   UNL     1     -13.394  12.603  64.887  1.00  0.00    -0.741 OA 
BRANCH  20  23
HETATM   23  C   UNL     1     -11.065  11.413  64.857  1.00  0.00    -0.165 A  
HETATM   24  C   UNL     1     -11.013  11.534  66.250  1.00  0.00    -0.328 A  
HETATM   25  C   UNL     1      -9.993  10.897  66.954  1.00  0.00    -0.232 A  
HETATM   26  C   UNL     1      -9.039  10.140  66.271  1.00  0.00    -0.180 A  
HETATM   27  C   UNL     1      -9.104  10.010  64.882  1.00  0.00    -0.265 A  
HETATM   28  C   UNL     1     -10.122  10.644  64.168  1.00  0.00    -0.402 A  
ENDBRANCH  20  23
ENDBRANCH  19  20
ENDBRANCH  18  19
ENDBRANCH  15  18
ENDBRANCH   7   8
ENDBRANCH   6   7
TORSDOF 6
ENDMDL
MODEL      133
REMARK 921   NORMALIZED FREE ENERGY PREDICTED BY IDOCK:   -4.98 KCAL/MOL
REMARK 922        TOTAL FREE ENERGY PREDICTED BY IDOCK:   -8.30 KCAL/MOL
REMARK 923 INTER-LIGAND FREE ENERGY PREDICTED BY IDOCK:   -6.95 KCAL/MOL
REMARK 924 INTRA-LIGAND FREE ENERGY PREDICTED BY IDOCK:   -1.35 KCAL/MOL
REMARK 927      BINDING AFFINITY PREDICTED BY RF-SCORE:    0.00 PKD
ROOT
HETATM    1  C   UNL     1      -6.727  10.397  66.584  1.00  0.00    -0.090 C  
HETATM    2  N   UNL     1      -6.622  11.270  67.749  1.00  0.00    -0.066 NA 
HETATM    3  C   UNL     1      -5.216  11.537  68.077  1.00  0.00    -0.044 C  
HETATM    4  C   UNL     1      -5.258  12.859  68.809  1.00  0.00    -0.067 C  
HETATM    5  C   UNL     1      -6.309  13.636  68.045  1.00  0.00    -0.139 C  
HETATM    6  C   UNL     1      -7.301  12.573  67.550  1.00  0.00    -0.151 C  
ENDROOT
BRANCH   6   7
HETATM    7  C   UNL     1      -8.647  12.597  68.321  1.00  0.00    -0.167 C  
BRANCH   7   8
HETATM    8  C   UNL     1      -9.847  12.284  67.466  1.00  0.00    -0.193 A  
HETATM    9  C   UNL     1     -10.561  11.103  67.440  1.00  0.00    -0.234 A  
HETATM   10  N   UNL     1     -11.642  11.266  66.609  1.00  0.00    -0.336 NA 
HETATM   11  C   UNL     1     -11.662  12.545  66.105  1.00  0.00    -0.409 A  
HETATM   12  H   UNL     1     -12.330  10.544  66.397  1.00  0.00     0.000 HD 
HETATM   13  C   UNL     1     -10.510  13.175  66.568  1.00  0.00    -0.283 A  
HETATM   14  C   UNL     1     -10.263  14.499  66.164  1.00  0.00    -0.317 A  
HETATM   15  C   UNL     1     -11.200  15.209  65.400  1.00  0.00    -0.338 A  
HETATM   16  C   UNL     1     -12.365  14.547  64.986  1.00  0.00    -0.353 A  
HETATM   17  C   UNL     1     -12.601  13.199  65.302  1.00  0.00    -0.531 A  
BRANCH  15  18
HETATM   18  C   UNL     1     -11.030  16.694  65.141  1.00  0.00    -0.160 C  
BRANCH  18  19
HETATM   19  C   UNL     1      -9.834  17.318  65.849  1.00  0.00    -0.126 C  
BRANCH  19  20
HETATM   20  S   UNL     1     -10.294  18.108  67.375  1.00  0.00    -0.399 S  
HETATM   21  O   UNL     1     -11.152  17.206  68.115  1.00  0.00    -0.315 OA 
HETATM   22  O   UNL     1     -10.696  19.468  67.090  1.00  0.00    -0.468 OA 
BRANCH  20  23
HETATM   23  C   UNL     1      -8.728  18.171  68.225  1.00  0.00    -0.284 A  
HETATM   24  C   UNL     1      -8.121  19.412  68.449  1.00  0.00    -0.378 A  
HETATM   25  C   UNL     1      -6.877  19.460  69.076  1.00  0.00    -0.377 A  
HETATM   26  C   UNL     1      -6.251  18.279  69.480  1.00  0.00    -0.252 A  
HETATM   27  C   UNL     1      -6.869  17.045  69.268  1.00  0.00    -0.219 A  
HETATM   28  C   UNL     1      -8.115  16.986  68.642  1.00  0.00    -0.254 A  
ENDBRANCH  20  23
ENDBRANCH  19  20
ENDBRANCH  18  19
ENDBRANCH  15  18
ENDBRANCH   7   8
ENDBRANCH   6   7
TORSDOF 6
ENDMDL
MODEL      134
REMARK 921   NORMALIZED FREE ENERGY PREDICTED BY IDOCK:   -4.97 KCAL/MOL
REMARK 922        TOTAL FREE ENERGY PREDICTED BY IDOCK:   -8.29 KCAL/MOL
REMARK 923 INTER-LIGAND FREE ENERGY PREDICTED BY IDOCK:   -6.98 KCAL/MOL
REMARK 924 INTRA-LIGAND FREE ENERGY PREDICTED BY IDOCK:   -1.31 KCAL/MOL
REMARK 927      BINDING AFFINITY PREDICTED BY RF-SCORE:    0.00 PKD
ROOT
HETATM    1  C   UNL     1     -10.494  19.925  65.827  1.00  0.00    -0.414 C  
HETATM    2  N   UNL     1      -9.369  19.412  66.604  1.00  0.00    -0.331 NA 
HETATM    3  C   UNL     1      -9.273  20.097  67.899  1.00  0.00    -0.270 C  
HETATM    4  C   UNL     1      -8.555  19.102  68.783  1.00  0.00    -0.370 C  
HETATM    5  C   UNL     1      -9.149  17.777  68.352  1.00  0.00    -0.278 C  
HETATM    6  C   UNL     1      -9.468  17.955  66.861  1.00  0.00    -0.279 C  
ENDROOT
BRANCH   6   7
HETATM    7  C   UNL     1      -8.491  17.182  65.937  1.00  0.00    -0.014 C  
BRANCH   7   8
HETATM    8  C   UNL     1      -7.243  16.704  66.630  1.00  0.00    -0.276 A  
HETATM    9  C   UNL     1      -6.085  17.425  66.844  1.00  0.00    -0.177 A  
HETATM   10  N   UNL     1      -5.232  16.664  67.604  1.00  0.00    -0.121 NA 
HETATM   11  C   UNL     1      -5.820  15.460  67.912  1.00  0.00    -0.147 A  
HETATM   12  H   UNL     1      -4.298  16.951  67.898  1.00  0.00     0.000 HD 
HETATM   13  C   UNL     1      -7.045  15.434  67.253  1.00  0.00    -0.206 A  
HETATM   14  C   UNL     1      -7.844  14.282  67.370  1.00  0.00    -0.207 A  
HETATM   15  C   UNL     1      -7.471  13.226  68.214  1.00  0.00    -0.126 A  
HETATM   16  C   UNL     1      -6.245  13.311  68.890  1.00  0.00    -0.088 A  
HETATM   17  C   UNL     1      -5.386  14.409  68.727  1.00  0.00    -0.088 A  
BRANCH  15  18
HETATM   18  C   UNL     1      -8.425  12.083  68.500  1.00  0.00    -0.098 C  
BRANCH  18  19
HETATM   19  C   UNL     1      -9.691  12.098  67.652  1.00  0.00    -0.188 C  
BRANCH  19  20
HETATM   20  S   UNL     1     -11.120  11.564  68.567  1.00  0.00    -0.261 S  
HETATM   21  O   UNL     1     -10.674  10.730  69.664  1.00  0.00    -0.240 OA 
HETATM   22  O   UNL     1     -12.125  11.108  67.632  1.00  0.00    -0.537 OA 
BRANCH  20  23
HETATM   23  C   UNL     1     -11.687  13.104  69.265  1.00  0.00    -0.321 A  
HETATM   24  C   UNL     1     -11.520  14.287  68.538  1.00  0.00    -0.329 A  
HETATM   25  C   UNL     1     -11.925  15.496  69.100  1.00  0.00    -0.331 A  
HETATM   26  C   UNL     1     -12.496  15.520  70.374  1.00  0.00    -0.443 A  
HETATM   27  C   UNL     1     -12.675  14.334  71.088  1.00  0.00    -0.430 A  
HETATM   28  C   UNL     1     -12.274  13.117  70.534  1.00  0.00    -0.405 A  
ENDBRANCH  20  23
ENDBRANCH  19  20
ENDBRANCH  18  19
ENDBRANCH  15  18
ENDBRANCH   7   8
ENDBRANCH   6   7
TORSDOF 6
ENDMDL
MODEL      135
REMARK 921   NORMALIZED FREE ENERGY PREDICTED BY IDOCK:   -4.95 KCAL/MOL
REMARK 922        TOTAL FREE ENERGY PREDICTED BY IDOCK:   -8.26 KCAL/MOL
REMARK 923 INTER-LIGAND FREE ENERGY PREDICTED BY IDOCK:   -6.72 KCAL/MOL
REMARK 924 INTRA-LIGAND FREE ENERGY PREDICTED BY IDOCK:   -1.54 KCAL/MOL
REMARK 927      BINDING AFFINITY PREDICTED BY RF-SCORE:    0.00 PKD
ROOT
HETATM    1  C   UNL     1      -8.515   6.982  65.790  1.00  0.00    -0.149 C  
HETATM    2  N   UNL     1      -7.599   7.959  66.372  1.00  0.00    -0.090 NA 
HETATM    3  C   UNL     1      -6.389   7.302  66.880  1.00  0.00    -0.051 C  
HETATM    4  C   UNL     1      -5.342   8.393  66.846  1.00  0.00    -0.036 C  
HETATM    5  C   UNL     1      -5.661   9.127  65.561  1.00  0.00    -0.053 C  
HETATM    6  C   UNL     1      -7.183   9.001  65.403  1.00  0.00    -0.084 C  
ENDROOT
BRANCH   6   7
HETATM    7  C   UNL     1      -7.933  10.328  65.691  1.00  0.00    -0.150 C  
BRANCH   7   8
HETATM    8  C   UNL     1      -8.981  10.672  64.666  1.00  0.00    -0.216 A  
HETATM    9  C   UNL     1      -9.119  10.126  63.404  1.00  0.00    -0.276 A  
HETATM   10  N   UNL     1     -10.261  10.631  62.834  1.00  0.00    -0.723 NA 
HETATM   11  C   UNL     1     -10.889  11.485  63.710  1.00  0.00    -0.416 A  
HETATM   12  H   UNL     1     -10.595  10.405  61.897  1.00  0.00     0.000 HD 
HETATM   13  C   UNL     1     -10.070  11.583  64.830  1.00  0.00    -0.316 A  
HETATM   14  C   UNL     1     -10.465  12.434  65.877  1.00  0.00    -0.284 A  
HETATM   15  C   UNL     1     -11.704  13.090  65.847  1.00  0.00    -0.442 A  
HETATM   16  C   UNL     1     -12.516  12.933  64.714  1.00  0.00    -0.517 A  
HETATM   17  C   UNL     1     -12.112  12.158  63.615  1.00  0.00    -0.648 A  
BRANCH  15  18
HETATM   18  C   UNL     1     -12.220  13.838  67.061  1.00  0.00    -0.381 C  
BRANCH  18  19
HETATM   19  C   UNL     1     -11.330  13.721  68.291  1.00  0.00    -0.285 C  
BRANCH  19  20
HETATM   20  S   UNL     1     -10.394  15.204  68.588  1.00  0.00    -0.239 S  
HETATM   21  O   UNL     1     -10.504  15.540  69.993  1.00  0.00    -0.289 OA 
HETATM   22  O   UNL     1     -10.711  16.166  67.555  1.00  0.00    -0.311 OA 
BRANCH  20  23
HETATM   23  C   UNL     1      -8.729  14.633  68.305  1.00  0.00    -0.173 A  
HETATM   24  C   UNL     1      -7.769  15.532  67.829  1.00  0.00    -0.156 A  
HETATM   25  C   UNL     1      -6.478  15.078  67.568  1.00  0.00    -0.121 A  
HETATM   26  C   UNL     1      -6.149  13.739  67.788  1.00  0.00    -0.140 A  
HETATM   27  C   UNL     1      -7.107  12.850  68.279  1.00  0.00    -0.102 A  
HETATM   28  C   UNL     1      -8.403  13.294  68.544  1.00  0.00    -0.075 A  
ENDBRANCH  20  23
ENDBRANCH  19  20
ENDBRANCH  18  19
ENDBRANCH  15  18
ENDBRANCH   7   8
ENDBRANCH   6   7
TORSDOF 6
ENDMDL
MODEL      136
REMARK 921   NORMALIZED FREE ENERGY PREDICTED BY IDOCK:   -4.94 KCAL/MOL
REMARK 922        TOTAL FREE ENERGY PREDICTED BY IDOCK:   -8.25 KCAL/MOL
REMARK 923 INTER-LIGAND FREE ENERGY PREDICTED BY IDOCK:   -7.10 KCAL/MOL
REMARK 924 INTRA-LIGAND FREE ENERGY PREDICTED BY IDOCK:   -1.15 KCAL/MOL
REMARK 927      BINDING AFFINITY PREDICTED BY RF-SCORE:    0.00 PKD
ROOT
HETATM    1  C   UNL     1      -7.509   9.455  66.379  1.00  0.00    -0.093 C  
HETATM    2  N   UNL     1      -8.683   9.087  67.166  1.00  0.00    -0.116 NA 
HETATM    3  C   UNL     1      -9.761   8.597  66.300  1.00  0.00    -0.251 C  
HETATM    4  C   UNL     1     -10.582   7.709  67.208  1.00  0.00    -0.388 C  
HETATM    5  C   UNL     1      -9.528   7.016  68.045  1.00  0.00    -0.126 C  
HETATM    6  C   UNL     1      -8.391   8.039  68.174  1.00  0.00    -0.127 C  
ENDROOT
BRANCH   6   7
HETATM    7  C   UNL     1      -8.300   8.668  69.588  1.00  0.00    -0.123 C  
BRANCH   7   8
HETATM    8  C   UNL     1      -9.616   8.723  70.319  1.00  0.00    -0.198 A  
HETATM    9  C   UNL     1     -10.071   7.838  71.277  1.00  0.00    -0.179 A  
HETATM   10  N   UNL     1     -11.264   8.305  71.769  1.00  0.00    -0.266 NA 
HETATM   11  C   UNL     1     -11.592   9.496  71.165  1.00  0.00    -0.367 A  
HETATM   12  H   UNL     1     -11.825   7.837  72.480  1.00  0.00     0.000 HD 
HETATM   13  C   UNL     1     -10.615   9.738  70.204  1.00  0.00    -0.337 A  
HETATM   14  C   UNL     1     -10.733  10.889  69.404  1.00  0.00    -0.265 A  
HETATM   15  C   UNL     1     -11.748  11.829  69.635  1.00  0.00    -0.413 A  
HETATM   16  C   UNL     1     -12.689  11.563  70.640  1.00  0.00    -0.259 A  
HETATM   17  C   UNL     1     -12.648  10.382  71.398  1.00  0.00    -0.539 A  
BRANCH  15  18
HETATM   18  C   UNL     1     -11.753  13.164  68.915  1.00  0.00    -0.368 C  
BRANCH  18  19
HETATM   19  C   UNL     1     -11.924  13.058  67.405  1.00  0.00    -0.316 C  
BRANCH  19  20
HETATM   20  S   UNL     1     -10.481  13.613  66.525  1.00  0.00    -0.285 S  
HETATM   21  O   UNL     1     -10.890  14.041  65.202  1.00  0.00    -0.327 OA 
HETATM   22  O   UNL     1      -9.423  12.645  66.710  1.00  0.00    -0.224 OA 
BRANCH  20  23
HETATM   23  C   UNL     1     -10.046  15.076  67.446  1.00  0.00    -0.228 A  
HETATM   24  C   UNL     1     -10.746  16.265  67.212  1.00  0.00    -0.265 A  
HETATM   25  C   UNL     1     -10.379  17.420  67.902  1.00  0.00    -0.369 A  
HETATM   26  C   UNL     1      -9.328  17.383  68.819  1.00  0.00    -0.244 A  
HETATM   27  C   UNL     1      -8.644  16.190  69.060  1.00  0.00    -0.251 A  
HETATM   28  C   UNL     1      -9.003  15.028  68.376  1.00  0.00    -0.179 A  
ENDBRANCH  20  23
ENDBRANCH  19  20
ENDBRANCH  18  19
ENDBRANCH  15  18
ENDBRANCH   7   8
ENDBRANCH   6   7
TORSDOF 6
ENDMDL
MODEL      137
REMARK 921   NORMALIZED FREE ENERGY PREDICTED BY IDOCK:   -4.93 KCAL/MOL
REMARK 922        TOTAL FREE ENERGY PREDICTED BY IDOCK:   -8.23 KCAL/MOL
REMARK 923 INTER-LIGAND FREE ENERGY PREDICTED BY IDOCK:   -7.28 KCAL/MOL
REMARK 924 INTRA-LIGAND FREE ENERGY PREDICTED BY IDOCK:   -0.95 KCAL/MOL
REMARK 927      BINDING AFFINITY PREDICTED BY RF-SCORE:    0.00 PKD
ROOT
HETATM    1  C   UNL     1     -11.243   6.156  69.515  1.00  0.00    -0.411 C  
HETATM    2  N   UNL     1     -11.092   7.356  70.333  1.00  0.00    -0.262 NA 
HETATM    3  C   UNL     1     -12.246   7.532  71.222  1.00  0.00    -0.329 C  
HETATM    4  C   UNL     1     -11.700   8.351  72.371  1.00  0.00    -0.452 C  
HETATM    5  C   UNL     1     -10.316   7.770  72.571  1.00  0.00    -0.328 C  
HETATM    6  C   UNL     1      -9.868   7.328  71.171  1.00  0.00    -0.182 C  
ENDROOT
BRANCH   6   7
HETATM    7  C   UNL     1      -8.782   8.252  70.562  1.00  0.00    -0.140 C  
BRANCH   7   8
HETATM    8  C   UNL     1      -8.208   7.749  69.264  1.00  0.00    -0.129 A  
HETATM    9  C   UNL     1      -7.583   6.537  69.048  1.00  0.00    -0.100 A  
HETATM   10  N   UNL     1      -7.307   6.421  67.709  1.00  0.00    -0.086 NA 
HETATM   11  C   UNL     1      -7.761   7.531  67.035  1.00  0.00    -0.111 A  
HETATM   12  H   UNL     1      -6.834   5.628  67.276  1.00  0.00     0.000 HD 
HETATM   13  C   UNL     1      -8.260   8.405  67.996  1.00  0.00    -0.127 A  
HETATM   14  C   UNL     1      -8.760   9.649  67.574  1.00  0.00    -0.126 A  
HETATM   15  C   UNL     1      -8.853   9.967  66.211  1.00  0.00    -0.160 A  
HETATM   16  C   UNL     1      -8.373   9.041  65.274  1.00  0.00    -0.157 A  
HETATM   17  C   UNL     1      -7.790   7.825  65.668  1.00  0.00    -0.107 A  
BRANCH  15  18
HETATM   18  C   UNL     1      -9.580  11.215  65.749  1.00  0.00    -0.255 C  
BRANCH  18  19
HETATM   19  C   UNL     1      -9.892  12.205  66.864  1.00  0.00    -0.203 C  
BRANCH  19  20
HETATM   20  S   UNL     1     -11.621  12.228  67.278  1.00  0.00    -0.338 S  
HETATM   21  O   UNL     1     -11.965  10.954  67.875  1.00  0.00    -0.585 OA 
HETATM   22  O   UNL     1     -12.360  12.757  66.153  1.00  0.00    -0.542 OA 
BRANCH  20  23
HETATM   23  C   UNL     1     -11.658  13.451  68.576  1.00  0.00    -0.333 A  
HETATM   24  C   UNL     1     -12.113  13.086  69.847  1.00  0.00    -0.347 A  
HETATM   25  C   UNL     1     -12.181  14.050  70.851  1.00  0.00    -0.436 A  
HETATM   26  C   UNL     1     -11.792  15.364  70.586  1.00  0.00    -0.388 A  
HETATM   27  C   UNL     1     -11.324  15.719  69.320  1.00  0.00    -0.350 A  
HETATM   28  C   UNL     1     -11.250  14.761  68.307  1.00  0.00    -0.299 A  
ENDBRANCH  20  23
ENDBRANCH  19  20
ENDBRANCH  18  19
ENDBRANCH  15  18
ENDBRANCH   7   8
ENDBRANCH   6   7
TORSDOF 6
ENDMDL
MODEL      138
REMARK 921   NORMALIZED FREE ENERGY PREDICTED BY IDOCK:   -4.92 KCAL/MOL
REMARK 922        TOTAL FREE ENERGY PREDICTED BY IDOCK:   -8.22 KCAL/MOL
REMARK 923 INTER-LIGAND FREE ENERGY PREDICTED BY IDOCK:   -7.01 KCAL/MOL
REMARK 924 INTRA-LIGAND FREE ENERGY PREDICTED BY IDOCK:   -1.21 KCAL/MOL
REMARK 927      BINDING AFFINITY PREDICTED BY RF-SCORE:    0.00 PKD
ROOT
HETATM    1  C   UNL     1      -7.594  14.052  67.802  1.00  0.00    -0.170 C  
HETATM    2  N   UNL     1      -7.771  15.401  68.331  1.00  0.00    -0.117 NA 
HETATM    3  C   UNL     1      -6.554  15.860  69.012  1.00  0.00    -0.142 C  
HETATM    4  C   UNL     1      -6.636  17.368  68.928  1.00  0.00    -0.218 C  
HETATM    5  C   UNL     1      -7.197  17.598  67.540  1.00  0.00    -0.194 C  
HETATM    6  C   UNL     1      -8.107  16.390  67.277  1.00  0.00    -0.171 C  
ENDROOT
BRANCH   6   7
HETATM    7  C   UNL     1      -9.616  16.743  67.338  1.00  0.00    -0.236 C  
BRANCH   7   8
HETATM    8  C   UNL     1     -10.406  16.257  66.151  1.00  0.00    -0.352 A  
HETATM    9  C   UNL     1     -10.621  16.931  64.965  1.00  0.00     0.024 A  
HETATM   10  N   UNL     1     -11.295  16.099  64.108  1.00  0.00    -1.238 NA 
HETATM   11  C   UNL     1     -11.509  14.878  64.703  1.00  0.00    -0.379 A  
HETATM   12  H   UNL     1     -11.594  16.349  63.165  1.00  0.00     0.000 HD 
HETATM   13  C   UNL     1     -11.028  14.979  66.005  1.00  0.00    -0.334 A  
HETATM   14  C   UNL     1     -11.159  13.867  66.856  1.00  0.00    -0.309 A  
HETATM   15  C   UNL     1     -11.664  12.649  66.381  1.00  0.00    -0.466 A  
HETATM   16  C   UNL     1     -12.103  12.580  65.051  1.00  0.00    -0.504 A  
HETATM   17  C   UNL     1     -12.064  13.697  64.200  1.00  0.00    -0.484 A  
BRANCH  15  18
HETATM   18  C   UNL     1     -11.612  11.397  67.235  1.00  0.00    -0.232 C  
BRANCH  18  19
HETATM   19  C   UNL     1     -10.246  11.114  67.846  1.00  0.00    -0.180 C  
BRANCH  19  20
HETATM   20  S   UNL     1      -9.744   9.423  67.619  1.00  0.00    -0.163 S  
HETATM   21  O   UNL     1     -10.856   8.689  67.049  1.00  0.00    -0.197 OA 
HETATM   22  O   UNL     1      -9.080   8.970  68.821  1.00  0.00    -0.136 OA 
BRANCH  20  23
HETATM   23  C   UNL     1      -8.508   9.589  66.345  1.00  0.00    -0.126 A  
HETATM   24  C   UNL     1      -7.388  10.394  66.580  1.00  0.00    -0.119 A  
HETATM   25  C   UNL     1      -6.442  10.559  65.571  1.00  0.00    -0.106 A  
HETATM   26  C   UNL     1      -6.611   9.919  64.341  1.00  0.00    -0.125 A  
HETATM   27  C   UNL     1      -7.722   9.104  64.118  1.00  0.00    -0.121 A  
HETATM   28  C   UNL     1      -8.676   8.931  65.122  1.00  0.00    -0.213 A  
ENDBRANCH  20  23
ENDBRANCH  19  20
ENDBRANCH  18  19
ENDBRANCH  15  18
ENDBRANCH   7   8
ENDBRANCH   6   7
TORSDOF 6
ENDMDL
MODEL      139
REMARK 921   NORMALIZED FREE ENERGY PREDICTED BY IDOCK:   -4.91 KCAL/MOL
REMARK 922        TOTAL FREE ENERGY PREDICTED BY IDOCK:   -8.21 KCAL/MOL
REMARK 923 INTER-LIGAND FREE ENERGY PREDICTED BY IDOCK:   -7.42 KCAL/MOL
REMARK 924 INTRA-LIGAND FREE ENERGY PREDICTED BY IDOCK:   -0.79 KCAL/MOL
REMARK 927      BINDING AFFINITY PREDICTED BY RF-SCORE:    0.00 PKD
ROOT
HETATM    1  C   UNL     1      -7.526  19.363  68.732  1.00  0.00    -0.358 C  
HETATM    2  N   UNL     1      -8.858  18.811  68.498  1.00  0.00    -0.339 NA 
HETATM    3  C   UNL     1      -9.788  19.859  68.059  1.00  0.00    -0.412 C  
HETATM    4  C   UNL     1     -10.844  19.105  67.283  1.00  0.00    -0.529 C  
HETATM    5  C   UNL     1     -10.038  18.058  66.544  1.00  0.00    -0.379 C  
HETATM    6  C   UNL     1      -8.861  17.737  67.475  1.00  0.00    -0.243 C  
ENDROOT
BRANCH   6   7
HETATM    7  C   UNL     1      -8.989  16.350  68.158  1.00  0.00    -0.197 C  
BRANCH   7   8
HETATM    8  C   UNL     1      -7.849  15.413  67.857  1.00  0.00    -0.143 A  
HETATM    9  C   UNL     1      -6.500  15.695  67.939  1.00  0.00    -0.149 A  
HETATM   10  N   UNL     1      -5.798  14.542  67.690  1.00  0.00    -0.338 NA 
HETATM   11  C   UNL     1      -6.666  13.499  67.466  1.00  0.00    -0.131 A  
HETATM   12  H   UNL     1      -4.781  14.470  67.674  1.00  0.00     0.000 HD 
HETATM   13  C   UNL     1      -7.949  14.036  67.492  1.00  0.00    -0.199 A  
HETATM   14  C   UNL     1      -9.038  13.179  67.251  1.00  0.00    -0.217 A  
HETATM   15  C   UNL     1      -8.851  11.799  67.091  1.00  0.00    -0.173 A  
HETATM   16  C   UNL     1      -7.542  11.295  67.110  1.00  0.00    -0.137 A  
HETATM   17  C   UNL     1      -6.428  12.136  67.263  1.00  0.00    -0.152 A  
BRANCH  15  18
HETATM   18  C   UNL     1     -10.034  10.852  67.039  1.00  0.00    -0.227 C  
BRANCH  18  19
HETATM   19  C   UNL     1     -10.852  10.802  68.324  1.00  0.00    -0.229 C  
BRANCH  19  20
HETATM   20  S   UNL     1     -10.324   9.493  69.407  1.00  0.00    -0.225 S  
HETATM   21  O   UNL     1      -9.173   9.956  70.154  1.00  0.00    -0.228 OA 
HETATM   22  O   UNL     1     -10.290   8.257  68.657  1.00  0.00    -0.206 OA 
BRANCH  20  23
HETATM   23  C   UNL     1     -11.695   9.402  70.543  1.00  0.00    -0.198 A  
HETATM   24  C   UNL     1     -12.354  10.578  70.916  1.00  0.00    -0.490 A  
HETATM   25  C   UNL     1     -13.399  10.513  71.836  1.00  0.00    -0.461 A  
HETATM   26  C   UNL     1     -13.783   9.283  72.373  1.00  0.00    -0.517 A  
HETATM   27  C   UNL     1     -13.132   8.111  71.986  1.00  0.00    -0.317 A  
HETATM   28  C   UNL     1     -12.085   8.164  71.064  1.00  0.00    -0.223 A  
ENDBRANCH  20  23
ENDBRANCH  19  20
ENDBRANCH  18  19
ENDBRANCH  15  18
ENDBRANCH   7   8
ENDBRANCH   6   7
TORSDOF 6
ENDMDL
MODEL      140
REMARK 921   NORMALIZED FREE ENERGY PREDICTED BY IDOCK:   -4.91 KCAL/MOL
REMARK 922        TOTAL FREE ENERGY PREDICTED BY IDOCK:   -8.21 KCAL/MOL
REMARK 923 INTER-LIGAND FREE ENERGY PREDICTED BY IDOCK:   -6.93 KCAL/MOL
REMARK 924 INTRA-LIGAND FREE ENERGY PREDICTED BY IDOCK:   -1.28 KCAL/MOL
REMARK 927      BINDING AFFINITY PREDICTED BY RF-SCORE:    0.00 PKD
ROOT
HETATM    1  C   UNL     1     -10.661  18.650  67.270  1.00  0.00    -0.430 C  
HETATM    2  N   UNL     1     -10.246  17.300  67.639  1.00  0.00    -0.320 NA 
HETATM    3  C   UNL     1     -10.755  16.940  68.967  1.00  0.00    -0.308 C  
HETATM    4  C   UNL     1     -10.815  15.430  68.938  1.00  0.00    -0.251 C  
HETATM    5  C   UNL     1     -11.292  15.138  67.531  1.00  0.00    -0.325 C  
HETATM    6  C   UNL     1     -10.713  16.274  66.675  1.00  0.00    -0.197 C  
ENDROOT
BRANCH   6   7
HETATM    7  C   UNL     1      -9.539  15.814  65.773  1.00  0.00    -0.355 C  
BRANCH   7   8
HETATM    8  C   UNL     1      -8.208  15.771  66.477  1.00  0.00    -0.278 A  
HETATM    9  C   UNL     1      -7.286  16.795  66.572  1.00  0.00    -0.271 A  
HETATM   10  N   UNL     1      -6.261  16.383  67.387  1.00  0.00    -0.155 NA 
HETATM   11  C   UNL     1      -6.504  15.110  67.847  1.00  0.00    -0.159 A  
HETATM   12  H   UNL     1      -5.438  16.940  67.618  1.00  0.00     0.000 HD 
HETATM   13  C   UNL     1      -7.677  14.681  67.233  1.00  0.00    -0.198 A  
HETATM   14  C   UNL     1      -8.138  13.380  67.504  1.00  0.00    -0.183 A  
HETATM   15  C   UNL     1      -7.495  12.568  68.450  1.00  0.00    -0.127 A  
HETATM   16  C   UNL     1      -6.338  13.055  69.073  1.00  0.00    -0.099 A  
HETATM   17  C   UNL     1      -5.804  14.316  68.761  1.00  0.00    -0.081 A  
BRANCH  15  18
HETATM   18  C   UNL     1      -8.108  11.254  68.893  1.00  0.00    -0.090 C  
BRANCH  18  19
HETATM   19  C   UNL     1      -9.427  10.918  68.210  1.00  0.00    -0.168 C  
BRANCH  19  20
HETATM   20  S   UNL     1     -10.141   9.411  68.829  1.00  0.00    -0.200 S  
HETATM   21  O   UNL     1      -9.122   8.693  69.567  1.00  0.00    -0.143 OA 
HETATM   22  O   UNL     1     -10.886   8.778  67.763  1.00  0.00    -0.167 OA 
BRANCH  20  23
HETATM   23  C   UNL     1     -11.315  10.038  70.016  1.00  0.00    -0.275 A  
HETATM   24  C   UNL     1     -11.867   9.164  70.959  1.00  0.00    -0.354 A  
HETATM   25  C   UNL     1     -12.816   9.643  71.860  1.00  0.00    -0.515 A  
HETATM   26  C   UNL     1     -13.204  10.984  71.821  1.00  0.00    -0.505 A  
HETATM   27  C   UNL     1     -12.638  11.854  70.888  1.00  0.00    -0.361 A  
HETATM   28  C   UNL     1     -11.686  11.385  69.981  1.00  0.00    -0.416 A  
ENDBRANCH  20  23
ENDBRANCH  19  20
ENDBRANCH  18  19
ENDBRANCH  15  18
ENDBRANCH   7   8
ENDBRANCH   6   7
TORSDOF 6
ENDMDL
MODEL      141
REMARK 921   NORMALIZED FREE ENERGY PREDICTED BY IDOCK:   -4.90 KCAL/MOL
REMARK 922        TOTAL FREE ENERGY PREDICTED BY IDOCK:   -8.20 KCAL/MOL
REMARK 923 INTER-LIGAND FREE ENERGY PREDICTED BY IDOCK:   -6.40 KCAL/MOL
REMARK 924 INTRA-LIGAND FREE ENERGY PREDICTED BY IDOCK:   -1.80 KCAL/MOL
REMARK 927      BINDING AFFINITY PREDICTED BY RF-SCORE:    0.00 PKD
ROOT
HETATM    1  C   UNL     1     -10.361   8.617  66.329  1.00  0.00     0.096 C  
HETATM    2  N   UNL     1     -10.116  10.032  66.063  1.00  0.00    -0.260 NA 
HETATM    3  C   UNL     1     -10.351  10.346  64.649  1.00  0.00    -0.120 C  
HETATM    4  C   UNL     1     -10.683  11.821  64.654  1.00  0.00    -0.363 C  
HETATM    5  C   UNL     1     -11.525  11.973  65.903  1.00  0.00    -0.392 C  
HETATM    6  C   UNL     1     -10.974  10.924  66.880  1.00  0.00    -0.223 C  
ENDROOT
BRANCH   6   7
HETATM    7  C   UNL     1     -10.149  11.547  68.035  1.00  0.00    -0.197 C  
BRANCH   7   8
HETATM    8  C   UNL     1     -10.987  12.082  69.167  1.00  0.00    -0.231 A  
HETATM    9  C   UNL     1     -11.290  13.405  69.422  1.00  0.00    -0.226 A  
HETATM   10  N   UNL     1     -12.166  13.455  70.478  1.00  0.00    -0.382 NA 
HETATM   11  C   UNL     1     -12.462  12.182  70.907  1.00  0.00    -0.279 A  
HETATM   12  H   UNL     1     -12.543  14.311  70.884  1.00  0.00     0.000 HD 
HETATM   13  C   UNL     1     -11.681  11.314  70.152  1.00  0.00    -0.429 A  
HETATM   14  C   UNL     1     -11.764   9.935  70.418  1.00  0.00    -0.333 A  
HETATM   15  C   UNL     1     -12.686   9.432  71.347  1.00  0.00    -0.425 A  
HETATM   16  C   UNL     1     -13.481  10.341  72.059  1.00  0.00    -0.385 A  
HETATM   17  C   UNL     1     -13.362  11.729  71.878  1.00  0.00    -0.401 A  
BRANCH  15  18
HETATM   18  C   UNL     1     -12.920   7.940  71.483  1.00  0.00    -0.338 C  
BRANCH  18  19
HETATM   19  C   UNL     1     -12.327   7.109  70.352  1.00  0.00     0.039 C  
BRANCH  19  20
HETATM   20  S   UNL     1     -11.005   6.059  70.912  1.00  0.00    -0.274 S  
HETATM   21  O   UNL     1     -10.741   5.072  69.885  1.00  0.00    -0.158 OA 
HETATM   22  O   UNL     1     -11.268   5.672  72.281  1.00  0.00    -0.266 OA 
BRANCH  20  23
HETATM   23  C   UNL     1      -9.631   7.196  70.923  1.00  0.00    -0.167 A  
HETATM   24  C   UNL     1      -9.064   7.595  69.708  1.00  0.00    -0.147 A  
HETATM   25  C   UNL     1      -7.965   8.450  69.716  1.00  0.00    -0.104 A  
HETATM   26  C   UNL     1      -7.442   8.907  70.927  1.00  0.00    -0.110 A  
HETATM   27  C   UNL     1      -8.022   8.519  72.136  1.00  0.00    -0.147 A  
HETATM   28  C   UNL     1      -9.125   7.662  72.140  1.00  0.00    -0.180 A  
ENDBRANCH  20  23
ENDBRANCH  19  20
ENDBRANCH  18  19
ENDBRANCH  15  18
ENDBRANCH   7   8
ENDBRANCH   6   7
TORSDOF 6
ENDMDL
MODEL      142
REMARK 921   NORMALIZED FREE ENERGY PREDICTED BY IDOCK:   -4.89 KCAL/MOL
REMARK 922        TOTAL FREE ENERGY PREDICTED BY IDOCK:   -8.18 KCAL/MOL
REMARK 923 INTER-LIGAND FREE ENERGY PREDICTED BY IDOCK:   -6.88 KCAL/MOL
REMARK 924 INTRA-LIGAND FREE ENERGY PREDICTED BY IDOCK:   -1.30 KCAL/MOL
REMARK 927      BINDING AFFINITY PREDICTED BY RF-SCORE:    0.00 PKD
ROOT
HETATM    1  C   UNL     1     -10.496  11.120  65.977  1.00  0.00    -0.256 C  
HETATM    2  N   UNL     1     -10.774  12.551  65.887  1.00  0.00    -0.258 NA 
HETATM    3  C   UNL     1     -11.281  12.902  64.555  1.00  0.00    -0.336 C  
HETATM    4  C   UNL     1     -12.082  14.163  64.792  1.00  0.00    -0.454 C  
HETATM    5  C   UNL     1     -12.757  13.890  66.120  1.00  0.00    -0.336 C  
HETATM    6  C   UNL     1     -11.766  13.006  66.891  1.00  0.00    -0.383 C  
ENDROOT
BRANCH   6   7
HETATM    7  C   UNL     1     -11.053  13.759  68.044  1.00  0.00    -0.284 C  
BRANCH   7   8
HETATM    8  C   UNL     1     -11.817  13.754  69.342  1.00  0.00    -0.392 A  
HETATM    9  C   UNL     1     -12.495  14.815  69.910  1.00  0.00    -0.240 A  
HETATM   10  N   UNL     1     -13.145  14.366  71.031  1.00  0.00    -0.359 NA 
HETATM   11  C   UNL     1     -12.924  13.019  71.199  1.00  0.00    -0.181 A  
HETATM   12  H   UNL     1     -13.711  14.946  71.651  1.00  0.00     0.000 HD 
HETATM   13  C   UNL     1     -12.038  12.632  70.198  1.00  0.00    -0.368 A  
HETATM   14  C   UNL     1     -11.611  11.293  70.163  1.00  0.00    -0.393 A  
HETATM   15  C   UNL     1     -12.141  10.341  71.045  1.00  0.00    -0.487 A  
HETATM   16  C   UNL     1     -13.060  10.767  72.015  1.00  0.00    -0.476 A  
HETATM   17  C   UNL     1     -13.442  12.113  72.130  1.00  0.00    -0.383 A  
BRANCH  15  18
HETATM   18  C   UNL     1     -11.839   8.865  70.874  1.00  0.00    -0.283 C  
BRANCH  18  19
HETATM   19  C   UNL     1     -11.124   8.521  69.573  1.00  0.00     0.052 C  
BRANCH  19  20
HETATM   20  S   UNL     1      -9.628   7.600  69.851  1.00  0.00    -0.160 S  
HETATM   21  O   UNL     1      -9.692   6.380  69.073  1.00  0.00    -0.134 OA 
HETATM   22  O   UNL     1      -9.356   7.575  71.271  1.00  0.00    -0.149 OA 
BRANCH  20  23
HETATM   23  C   UNL     1      -8.415   8.658  69.084  1.00  0.00    -0.124 A  
HETATM   24  C   UNL     1      -7.796   9.654  69.847  1.00  0.00    -0.157 A  
HETATM   25  C   UNL     1      -6.879  10.509  69.239  1.00  0.00    -0.079 A  
HETATM   26  C   UNL     1      -6.579  10.363  67.883  1.00  0.00    -0.061 A  
HETATM   27  C   UNL     1      -7.187   9.357  67.131  1.00  0.00    -0.087 A  
HETATM   28  C   UNL     1      -8.107   8.495  67.730  1.00  0.00    -0.115 A  
ENDBRANCH  20  23
ENDBRANCH  19  20
ENDBRANCH  18  19
ENDBRANCH  15  18
ENDBRANCH   7   8
ENDBRANCH   6   7
TORSDOF 6
ENDMDL
MODEL      143
REMARK 921   NORMALIZED FREE ENERGY PREDICTED BY IDOCK:   -4.89 KCAL/MOL
REMARK 922        TOTAL FREE ENERGY PREDICTED BY IDOCK:   -8.18 KCAL/MOL
REMARK 923 INTER-LIGAND FREE ENERGY PREDICTED BY IDOCK:   -7.12 KCAL/MOL
REMARK 924 INTRA-LIGAND FREE ENERGY PREDICTED BY IDOCK:   -1.07 KCAL/MOL
REMARK 927      BINDING AFFINITY PREDICTED BY RF-SCORE:    0.00 PKD
ROOT
HETATM    1  C   UNL     1      -7.432   5.224  68.156  1.00  0.00    -0.076 C  
HETATM    2  N   UNL     1      -8.059   6.466  67.712  1.00  0.00    -0.114 NA 
HETATM    3  C   UNL     1      -7.047   7.490  67.428  1.00  0.00    -0.085 C  
HETATM    4  C   UNL     1      -7.724   8.407  66.435  1.00  0.00    -0.094 C  
HETATM    5  C   UNL     1      -8.497   7.443  65.559  1.00  0.00    -0.126 C  
HETATM    6  C   UNL     1      -8.884   6.287  66.492  1.00  0.00    -0.138 C  
ENDROOT
BRANCH   6   7
HETATM    7  C   UNL     1     -10.390   6.284  66.862  1.00  0.00    -0.306 C  
BRANCH   7   8
HETATM    8  C   UNL     1     -10.668   6.652  68.296  1.00  0.00    -0.317 A  
HETATM    9  C   UNL     1     -10.846   5.784  69.355  1.00  0.00    -0.323 A  
HETATM   10  N   UNL     1     -10.967   6.521  70.506  1.00  0.00    -0.271 NA 
HETATM   11  C   UNL     1     -10.849   7.862  70.224  1.00  0.00    -0.241 A  
HETATM   12  H   UNL     1     -11.122   6.131  71.436  1.00  0.00     0.000 HD 
HETATM   13  C   UNL     1     -10.736   7.970  68.842  1.00  0.00    -0.091 A  
HETATM   14  C   UNL     1     -10.639   9.254  68.276  1.00  0.00    -0.237 A  
HETATM   15  C   UNL     1     -10.550  10.396  69.086  1.00  0.00    -0.255 A  
HETATM   16  C   UNL     1     -10.630  10.237  70.476  1.00  0.00    -0.136 A  
HETATM   17  C   UNL     1     -10.814   8.976  71.068  1.00  0.00    -0.345 A  
BRANCH  15  18
HETATM   18  C   UNL     1     -10.238  11.754  68.487  1.00  0.00    -0.215 C  
BRANCH  18  19
HETATM   19  C   UNL     1     -11.463  12.624  68.240  1.00  0.00    -0.313 C  
BRANCH  19  20
HETATM   20  S   UNL     1     -11.259  14.271  68.883  1.00  0.00    -0.279 S  
HETATM   21  O   UNL     1     -11.779  15.208  67.909  1.00  0.00    -0.338 OA 
HETATM   22  O   UNL     1      -9.919  14.399  69.412  1.00  0.00    -0.059 OA 
BRANCH  20  23
HETATM   23  C   UNL     1     -12.388  14.254  70.262  1.00  0.00    -0.354 A  
HETATM   24  C   UNL     1     -12.519  13.089  71.025  1.00  0.00    -0.385 A  
HETATM   25  C   UNL     1     -13.432  13.061  72.077  1.00  0.00    -0.584 A  
HETATM   26  C   UNL     1     -14.201  14.190  72.367  1.00  0.00    -0.498 A  
HETATM   27  C   UNL     1     -14.055  15.355  71.612  1.00  0.00    -0.618 A  
HETATM   28  C   UNL     1     -13.143  15.394  70.556  1.00  0.00    -0.318 A  
ENDBRANCH  20  23
ENDBRANCH  19  20
ENDBRANCH  18  19
ENDBRANCH  15  18
ENDBRANCH   7   8
ENDBRANCH   6   7
TORSDOF 6
ENDMDL
MODEL      144
REMARK 921   NORMALIZED FREE ENERGY PREDICTED BY IDOCK:   -4.88 KCAL/MOL
REMARK 922        TOTAL FREE ENERGY PREDICTED BY IDOCK:   -8.17 KCAL/MOL
REMARK 923 INTER-LIGAND FREE ENERGY PREDICTED BY IDOCK:   -6.73 KCAL/MOL
REMARK 924 INTRA-LIGAND FREE ENERGY PREDICTED BY IDOCK:   -1.44 KCAL/MOL
REMARK 927      BINDING AFFINITY PREDICTED BY RF-SCORE:    0.00 PKD
ROOT
HETATM    1  C   UNL     1     -10.020   7.351  73.586  1.00  0.00    -0.328 C  
HETATM    2  N   UNL     1      -9.125   8.243  72.855  1.00  0.00    -0.263 NA 
HETATM    3  C   UNL     1      -7.737   8.070  73.300  1.00  0.00    -0.157 C  
HETATM    4  C   UNL     1      -6.916   8.519  72.112  1.00  0.00    -0.096 C  
HETATM    5  C   UNL     1      -7.702   7.982  70.935  1.00  0.00    -0.084 C  
HETATM    6  C   UNL     1      -9.168   8.022  71.389  1.00  0.00    -0.144 C  
ENDROOT
BRANCH   6   7
HETATM    7  C   UNL     1      -9.983   9.149  70.703  1.00  0.00    -0.307 C  
BRANCH   7   8
HETATM    8  C   UNL     1     -10.132   8.977  69.215  1.00  0.00    -0.197 A  
HETATM    9  C   UNL     1     -10.745   7.928  68.558  1.00  0.00    -0.024 A  
HETATM   10  N   UNL     1     -10.762   8.206  67.214  1.00  0.00    -0.485 NA 
HETATM   11  C   UNL     1     -10.189   9.434  66.978  1.00  0.00    -0.255 A  
HETATM   12  H   UNL     1     -11.145   7.592  66.495  1.00  0.00     0.000 HD 
HETATM   13  C   UNL     1      -9.722   9.899  68.203  1.00  0.00    -0.161 A  
HETATM   14  C   UNL     1      -9.051  11.134  68.239  1.00  0.00    -0.162 A  
HETATM   15  C   UNL     1      -8.944  11.932  67.091  1.00  0.00    -0.178 A  
HETATM   16  C   UNL     1      -9.462  11.441  65.884  1.00  0.00    -0.251 A  
HETATM   17  C   UNL     1     -10.063  10.174  65.798  1.00  0.00    -0.324 A  
BRANCH  15  18
HETATM   18  C   UNL     1      -8.407  13.348  67.173  1.00  0.00    -0.149 C  
BRANCH  18  19
HETATM   19  C   UNL     1      -8.701  14.052  68.492  1.00  0.00    -0.156 C  
BRANCH  19  20
HETATM   20  S   UNL     1      -9.745  15.476  68.276  1.00  0.00    -0.203 S  
HETATM   21  O   UNL     1      -8.926  16.576  67.809  1.00  0.00    -0.200 OA 
HETATM   22  O   UNL     1     -10.593  15.609  69.440  1.00  0.00    -0.218 OA 
BRANCH  20  23
HETATM   23  C   UNL     1     -10.770  14.959  66.913  1.00  0.00    -0.308 A  
HETATM   24  C   UNL     1     -10.531  15.485  65.639  1.00  0.00    -0.393 A  
HETATM   25  C   UNL     1     -11.358  15.114  64.580  1.00  0.00    -0.362 A  
HETATM   26  C   UNL     1     -12.409  14.221  64.793  1.00  0.00    -0.440 A  
HETATM   27  C   UNL     1     -12.634  13.687  66.063  1.00  0.00    -0.441 A  
HETATM   28  C   UNL     1     -11.811  14.051  67.131  1.00  0.00    -0.444 A  
ENDBRANCH  20  23
ENDBRANCH  19  20
ENDBRANCH  18  19
ENDBRANCH  15  18
ENDBRANCH   7   8
ENDBRANCH   6   7
TORSDOF 6
ENDMDL
MODEL      145
REMARK 921   NORMALIZED FREE ENERGY PREDICTED BY IDOCK:   -4.88 KCAL/MOL
REMARK 922        TOTAL FREE ENERGY PREDICTED BY IDOCK:   -8.17 KCAL/MOL
REMARK 923 INTER-LIGAND FREE ENERGY PREDICTED BY IDOCK:   -7.51 KCAL/MOL
REMARK 924 INTRA-LIGAND FREE ENERGY PREDICTED BY IDOCK:   -0.65 KCAL/MOL
REMARK 927      BINDING AFFINITY PREDICTED BY RF-SCORE:    0.00 PKD
ROOT
HETATM    1  C   UNL     1     -12.824   9.008  71.208  1.00  0.00    -0.245 C  
HETATM    2  N   UNL     1     -11.693   8.098  71.370  1.00  0.00    -0.278 NA 
HETATM    3  C   UNL     1     -11.140   8.188  72.727  1.00  0.00    -0.337 C  
HETATM    4  C   UNL     1     -10.478   6.845  72.939  1.00  0.00    -0.271 C  
HETATM    5  C   UNL     1     -11.440   5.885  72.273  1.00  0.00    -0.351 C  
HETATM    6  C   UNL     1     -12.055   6.683  71.115  1.00  0.00    -0.335 C  
ENDROOT
BRANCH   6   7
HETATM    7  C   UNL     1     -11.527   6.239  69.726  1.00  0.00    -0.449 C  
BRANCH   7   8
HETATM    8  C   UNL     1     -10.070   6.548  69.498  1.00  0.00    -0.203 A  
HETATM    9  C   UNL     1      -8.987   5.849  69.993  1.00  0.00    -0.141 A  
HETATM   10  N   UNL     1      -7.842   6.389  69.465  1.00  0.00    -0.100 NA 
HETATM   11  C   UNL     1      -8.155   7.420  68.611  1.00  0.00    -0.125 A  
HETATM   12  H   UNL     1      -6.895   6.071  69.674  1.00  0.00     0.000 HD 
HETATM   13  C   UNL     1      -9.535   7.585  68.674  1.00  0.00    -0.146 A  
HETATM   14  C   UNL     1     -10.123   8.612  67.914  1.00  0.00    -0.254 A  
HETATM   15  C   UNL     1      -9.357   9.388  67.032  1.00  0.00    -0.185 A  
HETATM   16  C   UNL     1      -7.974   9.163  66.972  1.00  0.00    -0.102 A  
HETATM   17  C   UNL     1      -7.345   8.202  67.781  1.00  0.00    -0.093 A  
BRANCH  15  18
HETATM   18  C   UNL     1     -10.018  10.351  66.065  1.00  0.00    -0.301 C  
BRANCH  18  19
HETATM   19  C   UNL     1      -9.935  11.813  66.485  1.00  0.00    -0.204 C  
BRANCH  19  20
HETATM   20  S   UNL     1     -11.536  12.505  66.831  1.00  0.00    -0.368 S  
HETATM   21  O   UNL     1     -11.926  12.106  68.168  1.00  0.00    -0.430 OA 
HETATM   22  O   UNL     1     -12.398  12.272  65.693  1.00  0.00    -0.619 OA 
BRANCH  20  23
HETATM   23  C   UNL     1     -11.164  14.248  66.884  1.00  0.00    -0.326 A  
HETATM   24  C   UNL     1     -10.763  14.897  65.711  1.00  0.00    -0.338 A  
HETATM   25  C   UNL     1     -10.431  16.250  65.759  1.00  0.00    -0.379 A  
HETATM   26  C   UNL     1     -10.507  16.947  66.966  1.00  0.00    -0.281 A  
HETATM   27  C   UNL     1     -10.923  16.298  68.130  1.00  0.00    -0.343 A  
HETATM   28  C   UNL     1     -11.258  14.943  68.094  1.00  0.00    -0.310 A  
ENDBRANCH  20  23
ENDBRANCH  19  20
ENDBRANCH  18  19
ENDBRANCH  15  18
ENDBRANCH   7   8
ENDBRANCH   6   7
TORSDOF 6
ENDMDL
MODEL      146
REMARK 921   NORMALIZED FREE ENERGY PREDICTED BY IDOCK:   -4.87 KCAL/MOL
REMARK 922        TOTAL FREE ENERGY PREDICTED BY IDOCK:   -8.16 KCAL/MOL
REMARK 923 INTER-LIGAND FREE ENERGY PREDICTED BY IDOCK:   -6.41 KCAL/MOL
REMARK 924 INTRA-LIGAND FREE ENERGY PREDICTED BY IDOCK:   -1.74 KCAL/MOL
REMARK 927      BINDING AFFINITY PREDICTED BY RF-SCORE:    0.00 PKD
ROOT
HETATM    1  C   UNL     1      -6.469  11.211  70.295  1.00  0.00    -0.035 C  
HETATM    2  N   UNL     1      -6.087  11.301  68.888  1.00  0.00    -0.044 NA 
HETATM    3  C   UNL     1      -6.299  10.018  68.206  1.00  0.00    -0.053 C  
HETATM    4  C   UNL     1      -6.484  10.404  66.755  1.00  0.00    -0.076 C  
HETATM    5  C   UNL     1      -7.298  11.677  66.845  1.00  0.00    -0.125 C  
HETATM    6  C   UNL     1      -6.846  12.341  68.154  1.00  0.00    -0.078 C  
ENDROOT
BRANCH   6   7
HETATM    7  C   UNL     1      -5.955  13.590  67.923  1.00  0.00    -0.143 C  
BRANCH   7   8
HETATM    8  C   UNL     1      -6.606  14.887  68.325  1.00  0.00    -0.117 A  
HETATM    9  C   UNL     1      -6.116  15.819  69.219  1.00  0.00    -0.133 A  
HETATM   10  N   UNL     1      -6.955  16.905  69.219  1.00  0.00    -0.233 NA 
HETATM   11  C   UNL     1      -7.979  16.713  68.321  1.00  0.00    -0.192 A  
HETATM   12  H   UNL     1      -6.836  17.735  69.801  1.00  0.00     0.000 HD 
HETATM   13  C   UNL     1      -7.821  15.430  67.806  1.00  0.00    -0.158 A  
HETATM   14  C   UNL     1      -8.769  14.959  66.880  1.00  0.00    -0.276 A  
HETATM   15  C   UNL     1      -9.790  15.794  66.403  1.00  0.00    -0.296 A  
HETATM   16  C   UNL     1      -9.889  17.093  66.921  1.00  0.00    -0.285 A  
HETATM   17  C   UNL     1      -9.009  17.564  67.910  1.00  0.00    -0.251 A  
BRANCH  15  18
HETATM   18  C   UNL     1     -10.682  15.358  65.256  1.00  0.00    -0.439 C  
BRANCH  18  19
HETATM   19  C   UNL     1     -11.569  14.161  65.575  1.00  0.00    -0.337 C  
BRANCH  19  20
HETATM   20  S   UNL     1     -11.318  12.816  64.438  1.00  0.00    -0.373 S  
HETATM   21  O   UNL     1     -10.133  13.097  63.654  1.00  0.00    -0.154 OA 
HETATM   22  O   UNL     1     -12.581  12.501  63.808  1.00  0.00    -0.644 OA 
BRANCH  20  23
HETATM   23  C   UNL     1     -10.917  11.482  65.550  1.00  0.00    -0.229 A  
HETATM   24  C   UNL     1     -11.277  11.585  66.898  1.00  0.00    -0.363 A  
HETATM   25  C   UNL     1     -10.928  10.562  67.778  1.00  0.00    -0.372 A  
HETATM   26  C   UNL     1     -10.231   9.445  67.312  1.00  0.00    -0.308 A  
HETATM   27  C   UNL     1      -9.889   9.341  65.962  1.00  0.00    -0.363 A  
HETATM   28  C   UNL     1     -10.234  10.360  65.072  1.00  0.00    -0.334 A  
ENDBRANCH  20  23
ENDBRANCH  19  20
ENDBRANCH  18  19
ENDBRANCH  15  18
ENDBRANCH   7   8
ENDBRANCH   6   7
TORSDOF 6
ENDMDL
MODEL      147
REMARK 921   NORMALIZED FREE ENERGY PREDICTED BY IDOCK:   -4.86 KCAL/MOL
REMARK 922        TOTAL FREE ENERGY PREDICTED BY IDOCK:   -8.14 KCAL/MOL
REMARK 923 INTER-LIGAND FREE ENERGY PREDICTED BY IDOCK:   -7.06 KCAL/MOL
REMARK 924 INTRA-LIGAND FREE ENERGY PREDICTED BY IDOCK:   -1.07 KCAL/MOL
REMARK 927      BINDING AFFINITY PREDICTED BY RF-SCORE:    0.00 PKD
ROOT
HETATM    1  C   UNL     1     -13.378   7.129  71.102  1.00  0.00    -0.157 C  
HETATM    2  N   UNL     1     -12.597   8.025  71.950  1.00  0.00    -0.320 NA 
HETATM    3  C   UNL     1     -11.449   7.322  72.536  1.00  0.00    -0.281 C  
HETATM    4  C   UNL     1     -10.453   8.424  72.818  1.00  0.00    -0.231 C  
HETATM    5  C   UNL     1     -10.608   9.334  71.618  1.00  0.00    -0.360 C  
HETATM    6  C   UNL     1     -12.084   9.206  71.215  1.00  0.00    -0.323 C  
ENDROOT
BRANCH   6   7
HETATM    7  C   UNL     1     -12.921  10.463  71.573  1.00  0.00    -0.562 C  
BRANCH   7   8
HETATM    8  C   UNL     1     -12.524  11.699  70.809  1.00  0.00    -0.425 A  
HETATM    9  C   UNL     1     -12.656  13.009  71.226  1.00  0.00    -0.279 A  
HETATM   10  N   UNL     1     -12.077  13.825  70.286  1.00  0.00    -0.339 NA 
HETATM   11  C   UNL     1     -11.546  13.070  69.267  1.00  0.00    -0.310 A  
HETATM   12  H   UNL     1     -12.044  14.843  70.337  1.00  0.00     0.000 HD 
HETATM   13  C   UNL     1     -11.878  11.746  69.536  1.00  0.00    -0.402 A  
HETATM   14  C   UNL     1     -11.483  10.756  68.618  1.00  0.00    -0.365 A  
HETATM   15  C   UNL     1     -10.683  11.075  67.511  1.00  0.00    -0.289 A  
HETATM   16  C   UNL     1     -10.339  12.417  67.299  1.00  0.00    -0.227 A  
HETATM   17  C   UNL     1     -10.789  13.439  68.150  1.00  0.00    -0.273 A  
BRANCH  15  18
HETATM   18  C   UNL     1     -10.087   9.985  66.641  1.00  0.00    -0.289 C  
BRANCH  18  19
HETATM   19  C   UNL     1      -8.564   9.977  66.607  1.00  0.00    -0.125 C  
BRANCH  19  20
HETATM   20  S   UNL     1      -7.907   8.358  66.273  1.00  0.00    -0.100 S  
HETATM   21  O   UNL     1      -6.517   8.336  66.679  1.00  0.00    -0.054 OA 
HETATM   22  O   UNL     1      -8.310   7.960  64.942  1.00  0.00    -0.142 OA 
BRANCH  20  23
HETATM   23  C   UNL     1      -8.818   7.360  67.436  1.00  0.00    -0.123 A  
HETATM   24  C   UNL     1      -9.848   6.536  66.971  1.00  0.00    -0.200 A  
HETATM   25  C   UNL     1     -10.588   5.787  67.884  1.00  0.00    -0.304 A  
HETATM   26  C   UNL     1     -10.296   5.857  69.247  1.00  0.00    -0.312 A  
HETATM   27  C   UNL     1      -9.256   6.669  69.704  1.00  0.00    -0.145 A  
HETATM   28  C   UNL     1      -8.508   7.423  68.798  1.00  0.00    -0.129 A  
ENDBRANCH  20  23
ENDBRANCH  19  20
ENDBRANCH  18  19
ENDBRANCH  15  18
ENDBRANCH   7   8
ENDBRANCH   6   7
TORSDOF 6
ENDMDL
MODEL      148
REMARK 921   NORMALIZED FREE ENERGY PREDICTED BY IDOCK:   -4.85 KCAL/MOL
REMARK 922        TOTAL FREE ENERGY PREDICTED BY IDOCK:   -8.13 KCAL/MOL
REMARK 923 INTER-LIGAND FREE ENERGY PREDICTED BY IDOCK:   -6.17 KCAL/MOL
REMARK 924 INTRA-LIGAND FREE ENERGY PREDICTED BY IDOCK:   -1.96 KCAL/MOL
REMARK 927      BINDING AFFINITY PREDICTED BY RF-SCORE:    0.00 PKD
ROOT
HETATM    1  C   UNL     1      -6.405   8.065  65.997  1.00  0.00    -0.046 C  
HETATM    2  N   UNL     1      -7.490   8.969  66.371  1.00  0.00    -0.091 NA 
HETATM    3  C   UNL     1      -7.100  10.369  66.161  1.00  0.00    -0.130 C  
HETATM    4  C   UNL     1      -8.416  11.088  65.967  1.00  0.00    -0.158 C  
HETATM    5  C   UNL     1      -9.222  10.102  65.148  1.00  0.00    -0.262 C  
HETATM    6  C   UNL     1      -8.734   8.719  65.604  1.00  0.00    -0.184 C  
ENDROOT
BRANCH   6   7
HETATM    7  C   UNL     1      -9.766   7.974  66.488  1.00  0.00    -0.297 C  
BRANCH   7   8
HETATM    8  C   UNL     1      -9.494   6.499  66.635  1.00  0.00    -0.193 A  
HETATM    9  C   UNL     1      -8.913   5.666  65.699  1.00  0.00    -0.131 A  
HETATM   10  N   UNL     1      -8.747   4.427  66.264  1.00  0.00    -0.112 NA 
HETATM   11  C   UNL     1      -9.191   4.436  67.566  1.00  0.00    -0.143 A  
HETATM   12  H   UNL     1      -8.351   3.616  65.788  1.00  0.00     0.000 HD 
HETATM   13  C   UNL     1      -9.729   5.699  67.794  1.00  0.00    -0.140 A  
HETATM   14  C   UNL     1     -10.295   5.967  69.053  1.00  0.00    -0.283 A  
HETATM   15  C   UNL     1     -10.228   5.028  70.092  1.00  0.00    -0.329 A  
HETATM   16  C   UNL     1      -9.642   3.781  69.829  1.00  0.00    -0.253 A  
HETATM   17  C   UNL     1      -9.144   3.451  68.558  1.00  0.00    -0.206 A  
BRANCH  15  18
HETATM   18  C   UNL     1     -10.649   5.392  71.502  1.00  0.00    -0.285 C  
BRANCH  18  19
HETATM   19  C   UNL     1     -11.788   6.402  71.572  1.00  0.00    -0.298 C  
BRANCH  19  20
HETATM   20  S   UNL     1     -11.344   7.853  72.501  1.00  0.00    -0.406 S  
HETATM   21  O   UNL     1     -10.421   7.461  73.546  1.00  0.00    -0.355 OA 
HETATM   22  O   UNL     1     -12.547   8.599  72.798  1.00  0.00    -0.319 OA 
BRANCH  20  23
HETATM   23  C   UNL     1     -10.417   8.777  71.291  1.00  0.00    -0.256 A  
HETATM   24  C   UNL     1     -11.099   9.606  70.394  1.00  0.00    -0.346 A  
HETATM   25  C   UNL     1     -10.380  10.297  69.421  1.00  0.00    -0.256 A  
HETATM   26  C   UNL     1      -8.992  10.165  69.350  1.00  0.00    -0.205 A  
HETATM   27  C   UNL     1      -8.315   9.348  70.258  1.00  0.00    -0.217 A  
HETATM   28  C   UNL     1      -9.025   8.652  71.237  1.00  0.00    -0.268 A  
ENDBRANCH  20  23
ENDBRANCH  19  20
ENDBRANCH  18  19
ENDBRANCH  15  18
ENDBRANCH   7   8
ENDBRANCH   6   7
TORSDOF 6
ENDMDL
MODEL      149
REMARK 921   NORMALIZED FREE ENERGY PREDICTED BY IDOCK:   -4.82 KCAL/MOL
REMARK 922        TOTAL FREE ENERGY PREDICTED BY IDOCK:   -8.08 KCAL/MOL
REMARK 923 INTER-LIGAND FREE ENERGY PREDICTED BY IDOCK:   -7.22 KCAL/MOL
REMARK 924 INTRA-LIGAND FREE ENERGY PREDICTED BY IDOCK:   -0.86 KCAL/MOL
REMARK 927      BINDING AFFINITY PREDICTED BY RF-SCORE:    0.00 PKD
ROOT
HETATM    1  C   UNL     1     -10.074   8.738  67.983  1.00  0.00    -0.196 C  
HETATM    2  N   UNL     1      -8.823   9.482  68.104  1.00  0.00    -0.124 NA 
HETATM    3  C   UNL     1      -7.875   8.774  68.974  1.00  0.00    -0.096 C  
HETATM    4  C   UNL     1      -6.522   9.268  68.514  1.00  0.00    -0.053 C  
HETATM    5  C   UNL     1      -6.686   9.353  67.011  1.00  0.00    -0.076 C  
HETATM    6  C   UNL     1      -8.164   9.709  66.796  1.00  0.00    -0.113 C  
ENDROOT
BRANCH   6   7
HETATM    7  C   UNL     1      -8.372  11.176  66.340  1.00  0.00    -0.167 C  
BRANCH   7   8
HETATM    8  C   UNL     1      -9.478  11.352  65.332  1.00  0.00    -0.240 A  
HETATM    9  C   UNL     1     -10.118  10.356  64.620  1.00  0.00    -0.308 A  
HETATM   10  N   UNL     1     -11.134  10.925  63.894  1.00  0.00    -0.312 NA 
HETATM   11  C   UNL     1     -11.186  12.278  64.132  1.00  0.00    -0.369 A  
HETATM   12  H   UNL     1     -11.759  10.417  63.267  1.00  0.00     0.000 HD 
HETATM   13  C   UNL     1     -10.116  12.578  64.969  1.00  0.00    -0.258 A  
HETATM   14  C   UNL     1      -9.913  13.918  65.343  1.00  0.00    -0.274 A  
HETATM   15  C   UNL     1     -10.824  14.918  64.973  1.00  0.00    -0.439 A  
HETATM   16  C   UNL     1     -11.910  14.565  64.160  1.00  0.00    -0.290 A  
HETATM   17  C   UNL     1     -12.093  13.251  63.699  1.00  0.00    -0.551 A  
BRANCH  15  18
HETATM   18  C   UNL     1     -10.720  16.318  65.545  1.00  0.00    -0.326 C  
BRANCH  18  19
HETATM   19  C   UNL     1      -9.672  16.469  66.641  1.00  0.00    -0.260 C  
BRANCH  19  20
HETATM   20  S   UNL     1     -10.301  17.338  68.059  1.00  0.00    -0.368 S  
HETATM   21  O   UNL     1     -11.342  18.243  67.615  1.00  0.00     0.085 OA 
HETATM   22  O   UNL     1      -9.184  17.804  68.851  1.00  0.00    -0.242 OA 
BRANCH  20  23
HETATM   23  C   UNL     1     -11.092  16.018  68.960  1.00  0.00    -0.320 A  
HETATM   24  C   UNL     1     -11.222  16.120  70.349  1.00  0.00    -0.394 A  
HETATM   25  C   UNL     1     -11.802  15.071  71.059  1.00  0.00    -0.373 A  
HETATM   26  C   UNL     1     -12.253  13.934  70.385  1.00  0.00    -0.438 A  
HETATM   27  C   UNL     1     -12.135  13.845  68.997  1.00  0.00    -0.365 A  
HETATM   28  C   UNL     1     -11.556  14.890  68.275  1.00  0.00    -0.356 A  
ENDBRANCH  20  23
ENDBRANCH  19  20
ENDBRANCH  18  19
ENDBRANCH  15  18
ENDBRANCH   7   8
ENDBRANCH   6   7
TORSDOF 6
ENDMDL
MODEL      150
REMARK 921   NORMALIZED FREE ENERGY PREDICTED BY IDOCK:   -4.80 KCAL/MOL
REMARK 922        TOTAL FREE ENERGY PREDICTED BY IDOCK:   -8.06 KCAL/MOL
REMARK 923 INTER-LIGAND FREE ENERGY PREDICTED BY IDOCK:   -7.06 KCAL/MOL
REMARK 924 INTRA-LIGAND FREE ENERGY PREDICTED BY IDOCK:   -1.00 KCAL/MOL
REMARK 927      BINDING AFFINITY PREDICTED BY RF-SCORE:    0.00 PKD
ROOT
HETATM    1  C   UNL     1     -12.759   9.313  71.521  1.00  0.00    -0.350 C  
HETATM    2  N   UNL     1     -11.750   8.283  71.751  1.00  0.00    -0.284 NA 
HETATM    3  C   UNL     1     -12.362   6.948  71.772  1.00  0.00    -0.361 C  
HETATM    4  C   UNL     1     -11.230   6.024  71.382  1.00  0.00    -0.325 C  
HETATM    5  C   UNL     1     -10.501   6.813  70.316  1.00  0.00    -0.238 C  
HETATM    6  C   UNL     1     -10.686   8.283  70.718  1.00  0.00    -0.218 C  
ENDROOT
BRANCH   6   7
HETATM    7  C   UNL     1      -9.392   8.923  71.286  1.00  0.00    -0.336 C  
BRANCH   7   8
HETATM    8  C   UNL     1      -8.241   8.940  70.314  1.00  0.00    -0.134 A  
HETATM    9  C   UNL     1      -7.237   7.998  70.201  1.00  0.00    -0.056 A  
HETATM   10  N   UNL     1      -6.451   8.327  69.125  1.00  0.00    -0.039 NA 
HETATM   11  C   UNL     1      -6.936   9.460  68.514  1.00  0.00    -0.066 A  
HETATM   12  H   UNL     1      -5.628   7.807  68.822  1.00  0.00     0.000 HD 
HETATM   13  C   UNL     1      -8.008   9.901  69.283  1.00  0.00    -0.121 A  
HETATM   14  C   UNL     1      -8.670  11.080  68.896  1.00  0.00    -0.122 A  
HETATM   15  C   UNL     1      -8.332  11.742  67.708  1.00  0.00    -0.146 A  
HETATM   16  C   UNL     1      -7.269  11.241  66.942  1.00  0.00    -0.142 A  
HETATM   17  C   UNL     1      -6.533  10.116  67.346  1.00  0.00    -0.067 A  
BRANCH  15  18
HETATM   18  C   UNL     1      -9.177  12.888  67.185  1.00  0.00    -0.225 C  
BRANCH  18  19
HETATM   19  C   UNL     1      -9.846  13.717  68.275  1.00  0.00    -0.232 C  
BRANCH  19  20
HETATM   20  S   UNL     1     -11.618  13.577  68.234  1.00  0.00    -0.368 S  
HETATM   21  O   UNL     1     -11.965  12.170  68.231  1.00  0.00    -0.384 OA 
HETATM   22  O   UNL     1     -12.132  14.482  67.230  1.00  0.00    -0.392 OA 
BRANCH  20  23
HETATM   23  C   UNL     1     -12.061  14.230  69.832  1.00  0.00    -0.347 A  
HETATM   24  C   UNL     1     -11.817  15.579  70.111  1.00  0.00    -0.378 A  
HETATM   25  C   UNL     1     -12.124  16.082  71.374  1.00  0.00    -0.479 A  
HETATM   26  C   UNL     1     -12.676  15.245  72.345  1.00  0.00    -0.449 A  
HETATM   27  C   UNL     1     -12.932  13.903  72.056  1.00  0.00    -0.438 A  
HETATM   28  C   UNL     1     -12.629  13.389  70.794  1.00  0.00    -0.369 A  
ENDBRANCH  20  23
ENDBRANCH  19  20
ENDBRANCH  18  19
ENDBRANCH  15  18
ENDBRANCH   7   8
ENDBRANCH   6   7
TORSDOF 6
ENDMDL
MODEL      151
REMARK 921   NORMALIZED FREE ENERGY PREDICTED BY IDOCK:   -4.80 KCAL/MOL
REMARK 922        TOTAL FREE ENERGY PREDICTED BY IDOCK:   -8.06 KCAL/MOL
REMARK 923 INTER-LIGAND FREE ENERGY PREDICTED BY IDOCK:   -6.81 KCAL/MOL
REMARK 924 INTRA-LIGAND FREE ENERGY PREDICTED BY IDOCK:   -1.25 KCAL/MOL
REMARK 927      BINDING AFFINITY PREDICTED BY RF-SCORE:    0.00 PKD
ROOT
HETATM    1  C   UNL     1      -8.247   4.426  68.100  1.00  0.00    -0.090 C  
HETATM    2  N   UNL     1      -8.376   5.787  67.588  1.00  0.00    -0.105 NA 
HETATM    3  C   UNL     1      -7.061   6.432  67.479  1.00  0.00    -0.080 C  
HETATM    4  C   UNL     1      -7.259   7.484  66.411  1.00  0.00    -0.075 C  
HETATM    5  C   UNL     1      -8.157   6.785  65.412  1.00  0.00    -0.129 C  
HETATM    6  C   UNL     1      -9.023   5.839  66.255  1.00  0.00    -0.146 C  
ENDROOT
BRANCH   6   7
HETATM    7  C   UNL     1     -10.491   6.322  66.393  1.00  0.00    -0.065 C  
BRANCH   7   8
HETATM    8  C   UNL     1     -10.754   7.131  67.636  1.00  0.00    -0.314 A  
HETATM    9  C   UNL     1     -11.138   6.650  68.872  1.00  0.00    -0.246 A  
HETATM   10  N   UNL     1     -11.165   7.699  69.757  1.00  0.00    -0.448 NA 
HETATM   11  C   UNL     1     -10.782   8.860  69.127  1.00  0.00    -0.143 A  
HETATM   12  H   UNL     1     -11.429   7.627  70.740  1.00  0.00     0.000 HD 
HETATM   13  C   UNL     1     -10.593   8.542  67.786  1.00  0.00    -0.242 A  
HETATM   14  C   UNL     1     -10.229   9.571  66.899  1.00  0.00    -0.317 A  
HETATM   15  C   UNL     1      -9.960  10.866  67.365  1.00  0.00    -0.215 A  
HETATM   16  C   UNL     1     -10.126  11.133  68.732  1.00  0.00    -0.211 A  
HETATM   17  C   UNL     1     -10.571  10.148  69.629  1.00  0.00    -0.286 A  
BRANCH  15  18
HETATM   18  C   UNL     1      -9.369  11.918  66.447  1.00  0.00    -0.233 C  
BRANCH  18  19
HETATM   19  C   UNL     1      -9.933  11.899  65.031  1.00  0.00    -0.248 C  
BRANCH  19  20
HETATM   20  S   UNL     1     -11.493  12.746  64.917  1.00  0.00    -0.336 S  
HETATM   21  O   UNL     1     -12.465  12.021  65.709  1.00  0.00    -0.366 OA 
HETATM   22  O   UNL     1     -11.742  13.071  63.530  1.00  0.00    -0.487 OA 
BRANCH  20  23
HETATM   23  C   UNL     1     -11.133  14.266  65.776  1.00  0.00    -0.310 A  
HETATM   24  C   UNL     1     -10.263  15.192  65.191  1.00  0.00    -0.386 A  
HETATM   25  C   UNL     1      -9.948  16.362  65.880  1.00  0.00    -0.358 A  
HETATM   26  C   UNL     1     -10.503  16.605  67.137  1.00  0.00    -0.300 A  
HETATM   27  C   UNL     1     -11.384  15.684  67.709  1.00  0.00    -0.261 A  
HETATM   28  C   UNL     1     -11.707  14.510  67.027  1.00  0.00    -0.412 A  
ENDBRANCH  20  23
ENDBRANCH  19  20
ENDBRANCH  18  19
ENDBRANCH  15  18
ENDBRANCH   7   8
ENDBRANCH   6   7
TORSDOF 6
ENDMDL
MODEL      152
REMARK 921   NORMALIZED FREE ENERGY PREDICTED BY IDOCK:   -4.79 KCAL/MOL
REMARK 922        TOTAL FREE ENERGY PREDICTED BY IDOCK:   -8.05 KCAL/MOL
REMARK 923 INTER-LIGAND FREE ENERGY PREDICTED BY IDOCK:   -6.65 KCAL/MOL
REMARK 924 INTRA-LIGAND FREE ENERGY PREDICTED BY IDOCK:   -1.40 KCAL/MOL
REMARK 927      BINDING AFFINITY PREDICTED BY RF-SCORE:    0.00 PKD
ROOT
HETATM    1  C   UNL     1      -8.457   3.669  65.883  1.00  0.00    -0.111 C  
HETATM    2  N   UNL     1      -9.067   4.982  66.071  1.00  0.00    -0.141 NA 
HETATM    3  C   UNL     1     -10.531   4.878  66.100  1.00  0.00    -0.302 C  
HETATM    4  C   UNL     1     -10.966   6.089  66.896  1.00  0.00    -0.350 C  
HETATM    5  C   UNL     1      -9.911   6.178  67.978  1.00  0.00    -0.156 C  
HETATM    6  C   UNL     1      -8.629   5.642  67.325  1.00  0.00    -0.109 C  
ENDROOT
BRANCH   6   7
HETATM    7  C   UNL     1      -7.599   6.758  67.009  1.00  0.00    -0.095 C  
BRANCH   7   8
HETATM    8  C   UNL     1      -7.983   7.632  65.843  1.00  0.00    -0.116 A  
HETATM    9  C   UNL     1      -7.690   7.414  64.511  1.00  0.00    -0.126 A  
HETATM   10  N   UNL     1      -8.312   8.383  63.765  1.00  0.00    -0.356 NA 
HETATM   11  C   UNL     1      -9.029   9.224  64.584  1.00  0.00    -0.154 A  
HETATM   12  H   UNL     1      -8.252   8.468  62.750  1.00  0.00     0.000 HD 
HETATM   13  C   UNL     1      -8.778   8.818  65.891  1.00  0.00    -0.198 A  
HETATM   14  C   UNL     1      -9.367   9.542  66.942  1.00  0.00    -0.185 A  
HETATM   15  C   UNL     1     -10.271  10.583  66.685  1.00  0.00    -0.289 A  
HETATM   16  C   UNL     1     -10.525  10.935  65.352  1.00  0.00    -0.291 A  
HETATM   17  C   UNL     1      -9.887  10.287  64.282  1.00  0.00    -0.357 A  
BRANCH  15  18
HETATM   18  C   UNL     1     -11.062  11.224  67.809  1.00  0.00    -0.328 C  
BRANCH  18  19
HETATM   19  C   UNL     1     -10.254  12.186  68.672  1.00  0.00    -0.174 C  
BRANCH  19  20
HETATM   20  S   UNL     1     -10.921  13.835  68.646  1.00  0.00    -0.274 S  
HETATM   21  O   UNL     1      -9.871  14.758  69.023  1.00  0.00    -0.224 OA 
HETATM   22  O   UNL     1     -12.199  13.828  69.325  1.00  0.00    -0.337 OA 
BRANCH  20  23
HETATM   23  C   UNL     1     -11.232  14.063  66.906  1.00  0.00    -0.313 A  
HETATM   24  C   UNL     1     -10.186  14.473  66.072  1.00  0.00    -0.329 A  
HETATM   25  C   UNL     1     -10.438  14.692  64.719  1.00  0.00    -0.343 A  
HETATM   26  C   UNL     1     -11.720  14.496  64.205  1.00  0.00    -0.222 A  
HETATM   27  C   UNL     1     -12.757  14.072  65.038  1.00  0.00    -0.359 A  
HETATM   28  C   UNL     1     -12.517  13.849  66.395  1.00  0.00    -0.414 A  
ENDBRANCH  20  23
ENDBRANCH  19  20
ENDBRANCH  18  19
ENDBRANCH  15  18
ENDBRANCH   7   8
ENDBRANCH   6   7
TORSDOF 6
ENDMDL
MODEL      153
REMARK 921   NORMALIZED FREE ENERGY PREDICTED BY IDOCK:   -4.79 KCAL/MOL
REMARK 922        TOTAL FREE ENERGY PREDICTED BY IDOCK:   -8.05 KCAL/MOL
REMARK 923 INTER-LIGAND FREE ENERGY PREDICTED BY IDOCK:   -7.26 KCAL/MOL
REMARK 924 INTRA-LIGAND FREE ENERGY PREDICTED BY IDOCK:   -0.79 KCAL/MOL
REMARK 927      BINDING AFFINITY PREDICTED BY RF-SCORE:    0.00 PKD
ROOT
HETATM    1  C   UNL     1     -10.326   7.657  66.625  1.00  0.00    -0.187 C  
HETATM    2  N   UNL     1      -9.427   8.757  66.288  1.00  0.00    -0.216 NA 
HETATM    3  C   UNL     1      -8.202   8.254  65.653  1.00  0.00    -0.134 C  
HETATM    4  C   UNL     1      -7.713   9.425  64.829  1.00  0.00    -0.116 C  
HETATM    5  C   UNL     1      -8.997  10.013  64.284  1.00  0.00    -0.269 C  
HETATM    6  C   UNL     1     -10.047   9.743  65.371  1.00  0.00    -0.126 C  
ENDROOT
BRANCH   6   7
HETATM    7  C   UNL     1     -10.451  11.020  66.154  1.00  0.00    -0.301 C  
BRANCH   7   8
HETATM    8  C   UNL     1     -11.231  12.016  65.337  1.00  0.00    -0.374 A  
HETATM    9  C   UNL     1     -12.406  11.786  64.649  1.00  0.00     0.141 A  
HETATM   10  N   UNL     1     -12.846  12.978  64.129  1.00  0.00    -0.668 NA 
HETATM   11  C   UNL     1     -11.989  13.994  64.483  1.00  0.00    -0.448 A  
HETATM   12  H   UNL     1     -13.687  13.093  63.563  1.00  0.00     0.000 HD 
HETATM   13  C   UNL     1     -10.936  13.405  65.174  1.00  0.00    -0.315 A  
HETATM   14  C   UNL     1      -9.886  14.226  65.623  1.00  0.00    -0.301 A  
HETATM   15  C   UNL     1      -9.945  15.619  65.474  1.00  0.00    -0.364 A  
HETATM   16  C   UNL     1     -11.044  16.175  64.804  1.00  0.00    -0.345 A  
HETATM   17  C   UNL     1     -12.066  15.374  64.269  1.00  0.00    -0.178 A  
BRANCH  15  18
HETATM   18  C   UNL     1      -8.920  16.518  66.138  1.00  0.00    -0.344 C  
BRANCH  18  19
HETATM   19  C   UNL     1      -9.437  17.254  67.368  1.00  0.00    -0.245 C  
BRANCH  19  20
HETATM   20  S   UNL     1      -9.248  19.017  67.226  1.00  0.00    -0.291 S  
HETATM   21  O   UNL     1     -10.260  19.652  68.046  1.00  0.00    -0.410 OA 
HETATM   22  O   UNL     1      -9.090  19.355  65.828  1.00  0.00    -0.379 OA 
BRANCH  20  23
HETATM   23  C   UNL     1      -7.676  19.269  68.028  1.00  0.00    -0.288 A  
HETATM   24  C   UNL     1      -7.646  19.794  69.324  1.00  0.00    -0.158 A  
HETATM   25  C   UNL     1      -6.417  20.031  69.937  1.00  0.00    -0.362 A  
HETATM   26  C   UNL     1      -5.231  19.740  69.261  1.00  0.00    -0.209 A  
HETATM   27  C   UNL     1      -5.267  19.202  67.973  1.00  0.00    -0.172 A  
HETATM   28  C   UNL     1      -6.493  18.960  67.350  1.00  0.00    -0.195 A  
ENDBRANCH  20  23
ENDBRANCH  19  20
ENDBRANCH  18  19
ENDBRANCH  15  18
ENDBRANCH   7   8
ENDBRANCH   6   7
TORSDOF 6
ENDMDL
MODEL      154
REMARK 921   NORMALIZED FREE ENERGY PREDICTED BY IDOCK:   -4.79 KCAL/MOL
REMARK 922        TOTAL FREE ENERGY PREDICTED BY IDOCK:   -8.04 KCAL/MOL
REMARK 923 INTER-LIGAND FREE ENERGY PREDICTED BY IDOCK:   -7.37 KCAL/MOL
REMARK 924 INTRA-LIGAND FREE ENERGY PREDICTED BY IDOCK:   -0.67 KCAL/MOL
REMARK 927      BINDING AFFINITY PREDICTED BY RF-SCORE:    0.00 PKD
ROOT
HETATM    1  C   UNL     1     -12.906  13.665  64.878  1.00  0.00    -0.203 C  
HETATM    2  N   UNL     1     -11.919  12.595  64.769  1.00  0.00    -0.379 NA 
HETATM    3  C   UNL     1     -11.251  12.632  63.462  1.00  0.00    -0.429 C  
HETATM    4  C   UNL     1      -9.919  11.961  63.716  1.00  0.00    -0.379 C  
HETATM    5  C   UNL     1      -9.539  12.473  65.089  1.00  0.00     0.062 C  
HETATM    6  C   UNL     1     -10.876  12.669  65.820  1.00  0.00    -0.274 C  
ENDROOT
BRANCH   6   7
HETATM    7  C   UNL     1     -11.135  11.593  66.906  1.00  0.00    -0.365 C  
BRANCH   7   8
HETATM    8  C   UNL     1     -11.482  12.160  68.258  1.00  0.00    -0.360 A  
HETATM    9  C   UNL     1     -11.703  13.487  68.568  1.00  0.00    -0.357 A  
HETATM   10  N   UNL     1     -12.099  13.567  69.880  1.00  0.00    -0.344 NA 
HETATM   11  C   UNL     1     -12.163  12.310  70.432  1.00  0.00    -0.288 A  
HETATM   12  H   UNL     1     -12.315  14.434  70.373  1.00  0.00     0.000 HD 
HETATM   13  C   UNL     1     -11.711  11.423  69.460  1.00  0.00    -0.417 A  
HETATM   14  C   UNL     1     -11.639  10.056  69.782  1.00  0.00    -0.193 A  
HETATM   15  C   UNL     1     -12.108   9.577  71.013  1.00  0.00    -0.398 A  
HETATM   16  C   UNL     1     -12.591  10.502  71.950  1.00  0.00    -0.349 A  
HETATM   17  C   UNL     1     -12.597  11.882  71.691  1.00  0.00    -0.237 A  
BRANCH  15  18
HETATM   18  C   UNL     1     -12.223   8.089  71.279  1.00  0.00    -0.308 C  
BRANCH  18  19
HETATM   19  C   UNL     1     -11.725   7.659  72.653  1.00  0.00    -0.270 C  
BRANCH  19  20
HETATM   20  S   UNL     1      -9.966   7.395  72.679  1.00  0.00    -0.213 S  
HETATM   21  O   UNL     1      -9.497   7.581  74.037  1.00  0.00    -0.263 OA 
HETATM   22  O   UNL     1      -9.373   8.111  71.572  1.00  0.00    -0.142 OA 
BRANCH  20  23
HETATM   23  C   UNL     1      -9.866   5.652  72.315  1.00  0.00    -0.159 A  
HETATM   24  C   UNL     1      -9.345   5.239  71.084  1.00  0.00    -0.192 A  
HETATM   25  C   UNL     1      -9.305   3.880  70.781  1.00  0.00    -0.214 A  
HETATM   26  C   UNL     1      -9.774   2.943  71.704  1.00  0.00    -0.226 A  
HETATM   27  C   UNL     1     -10.278   3.360  72.937  1.00  0.00    -0.240 A  
HETATM   28  C   UNL     1     -10.322   4.719  73.252  1.00  0.00    -0.233 A  
ENDBRANCH  20  23
ENDBRANCH  19  20
ENDBRANCH  18  19
ENDBRANCH  15  18
ENDBRANCH   7   8
ENDBRANCH   6   7
TORSDOF 6
ENDMDL
MODEL      155
REMARK 921   NORMALIZED FREE ENERGY PREDICTED BY IDOCK:   -4.78 KCAL/MOL
REMARK 922        TOTAL FREE ENERGY PREDICTED BY IDOCK:   -8.03 KCAL/MOL
REMARK 923 INTER-LIGAND FREE ENERGY PREDICTED BY IDOCK:   -7.23 KCAL/MOL
REMARK 924 INTRA-LIGAND FREE ENERGY PREDICTED BY IDOCK:   -0.79 KCAL/MOL
REMARK 927      BINDING AFFINITY PREDICTED BY RF-SCORE:    0.00 PKD
ROOT
HETATM    1  C   UNL     1     -10.614  19.721  65.647  1.00  0.00    -0.355 C  
HETATM    2  N   UNL     1      -9.789  19.609  66.847  1.00  0.00    -0.355 NA 
HETATM    3  C   UNL     1     -10.483  20.169  68.013  1.00  0.00    -0.249 C  
HETATM    4  C   UNL     1      -9.859  19.449  69.187  1.00  0.00    -0.425 C  
HETATM    5  C   UNL     1      -9.682  18.040  68.665  1.00  0.00    -0.356 C  
HETATM    6  C   UNL     1      -9.422  18.207  67.161  1.00  0.00    -0.264 C  
ENDROOT
BRANCH   6   7
HETATM    7  C   UNL     1      -7.946  17.940  66.768  1.00  0.00    -0.259 C  
BRANCH   7   8
HETATM    8  C   UNL     1      -7.055  17.601  67.934  1.00  0.00    -0.190 A  
HETATM    9  C   UNL     1      -6.391  18.490  68.757  1.00  0.00    -0.223 A  
HETATM   10  N   UNL     1      -5.778  17.781  69.759  1.00  0.00    -0.231 NA 
HETATM   11  C   UNL     1      -6.046  16.439  69.621  1.00  0.00    -0.205 A  
HETATM   12  H   UNL     1      -5.208  18.190  70.499  1.00  0.00     0.000 HD 
HETATM   13  C   UNL     1      -6.778  16.297  68.447  1.00  0.00    -0.136 A  
HETATM   14  C   UNL     1      -7.155  15.003  68.045  1.00  0.00    -0.142 A  
HETATM   15  C   UNL     1      -6.894  13.889  68.856  1.00  0.00    -0.109 A  
HETATM   16  C   UNL     1      -6.186  14.083  70.051  1.00  0.00    -0.142 A  
HETATM   17  C   UNL     1      -5.721  15.351  70.438  1.00  0.00    -0.127 A  
BRANCH  15  18
HETATM   18  C   UNL     1      -7.479  12.530  68.526  1.00  0.00    -0.122 C  
BRANCH  18  19
HETATM   19  C   UNL     1      -8.329  12.506  67.262  1.00  0.00    -0.185 C  
BRANCH  19  20
HETATM   20  S   UNL     1      -9.962  11.868  67.562  1.00  0.00    -0.189 S  
HETATM   21  O   UNL     1     -10.627  12.741  68.508  1.00  0.00    -0.244 OA 
HETATM   22  O   UNL     1      -9.869  10.442  67.788  1.00  0.00    -0.164 OA 
BRANCH  20  23
HETATM   23  C   UNL     1     -10.736  12.117  65.975  1.00  0.00    -0.273 A  
HETATM   24  C   UNL     1      -9.980  11.938  64.811  1.00  0.00    -0.262 A  
HETATM   25  C   UNL     1     -10.572  12.173  63.571  1.00  0.00    -0.501 A  
HETATM   26  C   UNL     1     -11.906  12.575  63.497  1.00  0.00    -0.616 A  
HETATM   27  C   UNL     1     -12.660  12.736  64.661  1.00  0.00    -0.491 A  
HETATM   28  C   UNL     1     -12.078  12.503  65.908  1.00  0.00    -0.420 A  
ENDBRANCH  20  23
ENDBRANCH  19  20
ENDBRANCH  18  19
ENDBRANCH  15  18
ENDBRANCH   7   8
ENDBRANCH   6   7
TORSDOF 6
ENDMDL
MODEL      156
REMARK 921   NORMALIZED FREE ENERGY PREDICTED BY IDOCK:   -4.77 KCAL/MOL
REMARK 922        TOTAL FREE ENERGY PREDICTED BY IDOCK:   -8.01 KCAL/MOL
REMARK 923 INTER-LIGAND FREE ENERGY PREDICTED BY IDOCK:   -6.83 KCAL/MOL
REMARK 924 INTRA-LIGAND FREE ENERGY PREDICTED BY IDOCK:   -1.18 KCAL/MOL
REMARK 927      BINDING AFFINITY PREDICTED BY RF-SCORE:    0.00 PKD
ROOT
HETATM    1  C   UNL     1      -7.618   5.825  69.588  1.00  0.00    -0.076 C  
HETATM    2  N   UNL     1      -8.461   6.527  70.552  1.00  0.00    -0.136 NA 
HETATM    3  C   UNL     1      -7.773   6.672  71.840  1.00  0.00    -0.097 C  
HETATM    4  C   UNL     1      -8.426   7.884  72.467  1.00  0.00    -0.197 C  
HETATM    5  C   UNL     1      -8.622   8.810  71.286  1.00  0.00    -0.258 C  
HETATM    6  C   UNL     1      -8.858   7.878  70.089  1.00  0.00    -0.144 C  
ENDROOT
BRANCH   6   7
HETATM    7  C   UNL     1     -10.333   7.868  69.612  1.00  0.00    -0.216 C  
BRANCH   7   8
HETATM    8  C   UNL     1     -11.294   8.505  70.581  1.00  0.00    -0.265 A  
HETATM    9  C   UNL     1     -11.811   7.939  71.730  1.00  0.00    -0.293 A  
HETATM   10  N   UNL     1     -12.558   8.886  72.384  1.00  0.00    -0.377 NA 
HETATM   11  C   UNL     1     -12.524  10.075  71.693  1.00  0.00    -0.418 A  
HETATM   12  H   UNL     1     -13.065   8.731  73.255  1.00  0.00     0.000 HD 
HETATM   13  C   UNL     1     -11.802   9.839  70.527  1.00  0.00    -0.316 A  
HETATM   14  C   UNL     1     -11.646  10.894  69.611  1.00  0.00    -0.394 A  
HETATM   15  C   UNL     1     -12.113  12.183  69.906  1.00  0.00    -0.324 A  
HETATM   16  C   UNL     1     -12.802  12.385  71.110  1.00  0.00    -0.299 A  
HETATM   17  C   UNL     1     -13.048  11.333  72.007  1.00  0.00    -0.431 A  
BRANCH  15  18
HETATM   18  C   UNL     1     -11.765  13.361  69.017  1.00  0.00    -0.368 C  
BRANCH  18  19
HETATM   19  C   UNL     1     -12.146  13.173  67.554  1.00  0.00    -0.248 C  
BRANCH  19  20
HETATM   20  S   UNL     1     -10.879  13.755  66.449  1.00  0.00    -0.288 S  
HETATM   21  O   UNL     1     -10.250  14.915  67.046  1.00  0.00    -0.252 OA 
HETATM   22  O   UNL     1     -11.418  13.796  65.107  1.00  0.00    -0.308 OA 
BRANCH  20  23
HETATM   23  C   UNL     1      -9.704  12.416  66.522  1.00  0.00    -0.240 A  
HETATM   24  C   UNL     1      -8.664  12.469  67.456  1.00  0.00    -0.182 A  
HETATM   25  C   UNL     1      -7.721  11.444  67.486  1.00  0.00    -0.125 A  
HETATM   26  C   UNL     1      -7.822  10.373  66.597  1.00  0.00    -0.120 A  
HETATM   27  C   UNL     1      -8.872  10.317  65.678  1.00  0.00    -0.186 A  
HETATM   28  C   UNL     1      -9.822  11.338  65.639  1.00  0.00    -0.277 A  
ENDBRANCH  20  23
ENDBRANCH  19  20
ENDBRANCH  18  19
ENDBRANCH  15  18
ENDBRANCH   7   8
ENDBRANCH   6   7
TORSDOF 6
ENDMDL
MODEL      157
REMARK 921   NORMALIZED FREE ENERGY PREDICTED BY IDOCK:   -4.76 KCAL/MOL
REMARK 922        TOTAL FREE ENERGY PREDICTED BY IDOCK:   -8.01 KCAL/MOL
REMARK 923 INTER-LIGAND FREE ENERGY PREDICTED BY IDOCK:   -7.46 KCAL/MOL
REMARK 924 INTRA-LIGAND FREE ENERGY PREDICTED BY IDOCK:   -0.55 KCAL/MOL
REMARK 927      BINDING AFFINITY PREDICTED BY RF-SCORE:    0.00 PKD
ROOT
HETATM    1  C   UNL     1     -11.142   5.985  69.700  1.00  0.00    -0.404 C  
HETATM    2  N   UNL     1     -11.299   7.235  70.437  1.00  0.00    -0.283 NA 
HETATM    3  C   UNL     1     -12.311   7.096  71.491  1.00  0.00    -0.370 C  
HETATM    4  C   UNL     1     -11.926   8.150  72.506  1.00  0.00    -0.410 C  
HETATM    5  C   UNL     1     -10.414   8.082  72.505  1.00  0.00    -0.383 C  
HETATM    6  C   UNL     1     -10.038   7.690  71.069  1.00  0.00    -0.189 C  
ENDROOT
BRANCH   6   7
HETATM    7  C   UNL     1      -9.428   8.864  70.261  1.00  0.00    -0.212 C  
BRANCH   7   8
HETATM    8  C   UNL     1      -8.984   8.485  68.872  1.00  0.00    -0.146 A  
HETATM    9  C   UNL     1      -8.338   7.324  68.496  1.00  0.00    -0.125 A  
HETATM   10  N   UNL     1      -8.211   7.320  67.129  1.00  0.00    -0.117 NA 
HETATM   11  C   UNL     1      -8.784   8.452  66.597  1.00  0.00    -0.131 A  
HETATM   12  H   UNL     1      -7.758   6.585  66.587  1.00  0.00     0.000 HD 
HETATM   13  C   UNL     1      -9.206   9.228  67.672  1.00  0.00    -0.139 A  
HETATM   14  C   UNL     1      -9.802  10.474  67.405  1.00  0.00    -0.204 A  
HETATM   15  C   UNL     1     -10.062  10.884  66.090  1.00  0.00    -0.291 A  
HETATM   16  C   UNL     1      -9.653  10.053  65.037  1.00  0.00    -0.362 A  
HETATM   17  C   UNL     1      -8.980   8.843  65.269  1.00  0.00    -0.213 A  
BRANCH  15  18
HETATM   18  C   UNL     1     -10.886  12.125  65.809  1.00  0.00    -0.319 C  
BRANCH  18  19
HETATM   19  C   UNL     1     -10.163  13.434  66.098  1.00  0.00    -0.301 C  
BRANCH  19  20
HETATM   20  S   UNL     1     -10.664  14.152  67.646  1.00  0.00    -0.260 S  
HETATM   21  O   UNL     1      -9.672  13.818  68.647  1.00  0.00    -0.213 OA 
HETATM   22  O   UNL     1     -12.068  13.872  67.854  1.00  0.00    -0.366 OA 
BRANCH  20  23
HETATM   23  C   UNL     1     -10.503  15.893  67.297  1.00  0.00    -0.310 A  
HETATM   24  C   UNL     1     -10.381  16.795  68.359  1.00  0.00    -0.319 A  
HETATM   25  C   UNL     1     -10.297  18.160  68.090  1.00  0.00    -0.393 A  
HETATM   26  C   UNL     1     -10.329  18.616  66.771  1.00  0.00    -0.449 A  
HETATM   27  C   UNL     1     -10.436  17.710  65.714  1.00  0.00    -0.208 A  
HETATM   28  C   UNL     1     -10.520  16.341  65.972  1.00  0.00    -0.342 A  
ENDBRANCH  20  23
ENDBRANCH  19  20
ENDBRANCH  18  19
ENDBRANCH  15  18
ENDBRANCH   7   8
ENDBRANCH   6   7
TORSDOF 6
ENDMDL
MODEL      158
REMARK 921   NORMALIZED FREE ENERGY PREDICTED BY IDOCK:   -4.75 KCAL/MOL
REMARK 922        TOTAL FREE ENERGY PREDICTED BY IDOCK:   -8.00 KCAL/MOL
REMARK 923 INTER-LIGAND FREE ENERGY PREDICTED BY IDOCK:   -7.00 KCAL/MOL
REMARK 924 INTRA-LIGAND FREE ENERGY PREDICTED BY IDOCK:   -1.00 KCAL/MOL
REMARK 927      BINDING AFFINITY PREDICTED BY RF-SCORE:    0.00 PKD
ROOT
HETATM    1  C   UNL     1      -8.945   5.797  70.478  1.00  0.00    -0.143 C  
HETATM    2  N   UNL     1     -10.087   6.641  70.818  1.00  0.00    -0.184 NA 
HETATM    3  C   UNL     1     -10.120   6.920  72.259  1.00  0.00    -0.176 C  
HETATM    4  C   UNL     1     -10.882   8.222  72.360  1.00  0.00    -0.421 C  
HETATM    5  C   UNL     1     -10.378   9.002  71.164  1.00  0.00    -0.362 C  
HETATM    6  C   UNL     1     -10.073   7.939  70.100  1.00  0.00    -0.194 C  
ENDROOT
BRANCH   6   7
HETATM    7  C   UNL     1     -11.109   7.921  68.946  1.00  0.00     0.236 C  
BRANCH   7   8
HETATM    8  C   UNL     1     -10.655   8.643  67.705  1.00  0.00    -0.272 A  
HETATM    9  C   UNL     1     -10.122   8.076  66.564  1.00  0.00    -0.200 A  
HETATM   10  N   UNL     1      -9.943   9.066  65.630  1.00  0.00    -0.413 NA 
HETATM   11  C   UNL     1     -10.369  10.273  66.131  1.00  0.00    -0.183 A  
HETATM   12  H   UNL     1      -9.550   8.926  64.698  1.00  0.00     0.000 HD 
HETATM   13  C   UNL     1     -10.748  10.046  67.450  1.00  0.00    -0.336 A  
HETATM   14  C   UNL     1     -11.195  11.137  68.216  1.00  0.00    -0.343 A  
HETATM   15  C   UNL     1     -11.357  12.406  67.641  1.00  0.00    -0.371 A  
HETATM   16  C   UNL     1     -10.999  12.582  66.297  1.00  0.00    -0.311 A  
HETATM   17  C   UNL     1     -10.469  11.532  65.529  1.00  0.00    -0.327 A  
BRANCH  15  18
HETATM   18  C   UNL     1     -12.032  13.528  68.406  1.00  0.00    -0.378 C  
BRANCH  18  19
HETATM   19  C   UNL     1     -11.688  13.568  69.889  1.00  0.00    -0.271 C  
BRANCH  19  20
HETATM   20  S   UNL     1     -11.835  15.205  70.570  1.00  0.00    -0.350 S  
HETATM   21  O   UNL     1     -11.495  15.146  71.977  1.00  0.00    -0.420 OA 
HETATM   22  O   UNL     1     -13.081  15.784  70.119  1.00  0.00    -0.225 OA 
BRANCH  20  23
HETATM   23  C   UNL     1     -10.507  16.055  69.737  1.00  0.00    -0.300 A  
HETATM   24  C   UNL     1      -9.330  15.360  69.442  1.00  0.00    -0.266 A  
HETATM   25  C   UNL     1      -8.275  16.033  68.828  1.00  0.00    -0.211 A  
HETATM   26  C   UNL     1      -8.401  17.386  68.508  1.00  0.00    -0.271 A  
HETATM   27  C   UNL     1      -9.584  18.071  68.790  1.00  0.00    -0.309 A  
HETATM   28  C   UNL     1     -10.647  17.406  69.404  1.00  0.00     0.005 A  
ENDBRANCH  20  23
ENDBRANCH  19  20
ENDBRANCH  18  19
ENDBRANCH  15  18
ENDBRANCH   7   8
ENDBRANCH   6   7
TORSDOF 6
ENDMDL
MODEL      159
REMARK 921   NORMALIZED FREE ENERGY PREDICTED BY IDOCK:   -4.75 KCAL/MOL
REMARK 922        TOTAL FREE ENERGY PREDICTED BY IDOCK:   -7.99 KCAL/MOL
REMARK 923 INTER-LIGAND FREE ENERGY PREDICTED BY IDOCK:   -6.64 KCAL/MOL
REMARK 924 INTRA-LIGAND FREE ENERGY PREDICTED BY IDOCK:   -1.35 KCAL/MOL
REMARK 927      BINDING AFFINITY PREDICTED BY RF-SCORE:    0.00 PKD
ROOT
HETATM    1  C   UNL     1     -10.333   8.284  69.680  1.00  0.00    -0.218 C  
HETATM    2  N   UNL     1      -9.465   9.368  69.229  1.00  0.00    -0.158 NA 
HETATM    3  C   UNL     1      -8.418   9.646  70.219  1.00  0.00    -0.188 C  
HETATM    4  C   UNL     1      -7.303  10.263  69.405  1.00  0.00    -0.115 C  
HETATM    5  C   UNL     1      -7.331   9.455  68.126  1.00  0.00    -0.078 C  
HETATM    6  C   UNL     1      -8.805   9.072  67.934  1.00  0.00    -0.129 C  
ENDROOT
BRANCH   6   7
HETATM    7  C   UNL     1      -9.493   9.863  66.791  1.00  0.00    -0.212 C  
BRANCH   7   8
HETATM    8  C   UNL     1     -10.310  11.036  67.265  1.00  0.00    -0.249 A  
HETATM    9  C   UNL     1     -11.651  11.033  67.598  1.00  0.00    -0.143 A  
HETATM   10  N   UNL     1     -11.981  12.273  68.084  1.00  0.00    -0.423 NA 
HETATM   11  C   UNL     1     -10.873  13.087  68.096  1.00  0.00    -0.247 A  
HETATM   12  H   UNL     1     -12.913  12.551  68.392  1.00  0.00     0.000 HD 
HETATM   13  C   UNL     1      -9.836  12.359  67.521  1.00  0.00    -0.194 A  
HETATM   14  C   UNL     1      -8.583  12.979  67.375  1.00  0.00    -0.199 A  
HETATM   15  C   UNL     1      -8.346  14.262  67.890  1.00  0.00    -0.162 A  
HETATM   16  C   UNL     1      -9.409  14.945  68.496  1.00  0.00    -0.196 A  
HETATM   17  C   UNL     1     -10.695  14.387  68.581  1.00  0.00    -0.258 A  
BRANCH  15  18
HETATM   18  C   UNL     1      -6.947  14.845  67.917  1.00  0.00    -0.170 C  
BRANCH  18  19
HETATM   19  C   UNL     1      -6.785  16.121  67.100  1.00  0.00    -0.192 C  
BRANCH  19  20
HETATM   20  S   UNL     1      -6.759  17.576  68.123  1.00  0.00    -0.197 S  
HETATM   21  O   UNL     1      -5.711  18.453  67.642  1.00  0.00    -0.156 OA 
HETATM   22  O   UNL     1      -6.824  17.169  69.509  1.00  0.00    -0.215 OA 
BRANCH  20  23
HETATM   23  C   UNL     1      -8.319  18.331  67.704  1.00  0.00    -0.247 A  
HETATM   24  C   UNL     1      -8.799  19.387  68.485  1.00  0.00    -0.411 A  
HETATM   25  C   UNL     1     -10.037  19.951  68.184  1.00  0.00    -0.569 A  
HETATM   26  C   UNL     1     -10.784  19.466  67.109  1.00  0.00    -0.593 A  
HETATM   27  C   UNL     1     -10.293  18.422  66.323  1.00  0.00    -0.440 A  
HETATM   28  C   UNL     1      -9.053  17.850  66.615  1.00  0.00    -0.279 A  
ENDBRANCH  20  23
ENDBRANCH  19  20
ENDBRANCH  18  19
ENDBRANCH  15  18
ENDBRANCH   7   8
ENDBRANCH   6   7
TORSDOF 6
ENDMDL
MODEL      160
REMARK 921   NORMALIZED FREE ENERGY PREDICTED BY IDOCK:   -4.75 KCAL/MOL
REMARK 922        TOTAL FREE ENERGY PREDICTED BY IDOCK:   -7.99 KCAL/MOL
REMARK 923 INTER-LIGAND FREE ENERGY PREDICTED BY IDOCK:   -6.97 KCAL/MOL
REMARK 924 INTRA-LIGAND FREE ENERGY PREDICTED BY IDOCK:   -1.02 KCAL/MOL
REMARK 927      BINDING AFFINITY PREDICTED BY RF-SCORE:    0.00 PKD
ROOT
HETATM    1  C   UNL     1      -7.981   6.821  68.438  1.00  0.00    -0.115 C  
HETATM    2  N   UNL     1      -8.436   8.048  69.085  1.00  0.00    -0.135 NA 
HETATM    3  C   UNL     1      -7.524   8.437  70.168  1.00  0.00    -0.063 C  
HETATM    4  C   UNL     1      -7.723   9.931  70.292  1.00  0.00    -0.160 C  
HETATM    5  C   UNL     1      -7.869  10.373  68.852  1.00  0.00    -0.115 C  
HETATM    6  C   UNL     1      -8.540   9.188  68.142  1.00  0.00    -0.129 C  
ENDROOT
BRANCH   6   7
HETATM    7  C   UNL     1     -10.027   9.455  67.790  1.00  0.00    -0.228 C  
BRANCH   7   8
HETATM    8  C   UNL     1     -10.863   9.897  68.963  1.00  0.00    -0.242 A  
HETATM    9  C   UNL     1     -11.196   9.147  70.073  1.00  0.00    -0.150 A  
HETATM   10  N   UNL     1     -11.874   9.952  70.954  1.00  0.00    -0.329 NA 
HETATM   11  C   UNL     1     -11.974  11.227  70.450  1.00  0.00    -0.380 A  
HETATM   12  H   UNL     1     -12.250   9.648  71.853  1.00  0.00     0.000 HD 
HETATM   13  C   UNL     1     -11.414  11.198  69.176  1.00  0.00    -0.366 A  
HETATM   14  C   UNL     1     -11.421  12.380  68.414  1.00  0.00    -0.356 A  
HETATM   15  C   UNL     1     -11.882  13.587  68.957  1.00  0.00    -0.385 A  
HETATM   16  C   UNL     1     -12.403  13.580  70.259  1.00  0.00    -0.370 A  
HETATM   17  C   UNL     1     -12.489  12.399  71.014  1.00  0.00    -0.353 A  
BRANCH  15  18
HETATM   18  C   UNL     1     -11.698  14.897  68.215  1.00  0.00    -0.342 C  
BRANCH  18  19
HETATM   19  C   UNL     1     -11.987  14.814  66.721  1.00  0.00    -0.192 C  
BRANCH  19  20
HETATM   20  S   UNL     1     -10.522  15.038  65.738  1.00  0.00    -0.365 S  
HETATM   21  O   UNL     1     -10.686  16.237  64.941  1.00  0.00    -0.646 OA 
HETATM   22  O   UNL     1     -10.172  13.772  65.133  1.00  0.00    -0.351 OA 
BRANCH  20  23
HETATM   23  C   UNL     1      -9.307  15.396  66.993  1.00  0.00    -0.224 A  
HETATM   24  C   UNL     1      -8.494  14.363  67.472  1.00  0.00    -0.202 A  
HETATM   25  C   UNL     1      -7.572  14.632  68.482  1.00  0.00    -0.120 A  
HETATM   26  C   UNL     1      -7.461  15.922  69.002  1.00  0.00    -0.194 A  
HETATM   27  C   UNL     1      -8.263  16.953  68.509  1.00  0.00    -0.249 A  
HETATM   28  C   UNL     1      -9.189  16.695  67.497  1.00  0.00    -0.207 A  
ENDBRANCH  20  23
ENDBRANCH  19  20
ENDBRANCH  18  19
ENDBRANCH  15  18
ENDBRANCH   7   8
ENDBRANCH   6   7
TORSDOF 6
ENDMDL
MODEL      161
REMARK 921   NORMALIZED FREE ENERGY PREDICTED BY IDOCK:   -4.74 KCAL/MOL
REMARK 922        TOTAL FREE ENERGY PREDICTED BY IDOCK:   -7.98 KCAL/MOL
REMARK 923 INTER-LIGAND FREE ENERGY PREDICTED BY IDOCK:   -5.76 KCAL/MOL
REMARK 924 INTRA-LIGAND FREE ENERGY PREDICTED BY IDOCK:   -2.22 KCAL/MOL
REMARK 927      BINDING AFFINITY PREDICTED BY RF-SCORE:    0.00 PKD
ROOT
HETATM    1  C   UNL     1     -11.615  12.185  65.634  1.00  0.00    -0.351 C  
HETATM    2  N   UNL     1     -11.188  12.881  66.844  1.00  0.00    -0.279 NA 
HETATM    3  C   UNL     1     -12.030  14.056  67.096  1.00  0.00    -0.430 C  
HETATM    4  C   UNL     1     -11.917  14.272  68.589  1.00  0.00    -0.348 C  
HETATM    5  C   UNL     1     -11.918  12.859  69.134  1.00  0.00    -0.308 C  
HETATM    6  C   UNL     1     -11.234  12.017  68.048  1.00  0.00    -0.258 C  
ENDROOT
BRANCH   6   7
HETATM    7  C   UNL     1      -9.802  11.571  68.441  1.00  0.00    -0.204 C  
BRANCH   7   8
HETATM    8  C   UNL     1      -9.077  10.818  67.356  1.00  0.00    -0.148 A  
HETATM    9  C   UNL     1      -8.069  11.298  66.544  1.00  0.00    -0.160 A  
HETATM   10  N   UNL     1      -7.607  10.266  65.766  1.00  0.00    -0.138 NA 
HETATM   11  C   UNL     1      -8.281   9.106  66.069  1.00  0.00    -0.115 A  
HETATM   12  H   UNL     1      -6.870  10.347  65.066  1.00  0.00     0.000 HD 
HETATM   13  C   UNL     1      -9.254   9.444  67.006  1.00  0.00    -0.171 A  
HETATM   14  C   UNL     1     -10.120   8.436  67.464  1.00  0.00    -0.279 A  
HETATM   15  C   UNL     1      -9.948   7.100  67.072  1.00  0.00    -0.283 A  
HETATM   16  C   UNL     1      -8.930   6.799  66.156  1.00  0.00    -0.157 A  
HETATM   17  C   UNL     1      -8.103   7.796  65.614  1.00  0.00    -0.129 A  
BRANCH  15  18
HETATM   18  C   UNL     1     -10.745   5.987  67.723  1.00  0.00    -0.369 C  
BRANCH  18  19
HETATM   19  C   UNL     1     -11.209   6.298  69.141  1.00  0.00    -0.371 C  
BRANCH  19  20
HETATM   20  S   UNL     1     -10.024   5.784  70.363  1.00  0.00    -0.212 S  
HETATM   21  O   UNL     1      -9.316   4.627  69.855  1.00  0.00    -0.117 OA 
HETATM   22  O   UNL     1     -10.672   5.762  71.656  1.00  0.00    -0.240 OA 
BRANCH  20  23
HETATM   23  C   UNL     1      -8.885   7.155  70.349  1.00  0.00    -0.151 A  
HETATM   24  C   UNL     1      -9.250   8.354  70.971  1.00  0.00    -0.206 A  
HETATM   25  C   UNL     1      -8.378   9.440  70.925  1.00  0.00    -0.112 A  
HETATM   26  C   UNL     1      -7.151   9.325  70.269  1.00  0.00    -0.084 A  
HETATM   27  C   UNL     1      -6.785   8.121  69.665  1.00  0.00    -0.038 A  
HETATM   28  C   UNL     1      -7.650   7.026  69.705  1.00  0.00    -0.104 A  
ENDBRANCH  20  23
ENDBRANCH  19  20
ENDBRANCH  18  19
ENDBRANCH  15  18
ENDBRANCH   7   8
ENDBRANCH   6   7
TORSDOF 6
ENDMDL
MODEL      162
REMARK 921   NORMALIZED FREE ENERGY PREDICTED BY IDOCK:   -4.74 KCAL/MOL
REMARK 922        TOTAL FREE ENERGY PREDICTED BY IDOCK:   -7.98 KCAL/MOL
REMARK 923 INTER-LIGAND FREE ENERGY PREDICTED BY IDOCK:   -7.06 KCAL/MOL
REMARK 924 INTRA-LIGAND FREE ENERGY PREDICTED BY IDOCK:   -0.92 KCAL/MOL
REMARK 927      BINDING AFFINITY PREDICTED BY RF-SCORE:    0.00 PKD
ROOT
HETATM    1  C   UNL     1      -7.613  14.071  67.798  1.00  0.00    -0.170 C  
HETATM    2  N   UNL     1      -7.793  15.419  68.331  1.00  0.00    -0.125 NA 
HETATM    3  C   UNL     1      -6.565  15.892  68.981  1.00  0.00    -0.142 C  
HETATM    4  C   UNL     1      -6.667  17.399  68.899  1.00  0.00    -0.226 C  
HETATM    5  C   UNL     1      -7.266  17.622  67.526  1.00  0.00    -0.194 C  
HETATM    6  C   UNL     1      -8.167  16.402  67.287  1.00  0.00    -0.168 C  
ENDROOT
BRANCH   6   7
HETATM    7  C   UNL     1      -9.678  16.737  67.386  1.00  0.00    -0.245 C  
BRANCH   7   8
HETATM    8  C   UNL     1     -10.492  16.246  66.217  1.00  0.00    -0.314 A  
HETATM    9  C   UNL     1     -10.778  16.937  65.056  1.00  0.00    -0.040 A  
HETATM   10  N   UNL     1     -11.449  16.097  64.204  1.00  0.00    -1.275 NA 
HETATM   11  C   UNL     1     -11.591  14.855  64.778  1.00  0.00    -0.410 A  
HETATM   12  H   UNL     1     -11.793  16.356  63.279  1.00  0.00     0.000 HD 
HETATM   13  C   UNL     1     -11.066  14.947  66.063  1.00  0.00    -0.334 A  
HETATM   14  C   UNL     1     -11.120  13.812  66.891  1.00  0.00    -0.311 A  
HETATM   15  C   UNL     1     -11.593  12.584  66.405  1.00  0.00    -0.449 A  
HETATM   16  C   UNL     1     -12.078  12.527  65.091  1.00  0.00    -0.503 A  
HETATM   17  C   UNL     1     -12.117  13.664  64.267  1.00  0.00    -0.480 A  
BRANCH  15  18
HETATM   18  C   UNL     1     -11.459  11.316  67.226  1.00  0.00    -0.265 C  
BRANCH  18  19
HETATM   19  C   UNL     1     -10.048  11.049  67.736  1.00  0.00    -0.177 C  
BRANCH  19  20
HETATM   20  S   UNL     1      -9.542   9.366  67.462  1.00  0.00    -0.145 S  
HETATM   21  O   UNL     1      -8.692   9.331  66.289  1.00  0.00    -0.134 OA 
HETATM   22  O   UNL     1     -10.700   8.508  67.579  1.00  0.00    -0.248 OA 
BRANCH  20  23
HETATM   23  C   UNL     1      -8.503   9.074  68.881  1.00  0.00    -0.130 A  
HETATM   24  C   UNL     1      -9.044   9.212  70.164  1.00  0.00    -0.229 A  
HETATM   25  C   UNL     1      -8.223   9.025  71.274  1.00  0.00    -0.165 A  
HETATM   26  C   UNL     1      -6.877   8.697  71.103  1.00  0.00    -0.071 A  
HETATM   27  C   UNL     1      -6.347   8.544  69.820  1.00  0.00    -0.035 A  
HETATM   28  C   UNL     1      -7.160   8.729  68.701  1.00  0.00    -0.072 A  
ENDBRANCH  20  23
ENDBRANCH  19  20
ENDBRANCH  18  19
ENDBRANCH  15  18
ENDBRANCH   7   8
ENDBRANCH   6   7
TORSDOF 6
ENDMDL
MODEL      163
REMARK 921   NORMALIZED FREE ENERGY PREDICTED BY IDOCK:   -4.74 KCAL/MOL
REMARK 922        TOTAL FREE ENERGY PREDICTED BY IDOCK:   -7.98 KCAL/MOL
REMARK 923 INTER-LIGAND FREE ENERGY PREDICTED BY IDOCK:   -5.90 KCAL/MOL
REMARK 924 INTRA-LIGAND FREE ENERGY PREDICTED BY IDOCK:   -2.08 KCAL/MOL
REMARK 927      BINDING AFFINITY PREDICTED BY RF-SCORE:    0.00 PKD
ROOT
HETATM    1  C   UNL     1     -10.124  11.257  63.518  1.00  0.00    -0.396 C  
HETATM    2  N   UNL     1      -9.463  10.402  64.500  1.00  0.00    -0.259 NA 
HETATM    3  C   UNL     1      -8.043  10.228  64.170  1.00  0.00    -0.138 C  
HETATM    4  C   UNL     1      -7.397   9.911  65.501  1.00  0.00    -0.122 C  
HETATM    5  C   UNL     1      -8.135  10.821  66.460  1.00  0.00    -0.146 C  
HETATM    6  C   UNL     1      -9.551  10.940  65.879  1.00  0.00    -0.216 C  
ENDROOT
BRANCH   6   7
HETATM    7  C   UNL     1     -10.608  10.151  66.693  1.00  0.00    -0.214 C  
BRANCH   7   8
HETATM    8  C   UNL     1     -11.048  10.843  67.957  1.00  0.00    -0.351 A  
HETATM    9  C   UNL     1     -11.271  12.195  68.128  1.00  0.00    -0.267 A  
HETATM   10  N   UNL     1     -11.764  12.399  69.392  1.00  0.00    -0.309 NA 
HETATM   11  C   UNL     1     -11.890  11.197  70.050  1.00  0.00    -0.361 A  
HETATM   12  H   UNL     1     -12.003  13.309  69.787  1.00  0.00     0.000 HD 
HETATM   13  C   UNL     1     -11.380  10.221  69.200  1.00  0.00    -0.244 A  
HETATM   14  C   UNL     1     -11.355   8.889  69.649  1.00  0.00     0.143 A  
HETATM   15  C   UNL     1     -11.924   8.529  70.879  1.00  0.00    -0.204 A  
HETATM   16  C   UNL     1     -12.462   9.541  71.688  1.00  0.00    -0.476 A  
HETATM   17  C   UNL     1     -12.426  10.891  71.305  1.00  0.00    -0.493 A  
BRANCH  15  18
HETATM   18  C   UNL     1     -12.083   7.073  71.269  1.00  0.00    -0.403 C  
BRANCH  18  19
HETATM   19  C   UNL     1     -11.050   6.143  70.643  1.00  0.00    -0.317 C  
BRANCH  19  20
HETATM   20  S   UNL     1      -9.556   6.053  71.604  1.00  0.00    -0.151 S  
HETATM   21  O   UNL     1      -8.943   4.761  71.375  1.00  0.00    -0.128 OA 
HETATM   22  O   UNL     1      -9.836   6.529  72.941  1.00  0.00    -0.161 OA 
BRANCH  20  23
HETATM   23  C   UNL     1      -8.542   7.276  70.794  1.00  0.00    -0.144 A  
HETATM   24  C   UNL     1      -8.213   8.452  71.477  1.00  0.00    -0.182 A  
HETATM   25  C   UNL     1      -7.455   9.426  70.830  1.00  0.00    -0.097 A  
HETATM   26  C   UNL     1      -7.026   9.223  69.518  1.00  0.00    -0.052 A  
HETATM   27  C   UNL     1      -7.344   8.041  68.847  1.00  0.00    -0.081 A  
HETATM   28  C   UNL     1      -8.102   7.057  69.485  1.00  0.00    -0.130 A  
ENDBRANCH  20  23
ENDBRANCH  19  20
ENDBRANCH  18  19
ENDBRANCH  15  18
ENDBRANCH   7   8
ENDBRANCH   6   7
TORSDOF 6
ENDMDL
MODEL      164
REMARK 921   NORMALIZED FREE ENERGY PREDICTED BY IDOCK:   -4.72 KCAL/MOL
REMARK 922        TOTAL FREE ENERGY PREDICTED BY IDOCK:   -7.96 KCAL/MOL
REMARK 923 INTER-LIGAND FREE ENERGY PREDICTED BY IDOCK:   -6.44 KCAL/MOL
REMARK 924 INTRA-LIGAND FREE ENERGY PREDICTED BY IDOCK:   -1.52 KCAL/MOL
REMARK 927      BINDING AFFINITY PREDICTED BY RF-SCORE:    0.00 PKD
ROOT
HETATM    1  C   UNL     1     -11.095   6.365  67.869  1.00  0.00    -0.270 C  
HETATM    2  N   UNL     1     -10.331   6.551  69.099  1.00  0.00    -0.179 NA 
HETATM    3  C   UNL     1     -11.199   6.436  70.277  1.00  0.00    -0.382 C  
HETATM    4  C   UNL     1     -10.257   6.020  71.384  1.00  0.00    -0.253 C  
HETATM    5  C   UNL     1      -9.322   5.054  70.687  1.00  0.00    -0.216 C  
HETATM    6  C   UNL     1      -9.230   5.569  69.243  1.00  0.00    -0.113 C  
ENDROOT
BRANCH   6   7
HETATM    7  C   UNL     1      -7.869   6.242  68.927  1.00  0.00    -0.105 C  
BRANCH   7   8
HETATM    8  C   UNL     1      -7.690   7.592  69.569  1.00  0.00    -0.103 A  
HETATM    9  C   UNL     1      -7.106   7.859  70.792  1.00  0.00    -0.052 A  
HETATM   10  N   UNL     1      -7.043   9.220  70.957  1.00  0.00    -0.201 NA 
HETATM   11  C   UNL     1      -7.558   9.855  69.851  1.00  0.00    -0.163 A  
HETATM   12  H   UNL     1      -6.668   9.692  71.780  1.00  0.00     0.000 HD 
HETATM   13  C   UNL     1      -8.035   8.859  69.005  1.00  0.00    -0.106 A  
HETATM   14  C   UNL     1      -8.655   9.242  67.802  1.00  0.00    -0.117 A  
HETATM   15  C   UNL     1      -8.700  10.587  67.408  1.00  0.00    -0.125 A  
HETATM   16  C   UNL     1      -8.172  11.555  68.275  1.00  0.00    -0.152 A  
HETATM   17  C   UNL     1      -7.624  11.212  69.521  1.00  0.00     0.058 A  
BRANCH  15  18
HETATM   18  C   UNL     1      -9.178  10.979  66.024  1.00  0.00    -0.213 C  
BRANCH  18  19
HETATM   19  C   UNL     1     -10.690  10.916  65.844  1.00  0.00    -0.124 C  
BRANCH  19  20
HETATM   20  S   UNL     1     -11.455  12.511  66.025  1.00  0.00    -0.397 S  
HETATM   21  O   UNL     1     -12.752  12.470  65.381  1.00  0.00    -0.624 OA 
HETATM   22  O   UNL     1     -10.483  13.531  65.698  1.00  0.00    -0.280 OA 
BRANCH  20  23
HETATM   23  C   UNL     1     -11.736  12.572  67.784  1.00  0.00    -0.359 A  
HETATM   24  C   UNL     1     -11.861  11.375  68.498  1.00  0.00    -0.364 A  
HETATM   25  C   UNL     1     -12.121  11.421  69.867  1.00  0.00    -0.404 A  
HETATM   26  C   UNL     1     -12.249  12.651  70.514  1.00  0.00    -0.383 A  
HETATM   27  C   UNL     1     -12.108  13.842  69.799  1.00  0.00    -0.400 A  
HETATM   28  C   UNL     1     -11.846  13.808  68.429  1.00  0.00    -0.411 A  
ENDBRANCH  20  23
ENDBRANCH  19  20
ENDBRANCH  18  19
ENDBRANCH  15  18
ENDBRANCH   7   8
ENDBRANCH   6   7
TORSDOF 6
ENDMDL
MODEL      165
REMARK 921   NORMALIZED FREE ENERGY PREDICTED BY IDOCK:   -4.72 KCAL/MOL
REMARK 922        TOTAL FREE ENERGY PREDICTED BY IDOCK:   -7.95 KCAL/MOL
REMARK 923 INTER-LIGAND FREE ENERGY PREDICTED BY IDOCK:   -7.17 KCAL/MOL
REMARK 924 INTRA-LIGAND FREE ENERGY PREDICTED BY IDOCK:   -0.78 KCAL/MOL
REMARK 927      BINDING AFFINITY PREDICTED BY RF-SCORE:    0.00 PKD
ROOT
HETATM    1  C   UNL     1     -11.889   5.959  72.584  1.00  0.00    -0.141 C  
HETATM    2  N   UNL     1     -11.308   6.968  71.702  1.00  0.00    -0.248 NA 
HETATM    3  C   UNL     1     -10.500   7.927  72.466  1.00  0.00    -0.300 C  
HETATM    4  C   UNL     1      -9.512   8.459  71.452  1.00  0.00    -0.251 C  
HETATM    5  C   UNL     1      -9.168   7.229  70.638  1.00  0.00    -0.157 C  
HETATM    6  C   UNL     1     -10.447   6.380  70.648  1.00  0.00    -0.219 C  
ENDROOT
BRANCH   6   7
HETATM    7  C   UNL     1     -11.190   6.387  69.286  1.00  0.00    -0.440 C  
BRANCH   7   8
HETATM    8  C   UNL     1     -10.288   6.183  68.097  1.00  0.00    -0.242 A  
HETATM    9  C   UNL     1      -9.923   4.978  67.530  1.00  0.00    -0.167 A  
HETATM   10  N   UNL     1      -9.182   5.235  66.403  1.00  0.00    -0.139 NA 
HETATM   11  C   UNL     1      -9.073   6.591  66.207  1.00  0.00    -0.148 A  
HETATM   12  H   UNL     1      -8.773   4.522  65.798  1.00  0.00     0.000 HD 
HETATM   13  C   UNL     1      -9.692   7.202  67.293  1.00  0.00    -0.198 A  
HETATM   14  C   UNL     1      -9.690   8.607  67.361  1.00  0.00    -0.227 A  
HETATM   15  C   UNL     1      -9.172   9.381  66.313  1.00  0.00    -0.229 A  
HETATM   16  C   UNL     1      -8.591   8.724  65.220  1.00  0.00    -0.212 A  
HETATM   17  C   UNL     1      -8.501   7.323  65.162  1.00  0.00    -0.029 A  
BRANCH  15  18
HETATM   18  C   UNL     1      -9.356  10.887  66.291  1.00  0.00    -0.203 C  
BRANCH  18  19
HETATM   19  C   UNL     1     -10.256  11.389  65.169  1.00  0.00    -0.277 C  
BRANCH  19  20
HETATM   20  S   UNL     1     -11.641  12.321  65.784  1.00  0.00    -0.363 S  
HETATM   21  O   UNL     1     -11.859  11.955  67.169  1.00  0.00    -0.588 OA 
HETATM   22  O   UNL     1     -12.709  12.261  64.811  1.00  0.00    -0.556 OA 
BRANCH  20  23
HETATM   23  C   UNL     1     -10.985  13.979  65.769  1.00  0.00    -0.294 A  
HETATM   24  C   UNL     1     -11.582  14.943  64.950  1.00  0.00    -0.395 A  
HETATM   25  C   UNL     1     -11.045  16.228  64.905  1.00  0.00    -0.301 A  
HETATM   26  C   UNL     1      -9.927  16.547  65.678  1.00  0.00    -0.234 A  
HETATM   27  C   UNL     1      -9.345  15.585  66.506  1.00  0.00    -0.311 A  
HETATM   28  C   UNL     1      -9.875  14.295  66.559  1.00  0.00    -0.299 A  
ENDBRANCH  20  23
ENDBRANCH  19  20
ENDBRANCH  18  19
ENDBRANCH  15  18
ENDBRANCH   7   8
ENDBRANCH   6   7
TORSDOF 6
ENDMDL
MODEL      166
REMARK 921   NORMALIZED FREE ENERGY PREDICTED BY IDOCK:   -4.71 KCAL/MOL
REMARK 922        TOTAL FREE ENERGY PREDICTED BY IDOCK:   -7.94 KCAL/MOL
REMARK 923 INTER-LIGAND FREE ENERGY PREDICTED BY IDOCK:   -6.63 KCAL/MOL
REMARK 924 INTRA-LIGAND FREE ENERGY PREDICTED BY IDOCK:   -1.31 KCAL/MOL
REMARK 927      BINDING AFFINITY PREDICTED BY RF-SCORE:    0.00 PKD
ROOT
HETATM    1  C   UNL     1      -9.972   6.747  74.143  1.00  0.00    -0.342 C  
HETATM    2  N   UNL     1      -9.507   7.068  72.796  1.00  0.00    -0.144 NA 
HETATM    3  C   UNL     1      -8.041   7.137  72.752  1.00  0.00    -0.106 C  
HETATM    4  C   UNL     1      -7.706   6.838  71.308  1.00  0.00    -0.093 C  
HETATM    5  C   UNL     1      -8.705   5.759  70.946  1.00  0.00    -0.135 C  
HETATM    6  C   UNL     1      -9.950   6.076  71.787  1.00  0.00    -0.170 C  
ENDROOT
BRANCH   6   7
HETATM    7  C   UNL     1     -11.116   6.656  70.945  1.00  0.00    -0.335 C  
BRANCH   7   8
HETATM    8  C   UNL     1     -10.814   6.765  69.474  1.00  0.00    -0.315 A  
HETATM    9  C   UNL     1     -10.994   5.786  68.515  1.00  0.00    -0.098 A  
HETATM   10  N   UNL     1     -10.701   6.322  67.286  1.00  0.00    -0.305 NA 
HETATM   11  C   UNL     1     -10.351   7.646  67.418  1.00  0.00    -0.277 A  
HETATM   12  H   UNL     1     -10.738   5.813  66.403  1.00  0.00     0.000 HD 
HETATM   13  C   UNL     1     -10.343   7.922  68.781  1.00  0.00    -0.220 A  
HETATM   14  C   UNL     1      -9.977   9.214  69.200  1.00  0.00    -0.189 A  
HETATM   15  C   UNL     1      -9.728  10.233  68.269  1.00  0.00    -0.154 A  
HETATM   16  C   UNL     1      -9.784   9.919  66.904  1.00  0.00    -0.236 A  
HETATM   17  C   UNL     1     -10.063   8.618  66.455  1.00  0.00    -0.294 A  
BRANCH  15  18
HETATM   18  C   UNL     1      -9.538  11.669  68.717  1.00  0.00    -0.083 C  
BRANCH  18  19
HETATM   19  C   UNL     1     -10.839  12.430  68.943  1.00  0.00    -0.197 C  
BRANCH  19  20
HETATM   20  S   UNL     1     -10.843  14.011  68.129  1.00  0.00    -0.255 S  
HETATM   21  O   UNL     1      -9.526  14.598  68.266  1.00  0.00    -0.198 OA 
HETATM   22  O   UNL     1     -12.034  14.732  68.522  1.00  0.00    -0.309 OA 
BRANCH  20  23
HETATM   23  C   UNL     1     -11.037  13.530  66.423  1.00  0.00    -0.302 A  
HETATM   24  C   UNL     1     -12.249  12.972  66.003  1.00  0.00    -0.463 A  
HETATM   25  C   UNL     1     -12.388  12.557  64.681  1.00  0.00    -0.547 A  
HETATM   26  C   UNL     1     -11.327  12.705  63.785  1.00  0.00    -0.529 A  
HETATM   27  C   UNL     1     -10.125  13.278  64.206  1.00  0.00    -0.089 A  
HETATM   28  C   UNL     1      -9.975  13.698  65.529  1.00  0.00    -0.244 A  
ENDBRANCH  20  23
ENDBRANCH  19  20
ENDBRANCH  18  19
ENDBRANCH  15  18
ENDBRANCH   7   8
ENDBRANCH   6   7
TORSDOF 6
ENDMDL
MODEL      167
REMARK 921   NORMALIZED FREE ENERGY PREDICTED BY IDOCK:   -4.71 KCAL/MOL
REMARK 922        TOTAL FREE ENERGY PREDICTED BY IDOCK:   -7.94 KCAL/MOL
REMARK 923 INTER-LIGAND FREE ENERGY PREDICTED BY IDOCK:   -5.82 KCAL/MOL
REMARK 924 INTRA-LIGAND FREE ENERGY PREDICTED BY IDOCK:   -2.12 KCAL/MOL
REMARK 927      BINDING AFFINITY PREDICTED BY RF-SCORE:    0.00 PKD
ROOT
HETATM    1  C   UNL     1      -6.549   9.067  65.262  1.00  0.00    -0.068 C  
HETATM    2  N   UNL     1      -7.046   9.231  66.626  1.00  0.00    -0.081 NA 
HETATM    3  C   UNL     1      -5.962   9.628  67.533  1.00  0.00    -0.051 C  
HETATM    4  C   UNL     1      -6.674  10.346  68.657  1.00  0.00    -0.053 C  
HETATM    5  C   UNL     1      -7.756  11.119  67.933  1.00  0.00    -0.105 C  
HETATM    6  C   UNL     1      -8.122  10.246  66.724  1.00  0.00    -0.121 C  
ENDROOT
BRANCH   6   7
HETATM    7  C   UNL     1      -9.500   9.550  66.875  1.00  0.00    -0.204 C  
BRANCH   7   8
HETATM    8  C   UNL     1     -10.541  10.398  67.558  1.00  0.00    -0.312 A  
HETATM    9  C   UNL     1     -11.328  11.373  66.978  1.00  0.00    -0.236 A  
HETATM   10  N   UNL     1     -12.220  11.828  67.918  1.00  0.00    -0.437 NA 
HETATM   11  C   UNL     1     -12.046  11.152  69.102  1.00  0.00    -0.283 A  
HETATM   12  H   UNL     1     -12.911  12.561  67.760  1.00  0.00     0.000 HD 
HETATM   13  C   UNL     1     -10.955  10.307  68.923  1.00  0.00    -0.279 A  
HETATM   14  C   UNL     1     -10.534   9.518  70.008  1.00  0.00    -0.283 A  
HETATM   15  C   UNL     1     -11.254   9.498  71.211  1.00  0.00    -0.452 A  
HETATM   16  C   UNL     1     -12.370  10.338  71.335  1.00  0.00    -0.502 A  
HETATM   17  C   UNL     1     -12.766  11.201  70.300  1.00  0.00    -0.213 A  
BRANCH  15  18
HETATM   18  C   UNL     1     -10.924   8.498  72.302  1.00  0.00    -0.426 C  
BRANCH  18  19
HETATM   19  C   UNL     1      -9.433   8.336  72.570  1.00  0.00    -0.286 C  
BRANCH  19  20
HETATM   20  S   UNL     1      -8.934   6.629  72.586  1.00  0.00    -0.129 S  
HETATM   21  O   UNL     1      -9.987   5.852  73.207  1.00  0.00    -0.170 OA 
HETATM   22  O   UNL     1      -7.566   6.551  73.049  1.00  0.00    -0.093 OA 
BRANCH  20  23
HETATM   23  C   UNL     1      -8.942   6.242  70.846  1.00  0.00    -0.147 A  
HETATM   24  C   UNL     1      -8.043   6.894  69.996  1.00  0.00    -0.125 A  
HETATM   25  C   UNL     1      -8.076   6.624  68.630  1.00  0.00    -0.119 A  
HETATM   26  C   UNL     1      -8.996   5.706  68.120  1.00  0.00    -0.111 A  
HETATM   27  C   UNL     1      -9.881   5.046  68.975  1.00  0.00    -0.252 A  
HETATM   28  C   UNL     1      -9.855   5.309  70.346  1.00  0.00    -0.281 A  
ENDBRANCH  20  23
ENDBRANCH  19  20
ENDBRANCH  18  19
ENDBRANCH  15  18
ENDBRANCH   7   8
ENDBRANCH   6   7
TORSDOF 6
ENDMDL
MODEL      168
REMARK 921   NORMALIZED FREE ENERGY PREDICTED BY IDOCK:   -4.69 KCAL/MOL
REMARK 922        TOTAL FREE ENERGY PREDICTED BY IDOCK:   -7.91 KCAL/MOL
REMARK 923 INTER-LIGAND FREE ENERGY PREDICTED BY IDOCK:   -6.88 KCAL/MOL
REMARK 924 INTRA-LIGAND FREE ENERGY PREDICTED BY IDOCK:   -1.02 KCAL/MOL
REMARK 927      BINDING AFFINITY PREDICTED BY RF-SCORE:    0.00 PKD
ROOT
HETATM    1  C   UNL     1      -9.986   9.256  66.399  1.00  0.00    -0.286 C  
HETATM    2  N   UNL     1     -10.019  10.712  66.499  1.00  0.00    -0.208 NA 
HETATM    3  C   UNL     1     -10.203  11.323  65.178  1.00  0.00    -0.289 C  
HETATM    4  C   UNL     1     -10.833  12.665  65.482  1.00  0.00    -0.310 C  
HETATM    5  C   UNL     1     -11.782  12.342  66.617  1.00  0.00    -0.438 C  
HETATM    6  C   UNL     1     -11.103  11.200  67.386  1.00  0.00    -0.307 C  
ENDROOT
BRANCH   6   7
HETATM    7  C   UNL     1     -10.516  11.652  68.748  1.00  0.00    -0.226 C  
BRANCH   7   8
HETATM    8  C   UNL     1     -11.339  11.232  69.938  1.00  0.00    -0.329 A  
HETATM    9  C   UNL     1     -12.498  11.828  70.397  1.00  0.00    -0.197 A  
HETATM   10  N   UNL     1     -12.992  11.076  71.433  1.00  0.00    -0.422 NA 
HETATM   11  C   UNL     1     -12.188   9.982  71.650  1.00  0.00    -0.367 A  
HETATM   12  H   UNL     1     -13.834  11.297  71.966  1.00  0.00     0.000 HD 
HETATM   13  C   UNL     1     -11.111  10.099  70.777  1.00  0.00    -0.372 A  
HETATM   14  C   UNL     1     -10.106   9.116  70.818  1.00  0.00    -0.333 A  
HETATM   15  C   UNL     1     -10.231   7.988  71.641  1.00  0.00    -0.256 A  
HETATM   16  C   UNL     1     -11.352   7.891  72.478  1.00  0.00    -0.449 A  
HETATM   17  C   UNL     1     -12.331   8.898  72.522  1.00  0.00    -0.325 A  
BRANCH  15  18
HETATM   18  C   UNL     1      -9.255   6.832  71.534  1.00  0.00    -0.149 C  
BRANCH  18  19
HETATM   19  C   UNL     1      -8.860   6.479  70.105  1.00  0.00    -0.144 C  
BRANCH  19  20
HETATM   20  S   UNL     1      -9.969   5.297  69.373  1.00  0.00    -0.237 S  
HETATM   21  O   UNL     1     -11.199   5.979  69.028  1.00  0.00    -0.367 OA 
HETATM   22  O   UNL     1      -9.972   4.100  70.185  1.00  0.00    -0.209 OA 
BRANCH  20  23
HETATM   23  C   UNL     1      -9.125   4.917  67.849  1.00  0.00    -0.113 A  
HETATM   24  C   UNL     1      -8.091   3.975  67.857  1.00  0.00    -0.089 A  
HETATM   25  C   UNL     1      -7.403   3.707  66.675  1.00  0.00    -0.068 A  
HETATM   26  C   UNL     1      -7.749   4.372  65.497  1.00  0.00    -0.086 A  
HETATM   27  C   UNL     1      -8.792   5.300  65.492  1.00  0.00    -0.153 A  
HETATM   28  C   UNL     1      -9.489   5.575  66.670  1.00  0.00    -0.154 A  
ENDBRANCH  20  23
ENDBRANCH  19  20
ENDBRANCH  18  19
ENDBRANCH  15  18
ENDBRANCH   7   8
ENDBRANCH   6   7
TORSDOF 6
ENDMDL
MODEL      169
REMARK 921   NORMALIZED FREE ENERGY PREDICTED BY IDOCK:   -4.68 KCAL/MOL
REMARK 922        TOTAL FREE ENERGY PREDICTED BY IDOCK:   -7.90 KCAL/MOL
REMARK 923 INTER-LIGAND FREE ENERGY PREDICTED BY IDOCK:   -7.21 KCAL/MOL
REMARK 924 INTRA-LIGAND FREE ENERGY PREDICTED BY IDOCK:   -0.69 KCAL/MOL
REMARK 927      BINDING AFFINITY PREDICTED BY RF-SCORE:    0.00 PKD
ROOT
HETATM    1  C   UNL     1     -10.010   8.855  71.651  1.00  0.00    -0.327 C  
HETATM    2  N   UNL     1     -11.424   8.883  71.288  1.00  0.00    -0.278 NA 
HETATM    3  C   UNL     1     -12.222   8.098  72.238  1.00  0.00    -0.346 C  
HETATM    4  C   UNL     1     -13.603   8.707  72.142  1.00  0.00    -0.447 C  
HETATM    5  C   UNL     1     -13.311  10.186  72.008  1.00  0.00    -0.492 C  
HETATM    6  C   UNL     1     -11.978  10.257  71.250  1.00  0.00    -0.363 C  
ENDROOT
BRANCH   6   7
HETATM    7  C   UNL     1     -12.142  10.726  69.780  1.00  0.00    -0.389 C  
BRANCH   7   8
HETATM    8  C   UNL     1     -12.108  12.222  69.608  1.00  0.00    -0.277 A  
HETATM    9  C   UNL     1     -12.216  13.174  70.603  1.00  0.00    -0.321 A  
HETATM   10  N   UNL     1     -12.027  14.412  70.042  1.00  0.00    -0.313 NA 
HETATM   11  C   UNL     1     -11.775  14.289  68.696  1.00  0.00    -0.345 A  
HETATM   12  H   UNL     1     -12.067  15.296  70.550  1.00  0.00     0.000 HD 
HETATM   13  C   UNL     1     -11.894  12.937  68.390  1.00  0.00    -0.357 A  
HETATM   14  C   UNL     1     -11.720  12.535  67.054  1.00  0.00    -0.437 A  
HETATM   15  C   UNL     1     -11.332  13.453  66.067  1.00  0.00    -0.329 A  
HETATM   16  C   UNL     1     -11.186  14.800  66.427  1.00  0.00    -0.342 A  
HETATM   17  C   UNL     1     -11.436  15.247  67.735  1.00  0.00    -0.312 A  
BRANCH  15  18
HETATM   18  C   UNL     1     -10.943  12.986  64.677  1.00  0.00    -0.364 C  
BRANCH  18  19
HETATM   19  C   UNL     1      -9.560  12.353  64.595  1.00  0.00     0.157 C  
BRANCH  19  20
HETATM   20  S   UNL     1      -9.634  10.625  64.180  1.00  0.00    -0.325 S  
HETATM   21  O   UNL     1     -10.105  10.503  62.816  1.00  0.00    -0.163 OA 
HETATM   22  O   UNL     1     -10.275   9.915  65.265  1.00  0.00    -0.269 OA 
BRANCH  20  23
HETATM   23  C   UNL     1      -7.906  10.186  64.189  1.00  0.00    -0.145 A  
HETATM   24  C   UNL     1      -7.117  10.534  65.290  1.00  0.00    -0.047 A  
HETATM   25  C   UNL     1      -5.758  10.228  65.280  1.00  0.00    -0.116 A  
HETATM   26  C   UNL     1      -5.196   9.575  64.182  1.00  0.00    -0.060 A  
HETATM   27  C   UNL     1      -5.991   9.215  63.092  1.00  0.00    -0.089 A  
HETATM   28  C   UNL     1      -7.354   9.516  63.092  1.00  0.00    -0.110 A  
ENDBRANCH  20  23
ENDBRANCH  19  20
ENDBRANCH  18  19
ENDBRANCH  15  18
ENDBRANCH   7   8
ENDBRANCH   6   7
TORSDOF 6
ENDMDL
MODEL      170
REMARK 921   NORMALIZED FREE ENERGY PREDICTED BY IDOCK:   -4.67 KCAL/MOL
REMARK 922        TOTAL FREE ENERGY PREDICTED BY IDOCK:   -7.89 KCAL/MOL
REMARK 923 INTER-LIGAND FREE ENERGY PREDICTED BY IDOCK:   -6.60 KCAL/MOL
REMARK 924 INTRA-LIGAND FREE ENERGY PREDICTED BY IDOCK:   -1.29 KCAL/MOL
REMARK 927      BINDING AFFINITY PREDICTED BY RF-SCORE:    0.00 PKD
ROOT
HETATM    1  C   UNL     1      -7.683  12.071  67.368  1.00  0.00    -0.162 C  
HETATM    2  N   UNL     1      -8.698  11.408  66.555  1.00  0.00    -0.178 NA 
HETATM    3  C   UNL     1      -8.087  10.417  65.660  1.00  0.00    -0.156 C  
HETATM    4  C   UNL     1      -9.203   9.433  65.392  1.00  0.00    -0.305 C  
HETATM    5  C   UNL     1      -9.893   9.330  66.735  1.00  0.00    -0.289 C  
HETATM    6  C   UNL     1      -9.724  10.717  67.372  1.00  0.00    -0.167 C  
ENDROOT
BRANCH   6   7
HETATM    7  C   UNL     1     -11.039  11.540  67.388  1.00  0.00    -0.339 C  
BRANCH   7   8
HETATM    8  C   UNL     1     -11.569  11.819  68.770  1.00  0.00    -0.367 A  
HETATM    9  C   UNL     1     -12.010  13.032  69.260  1.00  0.00    -0.278 A  
HETATM   10  N   UNL     1     -12.512  12.835  70.522  1.00  0.00    -0.253 NA 
HETATM   11  C   UNL     1     -12.428  11.505  70.862  1.00  0.00    -0.366 A  
HETATM   12  H   UNL     1     -12.893  13.568  71.120  1.00  0.00     0.000 HD 
HETATM   13  C   UNL     1     -11.776  10.865  69.813  1.00  0.00    -0.413 A  
HETATM   14  C   UNL     1     -11.524   9.486  69.923  1.00  0.00    -0.100 A  
HETATM   15  C   UNL     1     -12.008   8.747  71.012  1.00  0.00    -0.291 A  
HETATM   16  C   UNL     1     -12.694   9.426  72.029  1.00  0.00    -0.483 A  
HETATM   17  C   UNL     1     -12.888  10.817  71.989  1.00  0.00    -0.357 A  
BRANCH  15  18
HETATM   18  C   UNL     1     -11.918   7.233  71.029  1.00  0.00    -0.362 C  
BRANCH  18  19
HETATM   19  C   UNL     1     -11.492   6.618  69.702  1.00  0.00    -0.298 C  
BRANCH  19  20
HETATM   20  S   UNL     1      -9.976   5.698  69.843  1.00  0.00    -0.224 S  
HETATM   21  O   UNL     1      -9.231   5.855  68.611  1.00  0.00    -0.118 OA 
HETATM   22  O   UNL     1     -10.276   4.390  70.382  1.00  0.00    -0.174 OA 
BRANCH  20  23
HETATM   23  C   UNL     1      -9.119   6.621  71.105  1.00  0.00    -0.152 A  
HETATM   24  C   UNL     1      -9.096   6.131  72.415  1.00  0.00    -0.136 A  
HETATM   25  C   UNL     1      -8.462   6.872  73.410  1.00  0.00    -0.139 A  
HETATM   26  C   UNL     1      -7.852   8.088  73.096  1.00  0.00    -0.206 A  
HETATM   27  C   UNL     1      -7.863   8.564  71.784  1.00  0.00    -0.161 A  
HETATM   28  C   UNL     1      -8.495   7.830  70.779  1.00  0.00    -0.121 A  
ENDBRANCH  20  23
ENDBRANCH  19  20
ENDBRANCH  18  19
ENDBRANCH  15  18
ENDBRANCH   7   8
ENDBRANCH   6   7
TORSDOF 6
ENDMDL
MODEL      171
REMARK 921   NORMALIZED FREE ENERGY PREDICTED BY IDOCK:   -4.66 KCAL/MOL
REMARK 922        TOTAL FREE ENERGY PREDICTED BY IDOCK:   -7.87 KCAL/MOL
REMARK 923 INTER-LIGAND FREE ENERGY PREDICTED BY IDOCK:   -5.65 KCAL/MOL
REMARK 924 INTRA-LIGAND FREE ENERGY PREDICTED BY IDOCK:   -2.22 KCAL/MOL
REMARK 927      BINDING AFFINITY PREDICTED BY RF-SCORE:    0.00 PKD
ROOT
HETATM    1  C   UNL     1      -9.214   8.744  66.065  1.00  0.00    -0.222 C  
HETATM    2  N   UNL     1      -8.085   9.347  65.363  1.00  0.00    -0.114 NA 
HETATM    3  C   UNL     1      -6.942   8.427  65.323  1.00  0.00    -0.074 C  
HETATM    4  C   UNL     1      -6.160   8.871  64.107  1.00  0.00    -0.071 C  
HETATM    5  C   UNL     1      -7.249   9.216  63.113  1.00  0.00    -0.091 C  
HETATM    6  C   UNL     1      -8.416   9.729  63.969  1.00  0.00    -0.182 C  
ENDROOT
BRANCH   6   7
HETATM    7  C   UNL     1      -8.612  11.264  63.867  1.00  0.00     0.360 C  
BRANCH   7   8
HETATM    8  C   UNL     1     -10.051  11.702  63.938  1.00  0.00    -0.395 A  
HETATM    9  C   UNL     1     -11.157  10.989  63.518  1.00  0.00     0.191 A  
HETATM   10  N   UNL     1     -12.284  11.694  63.859  1.00  0.00    -0.372 NA 
HETATM   11  C   UNL     1     -11.938  12.851  64.517  1.00  0.00    -0.395 A  
HETATM   12  H   UNL     1     -13.240  11.402  63.655  1.00  0.00     0.000 HD 
HETATM   13  C   UNL     1     -10.548  12.913  64.511  1.00  0.00    -0.403 A  
HETATM   14  C   UNL     1      -9.925  14.030  65.094  1.00  0.00    -0.257 A  
HETATM   15  C   UNL     1     -10.675  15.011  65.760  1.00  0.00    -0.351 A  
HETATM   16  C   UNL     1     -12.072  14.889  65.774  1.00  0.00     0.004 A  
HETATM   17  C   UNL     1     -12.729  13.830  65.127  1.00  0.00    -0.439 A  
BRANCH  15  18
HETATM   18  C   UNL     1      -9.993  16.101  66.564  1.00  0.00    -0.293 C  
BRANCH  18  19
HETATM   19  C   UNL     1     -10.681  16.426  67.884  1.00  0.00    -0.332 C  
BRANCH  19  20
HETATM   20  S   UNL     1      -9.972  15.533  69.249  1.00  0.00    -0.280 S  
HETATM   21  O   UNL     1     -10.724  15.856  70.445  1.00  0.00    -0.310 OA 
HETATM   22  O   UNL     1      -8.534  15.678  69.201  1.00  0.00    -0.217 OA 
BRANCH  20  23
HETATM   23  C   UNL     1     -10.364  13.850  68.812  1.00  0.00    -0.206 A  
HETATM   24  C   UNL     1      -9.326  12.968  68.490  1.00  0.00    -0.078 A  
HETATM   25  C   UNL     1      -9.633  11.664  68.107  1.00  0.00    -0.190 A  
HETATM   26  C   UNL     1     -10.964  11.244  68.055  1.00  0.00    -0.302 A  
HETATM   27  C   UNL     1     -11.994  12.124  68.393  1.00  0.00    -0.257 A  
HETATM   28  C   UNL     1     -11.698  13.433  68.778  1.00  0.00    -0.377 A  
ENDBRANCH  20  23
ENDBRANCH  19  20
ENDBRANCH  18  19
ENDBRANCH  15  18
ENDBRANCH   7   8
ENDBRANCH   6   7
TORSDOF 6
ENDMDL
MODEL      172
REMARK 921   NORMALIZED FREE ENERGY PREDICTED BY IDOCK:   -4.64 KCAL/MOL
REMARK 922        TOTAL FREE ENERGY PREDICTED BY IDOCK:   -7.85 KCAL/MOL
REMARK 923 INTER-LIGAND FREE ENERGY PREDICTED BY IDOCK:   -6.79 KCAL/MOL
REMARK 924 INTRA-LIGAND FREE ENERGY PREDICTED BY IDOCK:   -1.06 KCAL/MOL
REMARK 927      BINDING AFFINITY PREDICTED BY RF-SCORE:    0.00 PKD
ROOT
HETATM    1  C   UNL     1      -5.519  14.174  72.170  1.00  0.00    -0.196 C  
HETATM    2  N   UNL     1      -5.298  13.782  70.781  1.00  0.00    -0.130 NA 
HETATM    3  C   UNL     1      -5.273  12.321  70.647  1.00  0.00    -0.139 C  
HETATM    4  C   UNL     1      -5.672  12.080  69.209  1.00  0.00    -0.072 C  
HETATM    5  C   UNL     1      -6.744  13.124  68.977  1.00  0.00    -0.103 C  
HETATM    6  C   UNL     1      -6.339  14.308  69.865  1.00  0.00    -0.150 C  
ENDROOT
BRANCH   6   7
HETATM    7  C   UNL     1      -5.781  15.509  69.057  1.00  0.00    -0.103 C  
BRANCH   7   8
HETATM    8  C   UNL     1      -6.716  16.688  68.991  1.00  0.00    -0.202 A  
HETATM    9  C   UNL     1      -6.400  18.012  69.225  1.00  0.00    -0.249 A  
HETATM   10  N   UNL     1      -7.506  18.778  68.954  1.00  0.00    -0.310 NA 
HETATM   11  C   UNL     1      -8.540  17.981  68.524  1.00  0.00    -0.297 A  
HETATM   12  H   UNL     1      -7.554  19.792  69.057  1.00  0.00     0.000 HD 
HETATM   13  C   UNL     1      -8.093  16.666  68.609  1.00  0.00    -0.237 A  
HETATM   14  C   UNL     1      -8.980  15.633  68.259  1.00  0.00    -0.181 A  
HETATM   15  C   UNL     1     -10.249  15.916  67.735  1.00  0.00    -0.260 A  
HETATM   16  C   UNL     1     -10.645  17.257  67.630  1.00  0.00    -0.350 A  
HETATM   17  C   UNL     1      -9.815  18.308  68.051  1.00  0.00    -0.343 A  
BRANCH  15  18
HETATM   18  C   UNL     1     -11.122  14.814  67.165  1.00  0.00    -0.333 C  
BRANCH  18  19
HETATM   19  C   UNL     1     -10.784  13.421  67.681  1.00  0.00    -0.247 C  
BRANCH  19  20
HETATM   20  S   UNL     1     -11.586  12.143  66.739  1.00  0.00    -0.308 S  
HETATM   21  O   UNL     1     -12.434  12.771  65.747  1.00  0.00    -0.579 OA 
HETATM   22  O   UNL     1     -12.104  11.149  67.654  1.00  0.00    -0.537 OA 
BRANCH  20  23
HETATM   23  C   UNL     1     -10.203  11.419  65.877  1.00  0.00    -0.246 A  
HETATM   24  C   UNL     1     -10.392  10.909  64.588  1.00  0.00    -0.407 A  
HETATM   25  C   UNL     1      -9.323  10.306  63.929  1.00  0.00    -0.337 A  
HETATM   26  C   UNL     1      -8.076  10.219  64.552  1.00  0.00    -0.150 A  
HETATM   27  C   UNL     1      -7.889  10.743  65.832  1.00  0.00    -0.131 A  
HETATM   28  C   UNL     1      -8.953  11.351  66.501  1.00  0.00    -0.192 A  
ENDBRANCH  20  23
ENDBRANCH  19  20
ENDBRANCH  18  19
ENDBRANCH  15  18
ENDBRANCH   7   8
ENDBRANCH   6   7
TORSDOF 6
ENDMDL
MODEL      173
REMARK 921   NORMALIZED FREE ENERGY PREDICTED BY IDOCK:   -4.63 KCAL/MOL
REMARK 922        TOTAL FREE ENERGY PREDICTED BY IDOCK:   -7.83 KCAL/MOL
REMARK 923 INTER-LIGAND FREE ENERGY PREDICTED BY IDOCK:   -6.39 KCAL/MOL
REMARK 924 INTRA-LIGAND FREE ENERGY PREDICTED BY IDOCK:   -1.44 KCAL/MOL
REMARK 927      BINDING AFFINITY PREDICTED BY RF-SCORE:    0.00 PKD
ROOT
HETATM    1  C   UNL     1      -9.539   9.709  68.268  1.00  0.00    -0.140 C  
HETATM    2  N   UNL     1      -8.701  10.686  68.957  1.00  0.00    -0.158 NA 
HETATM    3  C   UNL     1      -7.738  10.018  69.841  1.00  0.00    -0.175 C  
HETATM    4  C   UNL     1      -6.604  11.012  69.962  1.00  0.00    -0.134 C  
HETATM    5  C   UNL     1      -6.505  11.582  68.563  1.00  0.00    -0.054 C  
HETATM    6  C   UNL     1      -7.941  11.550  68.021  1.00  0.00    -0.130 C  
ENDROOT
BRANCH   6   7
HETATM    7  C   UNL     1      -8.591  12.956  67.946  1.00  0.00    -0.185 C  
BRANCH   7   8
HETATM    8  C   UNL     1      -9.358  13.208  66.674  1.00  0.00    -0.242 A  
HETATM    9  C   UNL     1      -9.836  12.258  65.792  1.00  0.00    -0.244 A  
HETATM   10  N   UNL     1     -10.570  12.895  64.823  1.00  0.00    -0.324 NA 
HETATM   11  C   UNL     1     -10.601  14.249  65.065  1.00  0.00    -0.425 A  
HETATM   12  H   UNL     1     -11.028  12.432  64.037  1.00  0.00     0.000 HD 
HETATM   13  C   UNL     1      -9.789  14.474  66.173  1.00  0.00    -0.339 A  
HETATM   14  C   UNL     1      -9.614  15.797  66.616  1.00  0.00    -0.266 A  
HETATM   15  C   UNL     1     -10.318  16.857  66.027  1.00  0.00    -0.335 A  
HETATM   16  C   UNL     1     -11.155  16.579  64.937  1.00  0.00    -0.199 A  
HETATM   17  C   UNL     1     -11.286  15.281  64.417  1.00  0.00    -0.224 A  
BRANCH  15  18
HETATM   18  C   UNL     1     -10.289  18.246  66.635  1.00  0.00    -0.400 C  
BRANCH  18  19
HETATM   19  C   UNL     1      -9.008  19.022  66.356  1.00  0.00    -0.324 C  
BRANCH  19  20
HETATM   20  S   UNL     1      -8.191  19.531  67.852  1.00  0.00    -0.316 S  
HETATM   21  O   UNL     1      -9.160  19.514  68.930  1.00  0.00    -0.367 OA 
HETATM   22  O   UNL     1      -7.398  20.707  67.571  1.00  0.00    -0.317 OA 
BRANCH  20  23
HETATM   23  C   UNL     1      -7.071  18.170  68.122  1.00  0.00    -0.235 A  
HETATM   24  C   UNL     1      -6.593  17.450  67.023  1.00  0.00    -0.212 A  
HETATM   25  C   UNL     1      -5.750  16.360  67.234  1.00  0.00    -0.167 A  
HETATM   26  C   UNL     1      -5.384  16.000  68.533  1.00  0.00    -0.097 A  
HETATM   27  C   UNL     1      -5.851  16.733  69.625  1.00  0.00    -0.207 A  
HETATM   28  C   UNL     1      -6.695  17.827  69.425  1.00  0.00    -0.171 A  
ENDBRANCH  20  23
ENDBRANCH  19  20
ENDBRANCH  18  19
ENDBRANCH  15  18
ENDBRANCH   7   8
ENDBRANCH   6   7
TORSDOF 6
ENDMDL
MODEL      174
REMARK 921   NORMALIZED FREE ENERGY PREDICTED BY IDOCK:   -4.62 KCAL/MOL
REMARK 922        TOTAL FREE ENERGY PREDICTED BY IDOCK:   -7.82 KCAL/MOL
REMARK 923 INTER-LIGAND FREE ENERGY PREDICTED BY IDOCK:   -6.90 KCAL/MOL
REMARK 924 INTRA-LIGAND FREE ENERGY PREDICTED BY IDOCK:   -0.92 KCAL/MOL
REMARK 927      BINDING AFFINITY PREDICTED BY RF-SCORE:    0.00 PKD
ROOT
HETATM    1  C   UNL     1     -11.287  13.136  64.585  1.00  0.00    -0.333 C  
HETATM    2  N   UNL     1     -10.893  13.270  65.985  1.00  0.00    -0.272 NA 
HETATM    3  C   UNL     1     -11.805  14.171  66.700  1.00  0.00    -0.424 C  
HETATM    4  C   UNL     1     -11.692  13.732  68.143  1.00  0.00    -0.392 C  
HETATM    5  C   UNL     1     -11.600  12.225  68.031  1.00  0.00    -0.408 C  
HETATM    6  C   UNL     1     -10.874  11.972  66.702  1.00  0.00    -0.272 C  
ENDROOT
BRANCH   6   7
HETATM    7  C   UNL     1      -9.413  11.488  66.892  1.00  0.00    -0.194 C  
BRANCH   7   8
HETATM    8  C   UNL     1      -9.145  10.118  66.327  1.00  0.00    -0.180 A  
HETATM    9  C   UNL     1      -8.381   9.813  65.217  1.00  0.00    -0.142 A  
HETATM   10  N   UNL     1      -8.300   8.448  65.106  1.00  0.00    -0.163 NA 
HETATM   11  C   UNL     1      -8.981   7.848  66.140  1.00  0.00    -0.175 A  
HETATM   12  H   UNL     1      -7.806   7.950  64.365  1.00  0.00     0.000 HD 
HETATM   13  C   UNL     1      -9.577   8.870  66.871  1.00  0.00    -0.248 A  
HETATM   14  C   UNL     1     -10.375   8.525  67.977  1.00  0.00    -0.272 A  
HETATM   15  C   UNL     1     -10.485   7.193  68.401  1.00  0.00    -0.228 A  
HETATM   16  C   UNL     1      -9.836   6.198  67.656  1.00  0.00    -0.131 A  
HETATM   17  C   UNL     1      -9.102   6.502  66.498  1.00  0.00    -0.166 A  
BRANCH  15  18
HETATM   18  C   UNL     1     -11.172   6.845  69.708  1.00  0.00    -0.315 C  
BRANCH  18  19
HETATM   19  C   UNL     1     -11.073   7.930  70.773  1.00  0.00    -0.256 C  
BRANCH  19  20
HETATM   20  S   UNL     1     -12.118   7.595  72.173  1.00  0.00    -0.261 S  
HETATM   21  O   UNL     1     -13.262   6.833  71.716  1.00  0.00    -0.316 OA 
HETATM   22  O   UNL     1     -12.280   8.815  72.933  1.00  0.00    -0.202 OA 
BRANCH  20  23
HETATM   23  C   UNL     1     -11.090   6.493  73.126  1.00  0.00    -0.166 A  
HETATM   24  C   UNL     1      -9.994   7.013  73.823  1.00  0.00    -0.367 A  
HETATM   25  C   UNL     1      -9.165   6.148  74.535  1.00  0.00    -0.173 A  
HETATM   26  C   UNL     1      -9.434   4.778  74.553  1.00  0.00    -0.144 A  
HETATM   27  C   UNL     1     -10.539   4.267  73.868  1.00  0.00    -0.314 A  
HETATM   28  C   UNL     1     -11.376   5.125  73.153  1.00  0.00    -0.385 A  
ENDBRANCH  20  23
ENDBRANCH  19  20
ENDBRANCH  18  19
ENDBRANCH  15  18
ENDBRANCH   7   8
ENDBRANCH   6   7
TORSDOF 6
ENDMDL
MODEL      175
REMARK 921   NORMALIZED FREE ENERGY PREDICTED BY IDOCK:   -4.62 KCAL/MOL
REMARK 922        TOTAL FREE ENERGY PREDICTED BY IDOCK:   -7.82 KCAL/MOL
REMARK 923 INTER-LIGAND FREE ENERGY PREDICTED BY IDOCK:   -6.26 KCAL/MOL
REMARK 924 INTRA-LIGAND FREE ENERGY PREDICTED BY IDOCK:   -1.56 KCAL/MOL
REMARK 927      BINDING AFFINITY PREDICTED BY RF-SCORE:    0.00 PKD
ROOT
HETATM    1  C   UNL     1     -11.030   7.367  67.209  1.00  0.00    -0.164 C  
HETATM    2  N   UNL     1      -9.577   7.509  67.212  1.00  0.00    -0.147 NA 
HETATM    3  C   UNL     1      -8.967   6.658  66.183  1.00  0.00    -0.139 C  
HETATM    4  C   UNL     1      -7.654   7.343  65.877  1.00  0.00    -0.089 C  
HETATM    5  C   UNL     1      -8.020   8.811  65.924  1.00  0.00    -0.104 C  
HETATM    6  C   UNL     1      -9.138   8.905  66.972  1.00  0.00    -0.135 C  
ENDROOT
BRANCH   6   7
HETATM    7  C   UNL     1      -8.670   9.553  68.301  1.00  0.00    -0.120 C  
BRANCH   7   8
HETATM    8  C   UNL     1      -9.607  10.606  68.831  1.00  0.00    -0.204 A  
HETATM    9  C   UNL     1      -9.711  11.915  68.404  1.00  0.00    -0.201 A  
HETATM   10  N   UNL     1     -10.757  12.507  69.067  1.00  0.00    -0.405 NA 
HETATM   11  C   UNL     1     -11.358  11.601  69.909  1.00  0.00    -0.150 A  
HETATM   12  H   UNL     1     -11.047  13.479  68.952  1.00  0.00     0.000 HD 
HETATM   13  C   UNL     1     -10.611  10.429  69.833  1.00  0.00    -0.299 A  
HETATM   14  C   UNL     1     -10.992   9.338  70.634  1.00  0.00    -0.336 A  
HETATM   15  C   UNL     1     -12.156   9.386  71.414  1.00  0.00    -0.442 A  
HETATM   16  C   UNL     1     -12.901  10.574  71.432  1.00  0.00    -0.551 A  
HETATM   17  C   UNL     1     -12.499  11.710  70.709  1.00  0.00    -0.425 A  
BRANCH  15  18
HETATM   18  C   UNL     1     -12.678   8.146  72.112  1.00  0.00    -0.332 C  
BRANCH  18  19
HETATM   19  C   UNL     1     -12.197   6.835  71.501  1.00  0.00    -0.366 C  
BRANCH  19  20
HETATM   20  S   UNL     1     -11.213   5.885  72.638  1.00  0.00    -0.285 S  
HETATM   21  O   UNL     1     -12.005   4.761  73.097  1.00  0.00    -0.204 OA 
HETATM   22  O   UNL     1     -10.577   6.790  73.570  1.00  0.00    -0.297 OA 
BRANCH  20  23
HETATM   23  C   UNL     1      -9.950   5.240  71.558  1.00  0.00    -0.182 A  
HETATM   24  C   UNL     1      -9.580   3.895  71.665  1.00  0.00    -0.232 A  
HETATM   25  C   UNL     1      -8.564   3.399  70.850  1.00  0.00    -0.113 A  
HETATM   26  C   UNL     1      -7.929   4.240  69.935  1.00  0.00    -0.056 A  
HETATM   27  C   UNL     1      -8.312   5.577  69.821  1.00  0.00    -0.105 A  
HETATM   28  C   UNL     1      -9.330   6.084  70.632  1.00  0.00    -0.176 A  
ENDBRANCH  20  23
ENDBRANCH  19  20
ENDBRANCH  18  19
ENDBRANCH  15  18
ENDBRANCH   7   8
ENDBRANCH   6   7
TORSDOF 6
ENDMDL
MODEL      176
REMARK 921   NORMALIZED FREE ENERGY PREDICTED BY IDOCK:   -4.62 KCAL/MOL
REMARK 922        TOTAL FREE ENERGY PREDICTED BY IDOCK:   -7.82 KCAL/MOL
REMARK 923 INTER-LIGAND FREE ENERGY PREDICTED BY IDOCK:   -6.98 KCAL/MOL
REMARK 924 INTRA-LIGAND FREE ENERGY PREDICTED BY IDOCK:   -0.84 KCAL/MOL
REMARK 927      BINDING AFFINITY PREDICTED BY RF-SCORE:    0.00 PKD
ROOT
HETATM    1  C   UNL     1     -10.855  19.720  65.628  1.00  0.00    -0.232 C  
HETATM    2  N   UNL     1      -9.739  19.326  66.484  1.00  0.00    -0.346 NA 
HETATM    3  C   UNL     1      -9.510  20.324  67.536  1.00  0.00    -0.406 C  
HETATM    4  C   UNL     1      -8.838  19.540  68.641  1.00  0.00    -0.386 C  
HETATM    5  C   UNL     1      -9.571  18.216  68.610  1.00  0.00    -0.342 C  
HETATM    6  C   UNL     1      -9.955  18.013  67.137  1.00  0.00    -0.325 C  
ENDROOT
BRANCH   6   7
HETATM    7  C   UNL     1      -9.104  16.922  66.435  1.00  0.00    -0.315 C  
BRANCH   7   8
HETATM    8  C   UNL     1      -9.919  15.811  65.825  1.00  0.00    -0.389 A  
HETATM    9  C   UNL     1     -10.558  15.827  64.601  1.00  0.00     0.033 A  
HETATM   10  N   UNL     1     -11.093  14.584  64.373  1.00  0.00    -0.621 NA 
HETATM   11  C   UNL     1     -10.797  13.743  65.419  1.00  0.00    -0.312 A  
HETATM   12  H   UNL     1     -11.632  14.323  63.547  1.00  0.00     0.000 HD 
HETATM   13  C   UNL     1     -10.129  14.507  66.370  1.00  0.00    -0.293 A  
HETATM   14  C   UNL     1      -9.740  13.891  67.572  1.00  0.00    -0.232 A  
HETATM   15  C   UNL     1      -9.924  12.515  67.772  1.00  0.00    -0.210 A  
HETATM   16  C   UNL     1     -10.568  11.774  66.771  1.00  0.00    -0.273 A  
HETATM   17  C   UNL     1     -11.045  12.377  65.596  1.00  0.00    -0.343 A  
BRANCH  15  18
HETATM   18  C   UNL     1      -9.321  11.814  68.974  1.00  0.00     0.194 C  
BRANCH  18  19
HETATM   19  C   UNL     1      -8.023  11.072  68.679  1.00  0.00    -0.143 C  
BRANCH  19  20
HETATM   20  S   UNL     1      -8.262   9.312  68.582  1.00  0.00    -0.114 S  
HETATM   21  O   UNL     1      -7.008   8.663  68.907  1.00  0.00    -0.060 OA 
HETATM   22  O   UNL     1      -8.974   9.007  67.360  1.00  0.00    -0.124 OA 
BRANCH  20  23
HETATM   23  C   UNL     1      -9.377   9.031  69.945  1.00  0.00    -0.173 A  
HETATM   24  C   UNL     1      -8.859   8.927  71.241  1.00  0.00    -0.298 A  
HETATM   25  C   UNL     1      -9.724   8.666  72.302  1.00  0.00    -0.357 A  
HETATM   26  C   UNL     1     -11.093   8.518  72.069  1.00  0.00    -0.412 A  
HETATM   27  C   UNL     1     -11.605   8.639  70.776  1.00  0.00    -0.273 A  
HETATM   28  C   UNL     1     -10.748   8.901  69.706  1.00  0.00    -0.230 A  
ENDBRANCH  20  23
ENDBRANCH  19  20
ENDBRANCH  18  19
ENDBRANCH  15  18
ENDBRANCH   7   8
ENDBRANCH   6   7
TORSDOF 6
ENDMDL
MODEL      177
REMARK 921   NORMALIZED FREE ENERGY PREDICTED BY IDOCK:   -4.62 KCAL/MOL
REMARK 922        TOTAL FREE ENERGY PREDICTED BY IDOCK:   -7.81 KCAL/MOL
REMARK 923 INTER-LIGAND FREE ENERGY PREDICTED BY IDOCK:   -6.67 KCAL/MOL
REMARK 924 INTRA-LIGAND FREE ENERGY PREDICTED BY IDOCK:   -1.14 KCAL/MOL
REMARK 927      BINDING AFFINITY PREDICTED BY RF-SCORE:    0.00 PKD
ROOT
HETATM    1  C   UNL     1     -13.392  13.750  72.472  1.00  0.00    -0.552 C  
HETATM    2  N   UNL     1     -13.223  13.520  71.040  1.00  0.00    -0.147 NA 
HETATM    3  C   UNL     1     -12.861  14.763  70.349  1.00  0.00    -0.274 C  
HETATM    4  C   UNL     1     -12.131  14.292  69.111  1.00  0.00    -0.337 C  
HETATM    5  C   UNL     1     -11.324  13.117  69.622  1.00  0.00    -0.182 C  
HETATM    6  C   UNL     1     -12.180  12.509  70.742  1.00  0.00    -0.240 C  
ENDROOT
BRANCH   6   7
HETATM    7  C   UNL     1     -12.838  11.164  70.339  1.00  0.00    -0.176 C  
BRANCH   7   8
HETATM    8  C   UNL     1     -12.653  10.065  71.351  1.00  0.00    -0.518 A  
HETATM    9  C   UNL     1     -13.629   9.490  72.141  1.00  0.00    -0.424 A  
HETATM   10  N   UNL     1     -13.067   8.454  72.844  1.00  0.00    -0.646 NA 
HETATM   11  C   UNL     1     -11.738   8.324  72.513  1.00  0.00    -0.383 A  
HETATM   12  H   UNL     1     -13.563   7.866  73.514  1.00  0.00     0.000 HD 
HETATM   13  C   UNL     1     -11.441   9.365  71.639  1.00  0.00    -0.463 A  
HETATM   14  C   UNL     1     -10.121   9.489  71.170  1.00  0.00    -0.262 A  
HETATM   15  C   UNL     1      -9.148   8.529  71.486  1.00  0.00    -0.281 A  
HETATM   16  C   UNL     1      -9.502   7.475  72.340  1.00  0.00    -0.202 A  
HETATM   17  C   UNL     1     -10.788   7.371  72.894  1.00  0.00    -0.402 A  
BRANCH  15  18
HETATM   18  C   UNL     1      -7.788   8.548  70.817  1.00  0.00    -0.097 C  
BRANCH  18  19
HETATM   19  C   UNL     1      -7.254   7.169  70.448  1.00  0.00    -0.070 C  
BRANCH  19  20
HETATM   20  S   UNL     1      -7.683   6.705  68.785  1.00  0.00    -0.111 S  
HETATM   21  O   UNL     1      -6.467   6.650  67.999  1.00  0.00    -0.051 OA 
HETATM   22  O   UNL     1      -8.819   7.493  68.362  1.00  0.00    -0.127 OA 
BRANCH  20  23
HETATM   23  C   UNL     1      -8.242   5.028  69.020  1.00  0.00    -0.087 A  
HETATM   24  C   UNL     1      -9.318   4.780  69.879  1.00  0.00    -0.207 A  
HETATM   25  C   UNL     1      -9.729   3.466  70.095  1.00  0.00    -0.125 A  
HETATM   26  C   UNL     1      -9.074   2.413  69.455  1.00  0.00    -0.183 A  
HETATM   27  C   UNL     1      -8.011   2.668  68.586  1.00  0.00    -0.062 A  
HETATM   28  C   UNL     1      -7.591   3.980  68.361  1.00  0.00    -0.066 A  
ENDBRANCH  20  23
ENDBRANCH  19  20
ENDBRANCH  18  19
ENDBRANCH  15  18
ENDBRANCH   7   8
ENDBRANCH   6   7
TORSDOF 6
ENDMDL
MODEL      178
REMARK 921   NORMALIZED FREE ENERGY PREDICTED BY IDOCK:   -4.62 KCAL/MOL
REMARK 922        TOTAL FREE ENERGY PREDICTED BY IDOCK:   -7.81 KCAL/MOL
REMARK 923 INTER-LIGAND FREE ENERGY PREDICTED BY IDOCK:   -6.77 KCAL/MOL
REMARK 924 INTRA-LIGAND FREE ENERGY PREDICTED BY IDOCK:   -1.04 KCAL/MOL
REMARK 927      BINDING AFFINITY PREDICTED BY RF-SCORE:    0.00 PKD
ROOT
HETATM    1  C   UNL     1     -10.872   5.341  73.688  1.00  0.00    -0.294 C  
HETATM    2  N   UNL     1     -10.652   6.239  72.559  1.00  0.00    -0.203 NA 
HETATM    3  C   UNL     1     -11.771   7.176  72.410  1.00  0.00    -0.222 C  
HETATM    4  C   UNL     1     -11.160   8.363  71.698  1.00  0.00    -0.344 C  
HETATM    5  C   UNL     1      -9.794   8.474  72.340  1.00  0.00    -0.358 C  
HETATM    6  C   UNL     1      -9.405   7.031  72.693  1.00  0.00    -0.138 C  
ENDROOT
BRANCH   6   7
HETATM    7  C   UNL     1      -8.305   6.457  71.763  1.00  0.00    -0.120 C  
BRANCH   7   8
HETATM    8  C   UNL     1      -8.838   5.633  70.621  1.00  0.00    -0.145 A  
HETATM    9  C   UNL     1      -9.027   4.265  70.601  1.00  0.00    -0.100 A  
HETATM   10  N   UNL     1      -9.631   3.926  69.417  1.00  0.00    -0.190 NA 
HETATM   11  C   UNL     1      -9.864   5.053  68.664  1.00  0.00    -0.161 A  
HETATM   12  H   UNL     1      -9.873   2.975  69.136  1.00  0.00     0.000 HD 
HETATM   13  C   UNL     1      -9.311   6.121  69.364  1.00  0.00    -0.147 A  
HETATM   14  C   UNL     1      -9.377   7.403  68.790  1.00  0.00    -0.144 A  
HETATM   15  C   UNL     1     -10.075   7.625  67.595  1.00  0.00    -0.249 A  
HETATM   16  C   UNL     1     -10.651   6.526  66.942  1.00  0.00    -0.376 A  
HETATM   17  C   UNL     1     -10.529   5.220  67.445  1.00  0.00    -0.213 A  
BRANCH  15  18
HETATM   18  C   UNL     1     -10.324   9.032  67.087  1.00  0.00    -0.342 C  
BRANCH  18  19
HETATM   19  C   UNL     1      -9.895   9.260  65.642  1.00  0.00    -0.167 C  
BRANCH  19  20
HETATM   20  S   UNL     1      -9.110  10.840  65.415  1.00  0.00    -0.198 S  
HETATM   21  O   UNL     1      -8.557  10.886  64.077  1.00  0.00    -0.085 OA 
HETATM   22  O   UNL     1      -8.297  11.125  66.577  1.00  0.00    -0.157 OA 
BRANCH  20  23
HETATM   23  C   UNL     1     -10.513  11.940  65.450  1.00  0.00    -0.270 A  
HETATM   24  C   UNL     1     -11.302  12.078  64.303  1.00  0.00    -0.433 A  
HETATM   25  C   UNL     1     -12.374  12.968  64.315  1.00  0.00    -0.436 A  
HETATM   26  C   UNL     1     -12.656  13.708  65.465  1.00  0.00    -0.541 A  
HETATM   27  C   UNL     1     -11.874  13.554  66.611  1.00  0.00    -0.450 A  
HETATM   28  C   UNL     1     -10.799  12.665  66.611  1.00  0.00    -0.286 A  
ENDBRANCH  20  23
ENDBRANCH  19  20
ENDBRANCH  18  19
ENDBRANCH  15  18
ENDBRANCH   7   8
ENDBRANCH   6   7
TORSDOF 6
ENDMDL
MODEL      179
REMARK 921   NORMALIZED FREE ENERGY PREDICTED BY IDOCK:   -4.61 KCAL/MOL
REMARK 922        TOTAL FREE ENERGY PREDICTED BY IDOCK:   -7.81 KCAL/MOL
REMARK 923 INTER-LIGAND FREE ENERGY PREDICTED BY IDOCK:   -6.82 KCAL/MOL
REMARK 924 INTRA-LIGAND FREE ENERGY PREDICTED BY IDOCK:   -0.99 KCAL/MOL
REMARK 927      BINDING AFFINITY PREDICTED BY RF-SCORE:    0.00 PKD
ROOT
HETATM    1  C   UNL     1     -12.218  15.326  64.108  1.00  0.00    -0.114 C  
HETATM    2  N   UNL     1     -11.778  14.170  64.883  1.00  0.00    -0.372 NA 
HETATM    3  C   UNL     1     -12.389  12.936  64.374  1.00  0.00    -0.398 C  
HETATM    4  C   UNL     1     -11.422  11.851  64.793  1.00  0.00    -0.323 C  
HETATM    5  C   UNL     1     -10.071  12.503  64.583  1.00  0.00    -0.258 C  
HETATM    6  C   UNL     1     -10.306  13.994  64.865  1.00  0.00    -0.409 C  
ENDROOT
BRANCH   6   7
HETATM    7  C   UNL     1      -9.695  14.459  66.212  1.00  0.00    -0.330 C  
BRANCH   7   8
HETATM    8  C   UNL     1     -10.570  14.184  67.407  1.00  0.00    -0.279 A  
HETATM    9  C   UNL     1     -11.593  14.978  67.887  1.00  0.00    -0.333 A  
HETATM   10  N   UNL     1     -12.209  14.317  68.921  1.00  0.00    -0.548 NA 
HETATM   11  C   UNL     1     -11.620  13.090  69.115  1.00  0.00    -0.316 A  
HETATM   12  H   UNL     1     -12.990  14.684  69.466  1.00  0.00     0.000 HD 
HETATM   13  C   UNL     1     -10.549  13.016  68.231  1.00  0.00    -0.260 A  
HETATM   14  C   UNL     1      -9.743  11.864  68.249  1.00  0.00    -0.200 A  
HETATM   15  C   UNL     1     -10.068  10.767  69.061  1.00  0.00    -0.225 A  
HETATM   16  C   UNL     1     -11.179  10.870  69.909  1.00  0.00    -0.355 A  
HETATM   17  C   UNL     1     -11.953  12.040  69.977  1.00  0.00    -0.400 A  
BRANCH  15  18
HETATM   18  C   UNL     1      -9.325   9.452  68.928  1.00  0.00    -0.154 C  
BRANCH  18  19
HETATM   19  C   UNL     1     -10.229   8.239  68.750  1.00  0.00    -0.210 C  
BRANCH  19  20
HETATM   20  S   UNL     1     -10.028   7.479  67.154  1.00  0.00    -0.246 S  
HETATM   21  O   UNL     1      -9.501   8.471  66.240  1.00  0.00    -0.207 OA 
HETATM   22  O   UNL     1     -11.224   6.728  66.844  1.00  0.00    -0.375 OA 
BRANCH  20  23
HETATM   23  C   UNL     1      -8.722   6.310  67.482  1.00  0.00    -0.105 A  
HETATM   24  C   UNL     1      -8.160   5.597  66.418  1.00  0.00    -0.106 A  
HETATM   25  C   UNL     1      -7.169   4.653  66.677  1.00  0.00    -0.080 A  
HETATM   26  C   UNL     1      -6.740   4.430  67.987  1.00  0.00    -0.047 A  
HETATM   27  C   UNL     1      -7.293   5.156  69.043  1.00  0.00    -0.061 A  
HETATM   28  C   UNL     1      -8.286   6.105  68.795  1.00  0.00    -0.111 A  
ENDBRANCH  20  23
ENDBRANCH  19  20
ENDBRANCH  18  19
ENDBRANCH  15  18
ENDBRANCH   7   8
ENDBRANCH   6   7
TORSDOF 6
ENDMDL
MODEL      180
REMARK 921   NORMALIZED FREE ENERGY PREDICTED BY IDOCK:   -4.61 KCAL/MOL
REMARK 922        TOTAL FREE ENERGY PREDICTED BY IDOCK:   -7.80 KCAL/MOL
REMARK 923 INTER-LIGAND FREE ENERGY PREDICTED BY IDOCK:   -6.94 KCAL/MOL
REMARK 924 INTRA-LIGAND FREE ENERGY PREDICTED BY IDOCK:   -0.87 KCAL/MOL
REMARK 927      BINDING AFFINITY PREDICTED BY RF-SCORE:    0.00 PKD
ROOT
HETATM    1  C   UNL     1     -10.394  19.309  66.169  1.00  0.00    -0.494 C  
HETATM    2  N   UNL     1      -9.867  18.440  67.217  1.00  0.00    -0.306 NA 
HETATM    3  C   UNL     1     -10.041  19.052  68.540  1.00  0.00    -0.400 C  
HETATM    4  C   UNL     1     -10.065  17.873  69.486  1.00  0.00     0.150 C  
HETATM    5  C   UNL     1     -10.850  16.835  68.713  1.00  0.00    -0.318 C  
HETATM    6  C   UNL     1     -10.519  17.109  67.239  1.00  0.00    -0.313 C  
ENDROOT
BRANCH   6   7
HETATM    7  C   UNL     1      -9.576  16.043  66.622  1.00  0.00    -0.258 C  
BRANCH   7   8
HETATM    8  C   UNL     1     -10.283  15.023  65.767  1.00  0.00    -0.361 A  
HETATM    9  C   UNL     1     -10.930  15.251  64.568  1.00  0.00    -0.192 A  
HETATM   10  N   UNL     1     -11.343  14.045  64.061  1.00  0.00    -0.587 NA 
HETATM   11  C   UNL     1     -10.959  13.023  64.896  1.00  0.00    -0.307 A  
HETATM   12  H   UNL     1     -11.860  13.924  63.189  1.00  0.00     0.000 HD 
HETATM   13  C   UNL     1     -10.361  13.617  66.004  1.00  0.00    -0.305 A  
HETATM   14  C   UNL     1      -9.904  12.787  67.043  1.00  0.00    -0.231 A  
HETATM   15  C   UNL     1      -9.952  11.390  66.928  1.00  0.00    -0.235 A  
HETATM   16  C   UNL     1     -10.528  10.834  65.777  1.00  0.00    -0.256 A  
HETATM   17  C   UNL     1     -11.070  11.636  64.760  1.00  0.00    -0.328 A  
BRANCH  15  18
HETATM   18  C   UNL     1      -9.274  10.500  67.951  1.00  0.00    -0.143 C  
BRANCH  18  19
HETATM   19  C   UNL     1      -9.936  10.510  69.323  1.00  0.00    -0.213 C  
BRANCH  19  20
HETATM   20  S   UNL     1      -9.243   9.287  70.413  1.00  0.00    -0.262 S  
HETATM   21  O   UNL     1     -10.120   9.145  71.557  1.00  0.00    -0.319 OA 
HETATM   22  O   UNL     1      -7.831   9.557  70.575  1.00  0.00    -0.154 OA 
BRANCH  20  23
HETATM   23  C   UNL     1      -9.404   7.807  69.432  1.00  0.00    -0.152 A  
HETATM   24  C   UNL     1     -10.680   7.362  69.070  1.00  0.00    -0.164 A  
HETATM   25  C   UNL     1     -10.810   6.183  68.339  1.00  0.00    -0.382 A  
HETATM   26  C   UNL     1      -9.675   5.460  67.969  1.00  0.00    -0.169 A  
HETATM   27  C   UNL     1      -8.403   5.917  68.319  1.00  0.00    -0.112 A  
HETATM   28  C   UNL     1      -8.261   7.098  69.050  1.00  0.00    -0.125 A  
ENDBRANCH  20  23
ENDBRANCH  19  20
ENDBRANCH  18  19
ENDBRANCH  15  18
ENDBRANCH   7   8
ENDBRANCH   6   7
TORSDOF 6
ENDMDL
MODEL      181
REMARK 921   NORMALIZED FREE ENERGY PREDICTED BY IDOCK:   -4.60 KCAL/MOL
REMARK 922        TOTAL FREE ENERGY PREDICTED BY IDOCK:   -7.79 KCAL/MOL
REMARK 923 INTER-LIGAND FREE ENERGY PREDICTED BY IDOCK:   -6.04 KCAL/MOL
REMARK 924 INTRA-LIGAND FREE ENERGY PREDICTED BY IDOCK:   -1.76 KCAL/MOL
REMARK 927      BINDING AFFINITY PREDICTED BY RF-SCORE:    0.00 PKD
ROOT
HETATM    1  C   UNL     1     -12.589  11.627  71.019  1.00  0.00    -0.331 C  
HETATM    2  N   UNL     1     -11.998  10.938  69.876  1.00  0.00    -0.325 NA 
HETATM    3  C   UNL     1     -11.452  11.900  68.911  1.00  0.00    -0.301 C  
HETATM    4  C   UNL     1     -10.382  11.117  68.183  1.00  0.00    -0.207 C  
HETATM    5  C   UNL     1      -9.759  10.289  69.286  1.00  0.00    -0.240 C  
HETATM    6  C   UNL     1     -10.908  10.011  70.266  1.00  0.00    -0.313 C  
ENDROOT
BRANCH   6   7
HETATM    7  C   UNL     1     -11.409   8.544  70.212  1.00  0.00    -0.135 C  
BRANCH   7   8
HETATM    8  C   UNL     1     -11.166   7.768  71.480  1.00  0.00    -0.278 A  
HETATM    9  C   UNL     1     -11.520   8.142  72.762  1.00  0.00    -0.329 A  
HETATM   10  N   UNL     1     -11.219   7.109  73.615  1.00  0.00    -0.504 NA 
HETATM   11  C   UNL     1     -10.691   6.052  72.911  1.00  0.00    -0.247 A  
HETATM   12  H   UNL     1     -11.365   7.124  74.624  1.00  0.00     0.000 HD 
HETATM   13  C   UNL     1     -10.581   6.470  71.588  1.00  0.00    -0.250 A  
HETATM   14  C   UNL     1     -10.027   5.581  70.649  1.00  0.00    -0.270 A  
HETATM   15  C   UNL     1      -9.691   4.268  71.008  1.00  0.00    -0.260 A  
HETATM   16  C   UNL     1      -9.854   3.877  72.345  1.00  0.00    -0.220 A  
HETATM   17  C   UNL     1     -10.324   4.768  73.324  1.00  0.00    -0.233 A  
BRANCH  15  18
HETATM   18  C   UNL     1      -9.291   3.250  69.957  1.00  0.00    -0.238 C  
BRANCH  18  19
HETATM   19  C   UNL     1      -9.563   3.692  68.525  1.00  0.00    -0.094 C  
BRANCH  19  20
HETATM   20  S   UNL     1      -8.082   4.218  67.692  1.00  0.00    -0.095 S  
HETATM   21  O   UNL     1      -7.873   3.358  66.545  1.00  0.00    -0.080 OA 
HETATM   22  O   UNL     1      -7.044   4.425  68.677  1.00  0.00    -0.051 OA 
BRANCH  20  23
HETATM   23  C   UNL     1      -8.572   5.818  67.076  1.00  0.00    -0.110 A  
HETATM   24  C   UNL     1      -9.873   6.274  67.317  1.00  0.00    -0.165 A  
HETATM   25  C   UNL     1     -10.271   7.506  66.801  1.00  0.00    -0.324 A  
HETATM   26  C   UNL     1      -9.375   8.275  66.056  1.00  0.00    -0.217 A  
HETATM   27  C   UNL     1      -8.074   7.822  65.832  1.00  0.00    -0.121 A  
HETATM   28  C   UNL     1      -7.664   6.590  66.345  1.00  0.00    -0.099 A  
ENDBRANCH  20  23
ENDBRANCH  19  20
ENDBRANCH  18  19
ENDBRANCH  15  18
ENDBRANCH   7   8
ENDBRANCH   6   7
TORSDOF 6
ENDMDL
MODEL      182
REMARK 921   NORMALIZED FREE ENERGY PREDICTED BY IDOCK:   -4.59 KCAL/MOL
REMARK 922        TOTAL FREE ENERGY PREDICTED BY IDOCK:   -7.77 KCAL/MOL
REMARK 923 INTER-LIGAND FREE ENERGY PREDICTED BY IDOCK:   -6.45 KCAL/MOL
REMARK 924 INTRA-LIGAND FREE ENERGY PREDICTED BY IDOCK:   -1.32 KCAL/MOL
REMARK 927      BINDING AFFINITY PREDICTED BY RF-SCORE:    0.00 PKD
ROOT
HETATM    1  C   UNL     1      -9.599   8.741  71.105  1.00  0.00    -0.242 C  
HETATM    2  N   UNL     1      -9.330   7.683  70.135  1.00  0.00    -0.157 NA 
HETATM    3  C   UNL     1      -8.105   6.953  70.484  1.00  0.00    -0.115 C  
HETATM    4  C   UNL     1      -8.295   5.596  69.846  1.00  0.00    -0.117 C  
HETATM    5  C   UNL     1      -9.767   5.319  70.073  1.00  0.00    -0.263 C  
HETATM    6  C   UNL     1     -10.436   6.700  70.039  1.00  0.00    -0.212 C  
ENDROOT
BRANCH   6   7
HETATM    7  C   UNL     1     -11.255   6.944  68.744  1.00  0.00    -0.095 C  
BRANCH   7   8
HETATM    8  C   UNL     1     -10.453   7.539  67.617  1.00  0.00    -0.319 A  
HETATM    9  C   UNL     1      -9.669   6.858  66.706  1.00  0.00    -0.177 A  
HETATM   10  N   UNL     1      -9.200   7.754  65.779  1.00  0.00    -0.397 NA 
HETATM   11  C   UNL     1      -9.680   9.013  66.053  1.00  0.00    -0.269 A  
HETATM   12  H   UNL     1      -8.584   7.520  65.000  1.00  0.00     0.000 HD 
HETATM   13  C   UNL     1     -10.404   8.916  67.237  1.00  0.00    -0.350 A  
HETATM   14  C   UNL     1     -10.980  10.084  67.768  1.00  0.00    -0.310 A  
HETATM   15  C   UNL     1     -10.920  11.300  67.073  1.00  0.00    -0.352 A  
HETATM   16  C   UNL     1     -10.211  11.345  65.864  1.00  0.00    -0.292 A  
HETATM   17  C   UNL     1      -9.553  10.215  65.350  1.00  0.00    -0.325 A  
BRANCH  15  18
HETATM   18  C   UNL     1     -11.713  12.505  67.540  1.00  0.00    -0.439 C  
BRANCH  18  19
HETATM   19  C   UNL     1     -11.413  12.934  68.971  1.00  0.00    -0.308 C  
BRANCH  19  20
HETATM   20  S   UNL     1     -10.969  14.653  69.079  1.00  0.00    -0.267 S  
HETATM   21  O   UNL     1     -10.953  15.033  70.477  1.00  0.00    -0.245 OA 
HETATM   22  O   UNL     1     -11.742  15.393  68.105  1.00  0.00    -0.351 OA 
BRANCH  20  23
HETATM   23  C   UNL     1      -9.278  14.617  68.517  1.00  0.00    -0.193 A  
HETATM   24  C   UNL     1      -8.733  15.755  67.912  1.00  0.00    -0.170 A  
HETATM   25  C   UNL     1      -7.425  15.715  67.435  1.00  0.00    -0.235 A  
HETATM   26  C   UNL     1      -6.667  14.550  67.567  1.00  0.00    -0.141 A  
HETATM   27  C   UNL     1      -7.210  13.422  68.185  1.00  0.00    -0.113 A  
HETATM   28  C   UNL     1      -8.520  13.451  68.667  1.00  0.00     0.001 A  
ENDBRANCH  20  23
ENDBRANCH  19  20
ENDBRANCH  18  19
ENDBRANCH  15  18
ENDBRANCH   7   8
ENDBRANCH   6   7
TORSDOF 6
ENDMDL
MODEL      183
REMARK 921   NORMALIZED FREE ENERGY PREDICTED BY IDOCK:   -4.58 KCAL/MOL
REMARK 922        TOTAL FREE ENERGY PREDICTED BY IDOCK:   -7.77 KCAL/MOL
REMARK 923 INTER-LIGAND FREE ENERGY PREDICTED BY IDOCK:   -6.89 KCAL/MOL
REMARK 924 INTRA-LIGAND FREE ENERGY PREDICTED BY IDOCK:   -0.87 KCAL/MOL
REMARK 927      BINDING AFFINITY PREDICTED BY RF-SCORE:    0.00 PKD
ROOT
HETATM    1  C   UNL     1     -13.413  13.849  72.513  1.00  0.00    -0.572 C  
HETATM    2  N   UNL     1     -13.242  13.616  71.082  1.00  0.00    -0.237 NA 
HETATM    3  C   UNL     1     -12.856  14.854  70.393  1.00  0.00    -0.280 C  
HETATM    4  C   UNL     1     -12.129  14.371  69.158  1.00  0.00    -0.316 C  
HETATM    5  C   UNL     1     -11.344  13.183  69.672  1.00  0.00    -0.182 C  
HETATM    6  C   UNL     1     -12.214  12.589  70.788  1.00  0.00    -0.240 C  
ENDROOT
BRANCH   6   7
HETATM    7  C   UNL     1     -12.894  11.255  70.382  1.00  0.00    -0.114 C  
BRANCH   7   8
HETATM    8  C   UNL     1     -12.662  10.129  71.355  1.00  0.00    -0.530 A  
HETATM    9  C   UNL     1     -13.558   9.638  72.284  1.00  0.00    -0.367 A  
HETATM   10  N   UNL     1     -12.996   8.545  72.895  1.00  0.00    -0.694 NA 
HETATM   11  C   UNL     1     -11.751   8.295  72.367  1.00  0.00    -0.397 A  
HETATM   12  H   UNL     1     -13.438   7.996  73.633  1.00  0.00     0.000 HD 
HETATM   13  C   UNL     1     -11.492   9.316  71.457  1.00  0.00    -0.454 A  
HETATM   14  C   UNL     1     -10.252   9.322  70.793  1.00  0.00    -0.353 A  
HETATM   15  C   UNL     1      -9.338   8.272  70.959  1.00  0.00    -0.196 A  
HETATM   16  C   UNL     1      -9.656   7.244  71.857  1.00  0.00    -0.164 A  
HETATM   17  C   UNL     1     -10.849   7.253  72.599  1.00  0.00    -0.331 A  
BRANCH  15  18
HETATM   18  C   UNL     1      -8.099   8.172  70.090  1.00  0.00    -0.113 C  
BRANCH  18  19
HETATM   19  C   UNL     1      -8.277   7.315  68.843  1.00  0.00    -0.125 C  
BRANCH  19  20
HETATM   20  S   UNL     1      -8.785   8.275  67.435  1.00  0.00    -0.124 S  
HETATM   21  O   UNL     1      -7.841   9.359  67.257  1.00  0.00    -0.098 OA 
HETATM   22  O   UNL     1     -10.207   8.522  67.531  1.00  0.00    -0.206 OA 
BRANCH  20  23
HETATM   23  C   UNL     1      -8.523   7.117  66.105  1.00  0.00    -0.142 A  
HETATM   24  C   UNL     1      -7.994   7.575  64.894  1.00  0.00    -0.132 A  
HETATM   25  C   UNL     1      -7.827   6.679  63.839  1.00  0.00    -0.109 A  
HETATM   26  C   UNL     1      -8.181   5.338  63.998  1.00  0.00    -0.131 A  
HETATM   27  C   UNL     1      -8.694   4.883  65.214  1.00  0.00    -0.146 A  
HETATM   28  C   UNL     1      -8.864   5.772  66.277  1.00  0.00    -0.140 A  
ENDBRANCH  20  23
ENDBRANCH  19  20
ENDBRANCH  18  19
ENDBRANCH  15  18
ENDBRANCH   7   8
ENDBRANCH   6   7
TORSDOF 6
ENDMDL
MODEL      184
REMARK 921   NORMALIZED FREE ENERGY PREDICTED BY IDOCK:   -4.58 KCAL/MOL
REMARK 922        TOTAL FREE ENERGY PREDICTED BY IDOCK:   -7.77 KCAL/MOL
REMARK 923 INTER-LIGAND FREE ENERGY PREDICTED BY IDOCK:   -6.96 KCAL/MOL
REMARK 924 INTRA-LIGAND FREE ENERGY PREDICTED BY IDOCK:   -0.80 KCAL/MOL
REMARK 927      BINDING AFFINITY PREDICTED BY RF-SCORE:    0.00 PKD
ROOT
HETATM    1  C   UNL     1      -8.121  10.006  69.332  1.00  0.00    -0.149 C  
HETATM    2  N   UNL     1      -8.651   9.143  68.280  1.00  0.00    -0.128 NA 
HETATM    3  C   UNL     1      -9.287   7.951  68.853  1.00  0.00    -0.150 C  
HETATM    4  C   UNL     1     -10.284   7.527  67.798  1.00  0.00    -0.257 C  
HETATM    5  C   UNL     1     -10.824   8.849  67.294  1.00  0.00    -0.084 C  
HETATM    6  C   UNL     1      -9.650   9.830  67.426  1.00  0.00    -0.155 C  
ENDROOT
BRANCH   6   7
HETATM    7  C   UNL     1      -9.018  10.205  66.061  1.00  0.00    -0.174 C  
BRANCH   7   8
HETATM    8  C   UNL     1      -9.915  11.033  65.178  1.00  0.00    -0.333 A  
HETATM    9  C   UNL     1     -10.491  10.646  63.984  1.00  0.00    -0.080 A  
HETATM   10  N   UNL     1     -11.321  11.651  63.555  1.00  0.00    -0.644 NA 
HETATM   11  C   UNL     1     -11.318  12.686  64.460  1.00  0.00    -0.333 A  
HETATM   12  H   UNL     1     -11.863  11.632  62.691  1.00  0.00     0.000 HD 
HETATM   13  C   UNL     1     -10.391  12.354  65.443  1.00  0.00    -0.303 A  
HETATM   14  C   UNL     1     -10.161  13.271  66.484  1.00  0.00    -0.275 A  
HETATM   15  C   UNL     1     -10.919  14.446  66.594  1.00  0.00    -0.318 A  
HETATM   16  C   UNL     1     -11.870  14.723  65.601  1.00  0.00    -0.212 A  
HETATM   17  C   UNL     1     -12.063  13.869  64.503  1.00  0.00    -0.473 A  
BRANCH  15  18
HETATM   18  C   UNL     1     -10.817  15.328  67.823  1.00  0.00    -0.295 C  
BRANCH  18  19
HETATM   19  C   UNL     1     -10.193  16.693  67.561  1.00  0.00    -0.289 C  
BRANCH  19  20
HETATM   20  S   UNL     1      -8.541  16.566  66.916  1.00  0.00    -0.229 S  
HETATM   21  O   UNL     1      -8.625  16.346  65.486  1.00  0.00    -0.163 OA 
HETATM   22  O   UNL     1      -7.776  15.684  67.770  1.00  0.00    -0.128 OA 
BRANCH  20  23
HETATM   23  C   UNL     1      -7.935  18.224  67.165  1.00  0.00    -0.220 A  
HETATM   24  C   UNL     1      -7.809  18.717  68.468  1.00  0.00    -0.367 A  
HETATM   25  C   UNL     1      -7.375  20.027  68.663  1.00  0.00    -0.234 A  
HETATM   26  C   UNL     1      -7.065  20.832  67.566  1.00  0.00    -0.397 A  
HETATM   27  C   UNL     1      -7.177  20.330  66.268  1.00  0.00    -0.302 A  
HETATM   28  C   UNL     1      -7.610  19.019  66.061  1.00  0.00    -0.273 A  
ENDBRANCH  20  23
ENDBRANCH  19  20
ENDBRANCH  18  19
ENDBRANCH  15  18
ENDBRANCH   7   8
ENDBRANCH   6   7
TORSDOF 6
ENDMDL
MODEL      185
REMARK 921   NORMALIZED FREE ENERGY PREDICTED BY IDOCK:   -4.58 KCAL/MOL
REMARK 922        TOTAL FREE ENERGY PREDICTED BY IDOCK:   -7.76 KCAL/MOL
REMARK 923 INTER-LIGAND FREE ENERGY PREDICTED BY IDOCK:   -6.99 KCAL/MOL
REMARK 924 INTRA-LIGAND FREE ENERGY PREDICTED BY IDOCK:   -0.76 KCAL/MOL
REMARK 927      BINDING AFFINITY PREDICTED BY RF-SCORE:    0.00 PKD
ROOT
HETATM    1  C   UNL     1      -9.553   7.391  70.300  1.00  0.00    -0.165 C  
HETATM    2  N   UNL     1      -9.332   6.546  69.130  1.00  0.00    -0.134 NA 
HETATM    3  C   UNL     1      -8.313   5.526  69.407  1.00  0.00    -0.101 C  
HETATM    4  C   UNL     1      -8.639   4.414  68.436  1.00  0.00    -0.106 C  
HETATM    5  C   UNL     1     -10.153   4.395  68.439  1.00  0.00     0.026 C  
HETATM    6  C   UNL     1     -10.564   5.854  68.682  1.00  0.00    -0.256 C  
ENDROOT
BRANCH   6   7
HETATM    7  C   UNL     1     -11.132   6.543  67.413  1.00  0.00    -0.411 C  
BRANCH   7   8
HETATM    8  C   UNL     1     -10.119   7.361  66.656  1.00  0.00    -0.253 A  
HETATM    9  C   UNL     1      -9.220   6.903  65.713  1.00  0.00     0.132 A  
HETATM   10  N   UNL     1      -8.555   7.981  65.186  1.00  0.00    -0.338 NA 
HETATM   11  C   UNL     1      -9.017   9.146  65.753  1.00  0.00    -0.193 A  
HETATM   12  H   UNL     1      -7.824   7.926  64.476  1.00  0.00     0.000 HD 
HETATM   13  C   UNL     1      -9.940   8.777  66.726  1.00  0.00    -0.338 A  
HETATM   14  C   UNL     1     -10.545   9.788  67.493  1.00  0.00    -0.335 A  
HETATM   15  C   UNL     1     -10.308  11.143  67.219  1.00  0.00    -0.243 A  
HETATM   16  C   UNL     1      -9.398  11.470  66.203  1.00  0.00    -0.230 A  
HETATM   17  C   UNL     1      -8.714  10.483  65.477  1.00  0.00    -0.197 A  
BRANCH  15  18
HETATM   18  C   UNL     1     -11.114  12.230  67.903  1.00  0.00    -0.290 C  
BRANCH  18  19
HETATM   19  C   UNL     1     -10.286  13.419  68.374  1.00  0.00    -0.251 C  
BRANCH  19  20
HETATM   20  S   UNL     1     -11.226  14.929  68.391  1.00  0.00    -0.307 S  
HETATM   21  O   UNL     1     -12.404  14.742  67.569  1.00  0.00    -0.108 OA 
HETATM   22  O   UNL     1     -10.324  16.039  68.175  1.00  0.00    -0.247 OA 
BRANCH  20  23
HETATM   23  C   UNL     1     -11.765  14.990  70.089  1.00  0.00    -0.299 A  
HETATM   24  C   UNL     1     -11.470  16.119  70.861  1.00  0.00    -0.421 A  
HETATM   25  C   UNL     1     -11.854  16.151  72.200  1.00  0.00    -0.626 A  
HETATM   26  C   UNL     1     -12.533  15.066  72.759  1.00  0.00    -0.472 A  
HETATM   27  C   UNL     1     -12.839  13.949  71.980  1.00  0.00    -0.393 A  
HETATM   28  C   UNL     1     -12.460  13.907  70.638  1.00  0.00    -0.436 A  
ENDBRANCH  20  23
ENDBRANCH  19  20
ENDBRANCH  18  19
ENDBRANCH  15  18
ENDBRANCH   7   8
ENDBRANCH   6   7
TORSDOF 6
ENDMDL
MODEL      186
REMARK 921   NORMALIZED FREE ENERGY PREDICTED BY IDOCK:   -4.57 KCAL/MOL
REMARK 922        TOTAL FREE ENERGY PREDICTED BY IDOCK:   -7.74 KCAL/MOL
REMARK 923 INTER-LIGAND FREE ENERGY PREDICTED BY IDOCK:   -6.99 KCAL/MOL
REMARK 924 INTRA-LIGAND FREE ENERGY PREDICTED BY IDOCK:   -0.76 KCAL/MOL
REMARK 927      BINDING AFFINITY PREDICTED BY RF-SCORE:    0.00 PKD
ROOT
HETATM    1  C   UNL     1      -8.146   5.286  71.477  1.00  0.00    -0.116 C  
HETATM    2  N   UNL     1      -9.445   5.685  72.012  1.00  0.00    -0.150 NA 
HETATM    3  C   UNL     1      -9.403   5.772  73.476  1.00  0.00    -0.134 C  
HETATM    4  C   UNL     1     -10.507   6.748  73.814  1.00  0.00    -0.383 C  
HETATM    5  C   UNL     1     -10.396   7.779  72.711  1.00  0.00    -0.374 C  
HETATM    6  C   UNL     1      -9.902   6.995  71.487  1.00  0.00    -0.172 C  
ENDROOT
BRANCH   6   7
HETATM    7  C   UNL     1     -11.004   6.785  70.417  1.00  0.00    -0.330 C  
BRANCH   7   8
HETATM    8  C   UNL     1     -10.591   7.191  69.026  1.00  0.00    -0.225 A  
HETATM    9  C   UNL     1     -10.168   6.358  68.010  1.00  0.00    -0.164 A  
HETATM   10  N   UNL     1      -9.993   7.109  66.875  1.00  0.00    -0.210 NA 
HETATM   11  C   UNL     1     -10.316   8.423  67.123  1.00  0.00    -0.311 A  
HETATM   12  H   UNL     1      -9.671   6.746  65.978  1.00  0.00     0.000 HD 
HETATM   13  C   UNL     1     -10.620   8.510  68.477  1.00  0.00    -0.154 A  
HETATM   14  C   UNL     1     -10.953   9.769  69.009  1.00  0.00    -0.193 A  
HETATM   15  C   UNL     1     -11.080  10.893  68.181  1.00  0.00    -0.337 A  
HETATM   16  C   UNL     1     -10.800  10.752  66.814  1.00  0.00    -0.256 A  
HETATM   17  C   UNL     1     -10.383   9.527  66.267  1.00  0.00    -0.226 A  
BRANCH  15  18
HETATM   18  C   UNL     1     -11.638  12.197  68.716  1.00  0.00    -0.380 C  
BRANCH  18  19
HETATM   19  C   UNL     1     -10.689  13.383  68.586  1.00  0.00    -0.255 C  
BRANCH  19  20
HETATM   20  S   UNL     1     -11.506  14.831  67.953  1.00  0.00    -0.352 S  
HETATM   21  O   UNL     1     -12.275  15.427  69.027  1.00  0.00    -0.257 OA 
HETATM   22  O   UNL     1     -12.115  14.502  66.683  1.00  0.00    -0.393 OA 
BRANCH  20  23
HETATM   23  C   UNL     1     -10.120  15.905  67.630  1.00  0.00    -0.242 A  
HETATM   24  C   UNL     1      -9.615  15.997  66.329  1.00  0.00    -0.336 A  
HETATM   25  C   UNL     1      -8.506  16.804  66.082  1.00  0.00    -0.298 A  
HETATM   26  C   UNL     1      -7.913  17.516  67.126  1.00  0.00    -0.229 A  
HETATM   27  C   UNL     1      -8.431  17.433  68.420  1.00  0.00    -0.263 A  
HETATM   28  C   UNL     1      -9.542  16.629  68.678  1.00  0.00    -0.248 A  
ENDBRANCH  20  23
ENDBRANCH  19  20
ENDBRANCH  18  19
ENDBRANCH  15  18
ENDBRANCH   7   8
ENDBRANCH   6   7
TORSDOF 6
ENDMDL
MODEL      187
REMARK 921   NORMALIZED FREE ENERGY PREDICTED BY IDOCK:   -4.56 KCAL/MOL
REMARK 922        TOTAL FREE ENERGY PREDICTED BY IDOCK:   -7.74 KCAL/MOL
REMARK 923 INTER-LIGAND FREE ENERGY PREDICTED BY IDOCK:   -7.17 KCAL/MOL
REMARK 924 INTRA-LIGAND FREE ENERGY PREDICTED BY IDOCK:   -0.57 KCAL/MOL
REMARK 927      BINDING AFFINITY PREDICTED BY RF-SCORE:    0.00 PKD
ROOT
HETATM    1  C   UNL     1      -9.909   4.673  65.787  1.00  0.00    -0.215 C  
HETATM    2  N   UNL     1      -9.736   6.057  66.219  1.00  0.00    -0.122 NA 
HETATM    3  C   UNL     1     -10.997   6.606  66.732  1.00  0.00    -0.216 C  
HETATM    4  C   UNL     1     -10.559   7.706  67.672  1.00  0.00    -0.294 C  
HETATM    5  C   UNL     1      -9.338   7.111  68.342  1.00  0.00    -0.135 C  
HETATM    6  C   UNL     1      -8.708   6.202  67.278  1.00  0.00    -0.108 C  
ENDROOT
BRANCH   6   7
HETATM    7  C   UNL     1      -7.403   6.786  66.678  1.00  0.00    -0.074 C  
BRANCH   7   8
HETATM    8  C   UNL     1      -7.513   7.163  65.224  1.00  0.00    -0.092 A  
HETATM    9  C   UNL     1      -7.078   6.424  64.141  1.00  0.00    -0.057 A  
HETATM   10  N   UNL     1      -7.465   7.068  62.992  1.00  0.00    -0.086 NA 
HETATM   11  C   UNL     1      -8.168   8.208  63.302  1.00  0.00    -0.073 A  
HETATM   12  H   UNL     1      -7.262   6.746  62.045  1.00  0.00     0.000 HD 
HETATM   13  C   UNL     1      -8.146   8.326  64.688  1.00  0.00    -0.150 A  
HETATM   14  C   UNL     1      -8.770   9.441  65.276  1.00  0.00    -0.204 A  
HETATM   15  C   UNL     1      -9.488  10.361  64.498  1.00  0.00    -0.342 A  
HETATM   16  C   UNL     1      -9.516  10.183  63.108  1.00  0.00    -0.296 A  
HETATM   17  C   UNL     1      -8.833   9.127  62.483  1.00  0.00    -0.190 A  
BRANCH  15  18
HETATM   18  C   UNL     1     -10.330  11.442  65.149  1.00  0.00    -0.344 C  
BRANCH  18  19
HETATM   19  C   UNL     1     -10.667  12.609  64.229  1.00  0.00    -0.382 C  
BRANCH  19  20
HETATM   20  S   UNL     1     -12.225  13.362  64.641  1.00  0.00    -0.404 S  
HETATM   21  O   UNL     1     -13.262  12.358  64.521  1.00  0.00    -0.834 OA 
HETATM   22  O   UNL     1     -12.321  14.632  63.955  1.00  0.00    -0.730 OA 
BRANCH  20  23
HETATM   23  C   UNL     1     -12.006  13.698  66.378  1.00  0.00    -0.426 A  
HETATM   24  C   UNL     1     -11.733  15.006  66.792  1.00  0.00    -0.161 A  
HETATM   25  C   UNL     1     -11.521  15.263  68.145  1.00  0.00    -0.357 A  
HETATM   26  C   UNL     1     -11.587  14.223  69.074  1.00  0.00    -0.342 A  
HETATM   27  C   UNL     1     -11.875  12.922  68.657  1.00  0.00    -0.347 A  
HETATM   28  C   UNL     1     -12.090  12.654  67.304  1.00  0.00    -0.184 A  
ENDBRANCH  20  23
ENDBRANCH  19  20
ENDBRANCH  18  19
ENDBRANCH  15  18
ENDBRANCH   7   8
ENDBRANCH   6   7
TORSDOF 6
ENDMDL
MODEL      188
REMARK 921   NORMALIZED FREE ENERGY PREDICTED BY IDOCK:   -4.55 KCAL/MOL
REMARK 922        TOTAL FREE ENERGY PREDICTED BY IDOCK:   -7.72 KCAL/MOL
REMARK 923 INTER-LIGAND FREE ENERGY PREDICTED BY IDOCK:   -6.73 KCAL/MOL
REMARK 924 INTRA-LIGAND FREE ENERGY PREDICTED BY IDOCK:   -0.98 KCAL/MOL
REMARK 927      BINDING AFFINITY PREDICTED BY RF-SCORE:    0.00 PKD
ROOT
HETATM    1  C   UNL     1      -9.715   4.224  71.607  1.00  0.00    -0.173 C  
HETATM    2  N   UNL     1     -10.753   5.246  71.498  1.00  0.00    -0.194 NA 
HETATM    3  C   UNL     1     -11.028   5.855  72.805  1.00  0.00    -0.265 C  
HETATM    4  C   UNL     1     -11.578   7.221  72.461  1.00  0.00    -0.285 C  
HETATM    5  C   UNL     1     -10.729   7.640  71.281  1.00  0.00    -0.248 C  
HETATM    6  C   UNL     1     -10.390   6.331  70.554  1.00  0.00    -0.204 C  
ENDROOT
BRANCH   6   7
HETATM    7  C   UNL     1     -11.165   6.160  69.221  1.00  0.00    -0.438 C  
BRANCH   7   8
HETATM    8  C   UNL     1     -10.286   6.161  67.998  1.00  0.00    -0.245 A  
HETATM    9  C   UNL     1      -9.911   5.065  67.246  1.00  0.00    -0.179 A  
HETATM   10  N   UNL     1      -9.200   5.507  66.158  1.00  0.00    -0.156 NA 
HETATM   11  C   UNL     1      -9.120   6.880  66.171  1.00  0.00    -0.113 A  
HETATM   12  H   UNL     1      -8.791   4.905  65.444  1.00  0.00     0.000 HD 
HETATM   13  C   UNL     1      -9.727   7.304  67.349  1.00  0.00    -0.191 A  
HETATM   14  C   UNL     1      -9.750   8.681  67.632  1.00  0.00    -0.201 A  
HETATM   15  C   UNL     1      -9.270   9.618  66.706  1.00  0.00    -0.181 A  
HETATM   16  C   UNL     1      -8.700   9.149  65.514  1.00  0.00    -0.210 A  
HETATM   17  C   UNL     1      -8.585   7.776  65.240  1.00  0.00    -0.065 A  
BRANCH  15  18
HETATM   18  C   UNL     1      -9.482  11.105  66.919  1.00  0.00    -0.203 C  
BRANCH  18  19
HETATM   19  C   UNL     1     -10.457  11.442  68.041  1.00  0.00    -0.188 C  
BRANCH  19  20
HETATM   20  S   UNL     1     -10.497  13.185  68.395  1.00  0.00    -0.251 S  
HETATM   21  O   UNL     1      -9.134  13.648  68.559  1.00  0.00    -0.183 OA 
HETATM   22  O   UNL     1     -11.503  13.429  69.405  1.00  0.00    -0.272 OA 
BRANCH  20  23
HETATM   23  C   UNL     1     -11.103  13.845  66.854  1.00  0.00    -0.301 A  
HETATM   24  C   UNL     1     -10.364  14.835  66.197  1.00  0.00    -0.314 A  
HETATM   25  C   UNL     1     -10.856  15.382  65.013  1.00  0.00    -0.462 A  
HETATM   26  C   UNL     1     -12.072  14.938  64.490  1.00  0.00    -0.420 A  
HETATM   27  C   UNL     1     -12.798  13.939  65.142  1.00  0.00    -0.383 A  
HETATM   28  C   UNL     1     -12.313  13.384  66.328  1.00  0.00    -0.410 A  
ENDBRANCH  20  23
ENDBRANCH  19  20
ENDBRANCH  18  19
ENDBRANCH  15  18
ENDBRANCH   7   8
ENDBRANCH   6   7
TORSDOF 6
ENDMDL
MODEL      189
REMARK 921   NORMALIZED FREE ENERGY PREDICTED BY IDOCK:   -4.54 KCAL/MOL
REMARK 922        TOTAL FREE ENERGY PREDICTED BY IDOCK:   -7.71 KCAL/MOL
REMARK 923 INTER-LIGAND FREE ENERGY PREDICTED BY IDOCK:   -6.99 KCAL/MOL
REMARK 924 INTRA-LIGAND FREE ENERGY PREDICTED BY IDOCK:   -0.72 KCAL/MOL
REMARK 927      BINDING AFFINITY PREDICTED BY RF-SCORE:    0.00 PKD
ROOT
HETATM    1  C   UNL     1      -9.924  19.958  66.002  1.00  0.00    -0.458 C  
HETATM    2  N   UNL     1      -8.579  19.625  66.461  1.00  0.00    -0.338 NA 
HETATM    3  C   UNL     1      -7.572  20.039  65.476  1.00  0.00    -0.123 C  
HETATM    4  C   UNL     1      -6.316  20.227  66.296  1.00  0.00    -0.232 C  
HETATM    5  C   UNL     1      -6.836  20.853  67.573  1.00  0.00    -0.416 C  
HETATM    6  C   UNL     1      -8.241  20.262  67.757  1.00  0.00    -0.226 C  
ENDROOT
BRANCH   6   7
HETATM    7  C   UNL     1      -8.314  19.216  68.900  1.00  0.00    -0.325 C  
BRANCH   7   8
HETATM    8  C   UNL     1      -7.311  18.099  68.772  1.00  0.00    -0.286 A  
HETATM    9  C   UNL     1      -6.055  18.043  69.342  1.00  0.00    -0.245 A  
HETATM   10  N   UNL     1      -5.509  16.813  69.071  1.00  0.00    -0.129 NA 
HETATM   11  C   UNL     1      -6.397  16.050  68.349  1.00  0.00    -0.109 A  
HETATM   12  H   UNL     1      -4.580  16.509  69.363  1.00  0.00     0.000 HD 
HETATM   13  C   UNL     1      -7.498  16.859  68.088  1.00  0.00    -0.178 A  
HETATM   14  C   UNL     1      -8.552  16.329  67.322  1.00  0.00    -0.199 A  
HETATM   15  C   UNL     1      -8.548  14.986  66.918  1.00  0.00    -0.280 A  
HETATM   16  C   UNL     1      -7.435  14.196  67.236  1.00  0.00    -0.068 A  
HETATM   17  C   UNL     1      -6.329  14.719  67.925  1.00  0.00    -0.175 A  
BRANCH  15  18
HETATM   18  C   UNL     1      -9.772  14.362  66.276  1.00  0.00    -0.330 C  
BRANCH  18  19
HETATM   19  C   UNL     1      -9.737  12.840  66.216  1.00  0.00    -0.262 C  
BRANCH  19  20
HETATM   20  S   UNL     1     -10.932  12.096  67.305  1.00  0.00    -0.276 S  
HETATM   21  O   UNL     1     -12.237  12.195  66.685  1.00  0.00    -0.566 OA 
HETATM   22  O   UNL     1     -10.697  12.577  68.648  1.00  0.00    -0.232 OA 
BRANCH  20  23
HETATM   23  C   UNL     1     -10.443  10.382  67.247  1.00  0.00    -0.252 A  
HETATM   24  C   UNL     1     -10.458   9.627  68.425  1.00  0.00    -0.258 A  
HETATM   25  C   UNL     1     -10.037   8.300  68.390  1.00  0.00    -0.227 A  
HETATM   26  C   UNL     1      -9.611   7.732  67.188  1.00  0.00    -0.220 A  
HETATM   27  C   UNL     1      -9.613   8.485  66.012  1.00  0.00    -0.236 A  
HETATM   28  C   UNL     1     -10.034   9.816  66.036  1.00  0.00    -0.342 A  
ENDBRANCH  20  23
ENDBRANCH  19  20
ENDBRANCH  18  19
ENDBRANCH  15  18
ENDBRANCH   7   8
ENDBRANCH   6   7
TORSDOF 6
ENDMDL
MODEL      190
REMARK 921   NORMALIZED FREE ENERGY PREDICTED BY IDOCK:   -4.54 KCAL/MOL
REMARK 922        TOTAL FREE ENERGY PREDICTED BY IDOCK:   -7.70 KCAL/MOL
REMARK 923 INTER-LIGAND FREE ENERGY PREDICTED BY IDOCK:   -6.08 KCAL/MOL
REMARK 924 INTRA-LIGAND FREE ENERGY PREDICTED BY IDOCK:   -1.63 KCAL/MOL
REMARK 927      BINDING AFFINITY PREDICTED BY RF-SCORE:    0.00 PKD
ROOT
HETATM    1  C   UNL     1      -6.413  10.862  68.242  1.00  0.00    -0.057 C  
HETATM    2  N   UNL     1      -7.200   9.783  67.651  1.00  0.00    -0.088 NA 
HETATM    3  C   UNL     1      -6.363   8.604  67.396  1.00  0.00    -0.057 C  
HETATM    4  C   UNL     1      -7.342   7.452  67.411  1.00  0.00    -0.102 C  
HETATM    5  C   UNL     1      -8.289   7.829  68.532  1.00  0.00    -0.129 C  
HETATM    6  C   UNL     1      -8.333   9.363  68.511  1.00  0.00    -0.118 C  
ENDROOT
BRANCH   6   7
HETATM    7  C   UNL     1      -9.666   9.923  67.949  1.00  0.00    -0.162 C  
BRANCH   7   8
HETATM    8  C   UNL     1     -10.546  10.564  68.990  1.00  0.00    -0.250 A  
HETATM    9  C   UNL     1     -10.944  11.886  69.040  1.00  0.00    -0.219 A  
HETATM   10  N   UNL     1     -11.827  12.035  70.080  1.00  0.00    -0.470 NA 
HETATM   11  C   UNL     1     -12.033  10.826  70.703  1.00  0.00    -0.367 A  
HETATM   12  H   UNL     1     -12.267  12.915  70.352  1.00  0.00     0.000 HD 
HETATM   13  C   UNL     1     -11.188   9.910  70.086  1.00  0.00    -0.347 A  
HETATM   14  C   UNL     1     -11.172   8.587  70.562  1.00  0.00    -0.262 A  
HETATM   15  C   UNL     1     -12.060   8.168  71.563  1.00  0.00    -0.332 A  
HETATM   16  C   UNL     1     -12.923   9.117  72.132  1.00  0.00    -0.498 A  
HETATM   17  C   UNL     1     -12.902  10.465  71.737  1.00  0.00    -0.561 A  
BRANCH  15  18
HETATM   18  C   UNL     1     -12.188   6.702  71.930  1.00  0.00    -0.381 C  
BRANCH  18  19
HETATM   19  C   UNL     1     -11.055   5.827  71.408  1.00  0.00    -0.204 C  
BRANCH  19  20
HETATM   20  S   UNL     1     -10.117   5.086  72.725  1.00  0.00    -0.178 S  
HETATM   21  O   UNL     1      -9.442   3.916  72.202  1.00  0.00    -0.119 OA 
HETATM   22  O   UNL     1     -10.952   5.010  73.903  1.00  0.00    -0.302 OA 
BRANCH  20  23
HETATM   23  C   UNL     1      -8.875   6.331  73.018  1.00  0.00    -0.123 A  
HETATM   24  C   UNL     1      -8.698   6.828  74.314  1.00  0.00    -0.184 A  
HETATM   25  C   UNL     1      -7.756   7.831  74.538  1.00  0.00    -0.233 A  
HETATM   26  C   UNL     1      -6.996   8.326  73.477  1.00  0.00    -0.152 A  
HETATM   27  C   UNL     1      -7.166   7.815  72.189  1.00  0.00    -0.079 A  
HETATM   28  C   UNL     1      -8.105   6.810  71.953  1.00  0.00    -0.101 A  
ENDBRANCH  20  23
ENDBRANCH  19  20
ENDBRANCH  18  19
ENDBRANCH  15  18
ENDBRANCH   7   8
ENDBRANCH   6   7
TORSDOF 6
ENDMDL
MODEL      191
REMARK 921   NORMALIZED FREE ENERGY PREDICTED BY IDOCK:   -4.54 KCAL/MOL
REMARK 922        TOTAL FREE ENERGY PREDICTED BY IDOCK:   -7.70 KCAL/MOL
REMARK 923 INTER-LIGAND FREE ENERGY PREDICTED BY IDOCK:   -6.97 KCAL/MOL
REMARK 924 INTRA-LIGAND FREE ENERGY PREDICTED BY IDOCK:   -0.73 KCAL/MOL
REMARK 927      BINDING AFFINITY PREDICTED BY RF-SCORE:    0.00 PKD
ROOT
HETATM    1  C   UNL     1     -10.350  18.325  67.409  1.00  0.00    -0.392 C  
HETATM    2  N   UNL     1      -9.956  16.962  67.066  1.00  0.00    -0.270 NA 
HETATM    3  C   UNL     1      -8.555  16.916  66.631  1.00  0.00    -0.247 C  
HETATM    4  C   UNL     1      -8.129  15.495  66.925  1.00  0.00    -0.284 C  
HETATM    5  C   UNL     1      -8.816  15.202  68.242  1.00  0.00    -0.173 C  
HETATM    6  C   UNL     1     -10.116  16.018  68.198  1.00  0.00    -0.234 C  
ENDROOT
BRANCH   6   7
HETATM    7  C   UNL     1     -11.376  15.138  67.986  1.00  0.00    -0.346 C  
BRANCH   7   8
HETATM    8  C   UNL     1     -11.864  14.458  69.238  1.00  0.00    -0.365 A  
HETATM    9  C   UNL     1     -12.623  15.020  70.245  1.00  0.00    -0.317 A  
HETATM   10  N   UNL     1     -12.946  14.037  71.147  1.00  0.00    -0.337 NA 
HETATM   11  C   UNL     1     -12.429  12.830  70.737  1.00  0.00    -0.271 A  
HETATM   12  H   UNL     1     -13.491  14.181  71.998  1.00  0.00     0.000 HD 
HETATM   13  C   UNL     1     -11.688  13.084  69.587  1.00  0.00    -0.364 A  
HETATM   14  C   UNL     1     -11.013  12.012  68.976  1.00  0.00    -0.260 A  
HETATM   15  C   UNL     1     -11.163  10.700  69.447  1.00  0.00    -0.329 A  
HETATM   16  C   UNL     1     -11.950  10.485  70.587  1.00  0.00    -0.455 A  
HETATM   17  C   UNL     1     -12.568  11.545  71.270  1.00  0.00    -0.452 A  
BRANCH  15  18
HETATM   18  C   UNL     1     -10.606   9.524  68.669  1.00  0.00    -0.239 C  
BRANCH  18  19
HETATM   19  C   UNL     1     -10.396   8.266  69.503  1.00  0.00    -0.219 C  
BRANCH  19  20
HETATM   20  S   UNL     1      -9.268   7.128  68.731  1.00  0.00    -0.135 S  
HETATM   21  O   UNL     1      -8.002   7.803  68.535  1.00  0.00    -0.118 OA 
HETATM   22  O   UNL     1      -9.949   6.470  67.638  1.00  0.00    -0.120 OA 
BRANCH  20  23
HETATM   23  C   UNL     1      -9.036   5.927  70.029  1.00  0.00    -0.144 A  
HETATM   24  C   UNL     1      -9.808   4.760  70.026  1.00  0.00    -0.297 A  
HETATM   25  C   UNL     1      -9.658   3.840  71.062  1.00  0.00    -0.249 A  
HETATM   26  C   UNL     1      -8.740   4.082  72.086  1.00  0.00    -0.121 A  
HETATM   27  C   UNL     1      -7.961   5.241  72.074  1.00  0.00    -0.113 A  
HETATM   28  C   UNL     1      -8.103   6.169  71.041  1.00  0.00    -0.121 A  
ENDBRANCH  20  23
ENDBRANCH  19  20
ENDBRANCH  18  19
ENDBRANCH  15  18
ENDBRANCH   7   8
ENDBRANCH   6   7
TORSDOF 6
ENDMDL
MODEL      192
REMARK 921   NORMALIZED FREE ENERGY PREDICTED BY IDOCK:   -4.53 KCAL/MOL
REMARK 922        TOTAL FREE ENERGY PREDICTED BY IDOCK:   -7.70 KCAL/MOL
REMARK 923 INTER-LIGAND FREE ENERGY PREDICTED BY IDOCK:   -6.84 KCAL/MOL
REMARK 924 INTRA-LIGAND FREE ENERGY PREDICTED BY IDOCK:   -0.86 KCAL/MOL
REMARK 927      BINDING AFFINITY PREDICTED BY RF-SCORE:    0.00 PKD
ROOT
HETATM    1  C   UNL     1      -9.954  18.137  68.750  1.00  0.00    -0.375 C  
HETATM    2  N   UNL     1      -9.274  18.110  67.458  1.00  0.00    -0.256 NA 
HETATM    3  C   UNL     1      -7.823  18.244  67.629  1.00  0.00    -0.229 C  
HETATM    4  C   UNL     1      -7.249  17.588  66.393  1.00  0.00    -0.326 C  
HETATM    5  C   UNL     1      -8.163  16.399  66.187  1.00  0.00    -0.250 C  
HETATM    6  C   UNL     1      -9.534  16.862  66.701  1.00  0.00    -0.265 C  
ENDROOT
BRANCH   6   7
HETATM    7  C   UNL     1     -10.549  17.131  65.560  1.00  0.00    -0.160 C  
BRANCH   7   8
HETATM    8  C   UNL     1     -11.261  15.896  65.071  1.00  0.00    -0.296 A  
HETATM    9  C   UNL     1     -11.953  15.752  63.885  1.00  0.00     0.351 A  
HETATM   10  N   UNL     1     -12.355  14.445  63.772  1.00  0.00    -1.079 NA 
HETATM   11  C   UNL     1     -11.919  13.720  64.856  1.00  0.00    -0.390 A  
HETATM   12  H   UNL     1     -12.898  14.066  62.995  1.00  0.00     0.000 HD 
HETATM   13  C   UNL     1     -11.298  14.621  65.715  1.00  0.00    -0.340 A  
HETATM   14  C   UNL     1     -10.788  14.141  66.934  1.00  0.00    -0.296 A  
HETATM   15  C   UNL     1     -10.807  12.772  67.237  1.00  0.00    -0.277 A  
HETATM   16  C   UNL     1     -11.410  11.894  66.325  1.00  0.00    -0.394 A  
HETATM   17  C   UNL     1     -12.004  12.353  65.138  1.00  0.00    -0.454 A  
BRANCH  15  18
HETATM   18  C   UNL     1     -10.076  12.231  68.450  1.00  0.00    -0.215 C  
BRANCH  18  19
HETATM   19  C   UNL     1      -8.566  12.432  68.410  1.00  0.00    -0.129 C  
BRANCH  19  20
HETATM   20  S   UNL     1      -7.677  10.922  68.713  1.00  0.00    -0.136 S  
HETATM   21  O   UNL     1      -7.735  10.635  70.132  1.00  0.00    -0.032 OA 
HETATM   22  O   UNL     1      -6.417  10.975  68.006  1.00  0.00    -0.057 OA 
BRANCH  20  23
HETATM   23  C   UNL     1      -8.715   9.730  67.887  1.00  0.00    -0.125 A  
HETATM   24  C   UNL     1      -9.601   8.955  68.642  1.00  0.00    -0.158 A  
HETATM   25  C   UNL     1     -10.383   7.994  68.003  1.00  0.00    -0.262 A  
HETATM   26  C   UNL     1     -10.282   7.815  66.622  1.00  0.00    -0.288 A  
HETATM   27  C   UNL     1      -9.406   8.602  65.872  1.00  0.00    -0.262 A  
HETATM   28  C   UNL     1      -8.620   9.568  66.501  1.00  0.00    -0.142 A  
ENDBRANCH  20  23
ENDBRANCH  19  20
ENDBRANCH  18  19
ENDBRANCH  15  18
ENDBRANCH   7   8
ENDBRANCH   6   7
TORSDOF 6
ENDMDL
MODEL      193
REMARK 921   NORMALIZED FREE ENERGY PREDICTED BY IDOCK:   -4.53 KCAL/MOL
REMARK 922        TOTAL FREE ENERGY PREDICTED BY IDOCK:   -7.70 KCAL/MOL
REMARK 923 INTER-LIGAND FREE ENERGY PREDICTED BY IDOCK:   -6.81 KCAL/MOL
REMARK 924 INTRA-LIGAND FREE ENERGY PREDICTED BY IDOCK:   -0.89 KCAL/MOL
REMARK 927      BINDING AFFINITY PREDICTED BY RF-SCORE:    0.00 PKD
ROOT
HETATM    1  C   UNL     1      -9.652   3.824  72.837  1.00  0.00    -0.126 C  
HETATM    2  N   UNL     1      -9.915   5.083  72.147  1.00  0.00    -0.176 NA 
HETATM    3  C   UNL     1     -10.125   4.859  70.711  1.00  0.00    -0.233 C  
HETATM    4  C   UNL     1     -10.969   6.037  70.279  1.00  0.00    -0.412 C  
HETATM    5  C   UNL     1     -11.913   6.224  71.448  1.00  0.00    -0.208 C  
HETATM    6  C   UNL     1     -11.105   5.790  72.679  1.00  0.00    -0.280 C  
ENDROOT
BRANCH   6   7
HETATM    7  C   UNL     1     -10.664   6.985  73.565  1.00  0.00    -0.368 C  
BRANCH   7   8
HETATM    8  C   UNL     1      -9.354   7.603  73.150  1.00  0.00    -0.289 A  
HETATM    9  C   UNL     1      -8.109   7.347  73.689  1.00  0.00    -0.126 A  
HETATM   10  N   UNL     1      -7.170   8.031  72.958  1.00  0.00    -0.099 NA 
HETATM   11  C   UNL     1      -7.776   8.717  71.932  1.00  0.00    -0.006 A  
HETATM   12  H   UNL     1      -6.167   8.030  73.148  1.00  0.00     0.000 HD 
HETATM   13  C   UNL     1      -9.146   8.524  72.078  1.00  0.00    -0.317 A  
HETATM   14  C   UNL     1     -10.013   9.156  71.168  1.00  0.00    -0.377 A  
HETATM   15  C   UNL     1      -9.512   9.879  70.076  1.00  0.00    -0.246 A  
HETATM   16  C   UNL     1      -8.123  10.017  69.946  1.00  0.00    -0.180 A  
HETATM   17  C   UNL     1      -7.234   9.469  70.885  1.00  0.00    -0.063 A  
BRANCH  15  18
HETATM   18  C   UNL     1     -10.436  10.383  68.985  1.00  0.00    -0.240 C  
BRANCH  18  19
HETATM   19  C   UNL     1      -9.800  11.403  68.049  1.00  0.00    -0.184 C  
BRANCH  19  20
HETATM   20  S   UNL     1      -9.540  10.747  66.416  1.00  0.00    -0.196 S  
HETATM   21  O   UNL     1     -10.221   9.472  66.323  1.00  0.00    -0.271 OA 
HETATM   22  O   UNL     1      -8.140  10.880  66.080  1.00  0.00    -0.161 OA 
BRANCH  20  23
HETATM   23  C   UNL     1     -10.451  11.911  65.419  1.00  0.00    -0.270 A  
HETATM   24  C   UNL     1     -10.371  13.276  65.717  1.00  0.00    -0.290 A  
HETATM   25  C   UNL     1     -11.115  14.183  64.965  1.00  0.00    -0.372 A  
HETATM   26  C   UNL     1     -11.925  13.730  63.922  1.00  0.00    -0.414 A  
HETATM   27  C   UNL     1     -11.988  12.369  63.619  1.00  0.00    -0.626 A  
HETATM   28  C   UNL     1     -11.247  11.451  64.365  1.00  0.00    -0.277 A  
ENDBRANCH  20  23
ENDBRANCH  19  20
ENDBRANCH  18  19
ENDBRANCH  15  18
ENDBRANCH   7   8
ENDBRANCH   6   7
TORSDOF 6
ENDMDL
MODEL      194
REMARK 921   NORMALIZED FREE ENERGY PREDICTED BY IDOCK:   -4.53 KCAL/MOL
REMARK 922        TOTAL FREE ENERGY PREDICTED BY IDOCK:   -7.70 KCAL/MOL
REMARK 923 INTER-LIGAND FREE ENERGY PREDICTED BY IDOCK:   -6.72 KCAL/MOL
REMARK 924 INTRA-LIGAND FREE ENERGY PREDICTED BY IDOCK:   -0.97 KCAL/MOL
REMARK 927      BINDING AFFINITY PREDICTED BY RF-SCORE:    0.00 PKD
ROOT
HETATM    1  C   UNL     1      -9.688  17.953  66.823  1.00  0.00    -0.314 C  
HETATM    2  N   UNL     1      -8.338  17.410  66.950  1.00  0.00    -0.223 NA 
HETATM    3  C   UNL     1      -7.438  18.012  65.959  1.00  0.00    -0.236 C  
HETATM    4  C   UNL     1      -6.067  17.874  66.583  1.00  0.00    -0.203 C  
HETATM    5  C   UNL     1      -6.332  18.152  68.047  1.00  0.00    -0.181 C  
HETATM    6  C   UNL     1      -7.756  17.633  68.295  1.00  0.00    -0.253 C  
ENDROOT
BRANCH   6   7
HETATM    7  C   UNL     1      -7.787  16.318  69.115  1.00  0.00    -0.231 C  
BRANCH   7   8
HETATM    8  C   UNL     1      -7.423  15.092  68.319  1.00  0.00    -0.107 A  
HETATM    9  C   UNL     1      -6.171  14.751  67.846  1.00  0.00    -0.157 A  
HETATM   10  N   UNL     1      -6.248  13.509  67.267  1.00  0.00    -0.437 NA 
HETATM   11  C   UNL     1      -7.528  13.017  67.371  1.00  0.00    -0.131 A  
HETATM   12  H   UNL     1      -5.468  13.022  66.824  1.00  0.00     0.000 HD 
HETATM   13  C   UNL     1      -8.294  14.019  67.958  1.00  0.00    -0.163 A  
HETATM   14  C   UNL     1      -9.668  13.786  68.148  1.00  0.00    -0.227 A  
HETATM   15  C   UNL     1     -10.238  12.539  67.853  1.00  0.00    -0.219 A  
HETATM   16  C   UNL     1      -9.420  11.544  67.298  1.00  0.00    -0.176 A  
HETATM   17  C   UNL     1      -8.063  11.774  67.017  1.00  0.00    -0.169 A  
BRANCH  15  18
HETATM   18  C   UNL     1     -11.667  12.221  68.250  1.00  0.00    -0.392 C  
BRANCH  18  19
HETATM   19  C   UNL     1     -11.878  10.791  68.729  1.00  0.00    -0.179 C  
BRANCH  19  20
HETATM   20  S   UNL     1     -12.240  10.711  70.469  1.00  0.00    -0.388 S  
HETATM   21  O   UNL     1     -13.478   9.980  70.644  1.00  0.00    -0.260 OA 
HETATM   22  O   UNL     1     -12.053  12.026  71.042  1.00  0.00    -0.245 OA 
BRANCH  20  23
HETATM   23  C   UNL     1     -10.918   9.669  71.057  1.00  0.00    -0.361 A  
HETATM   24  C   UNL     1     -11.155   8.806  72.133  1.00  0.00    -0.406 A  
HETATM   25  C   UNL     1     -10.112   8.022  72.621  1.00  0.00    -0.370 A  
HETATM   26  C   UNL     1      -8.847   8.096  72.035  1.00  0.00    -0.233 A  
HETATM   27  C   UNL     1      -8.621   8.947  70.951  1.00  0.00    -0.242 A  
HETATM   28  C   UNL     1      -9.659   9.737  70.454  1.00  0.00    -0.223 A  
ENDBRANCH  20  23
ENDBRANCH  19  20
ENDBRANCH  18  19
ENDBRANCH  15  18
ENDBRANCH   7   8
ENDBRANCH   6   7
TORSDOF 6
ENDMDL
MODEL      195
REMARK 921   NORMALIZED FREE ENERGY PREDICTED BY IDOCK:   -4.51 KCAL/MOL
REMARK 922        TOTAL FREE ENERGY PREDICTED BY IDOCK:   -7.66 KCAL/MOL
REMARK 923 INTER-LIGAND FREE ENERGY PREDICTED BY IDOCK:   -7.04 KCAL/MOL
REMARK 924 INTRA-LIGAND FREE ENERGY PREDICTED BY IDOCK:   -0.62 KCAL/MOL
REMARK 927      BINDING AFFINITY PREDICTED BY RF-SCORE:    0.00 PKD
ROOT
HETATM    1  C   UNL     1     -12.453   7.083  71.576  1.00  0.00    -0.386 C  
HETATM    2  N   UNL     1     -11.254   7.078  70.743  1.00  0.00    -0.271 NA 
HETATM    3  C   UNL     1     -11.337   6.036  69.713  1.00  0.00    -0.273 C  
HETATM    4  C   UNL     1     -10.426   6.536  68.615  1.00  0.00    -0.252 C  
HETATM    5  C   UNL     1     -10.695   8.026  68.606  1.00  0.00    -0.066 C  
HETATM    6  C   UNL     1     -11.021   8.376  70.065  1.00  0.00    -0.194 C  
ENDROOT
BRANCH   6   7
HETATM    7  C   UNL     1      -9.880   9.151  70.773  1.00  0.00    -0.334 C  
BRANCH   7   8
HETATM    8  C   UNL     1      -8.739   9.525  69.863  1.00  0.00    -0.224 A  
HETATM    9  C   UNL     1      -7.552   8.840  69.696  1.00  0.00    -0.076 A  
HETATM   10  N   UNL     1      -6.833   9.450  68.699  1.00  0.00    -0.060 NA 
HETATM   11  C   UNL     1      -7.539  10.515  68.191  1.00  0.00    -0.091 A  
HETATM   12  H   UNL     1      -5.909   9.156  68.381  1.00  0.00     0.000 HD 
HETATM   13  C   UNL     1      -8.698  10.625  68.952  1.00  0.00    -0.163 A  
HETATM   14  C   UNL     1      -9.593  11.671  68.663  1.00  0.00    -0.139 A  
HETATM   15  C   UNL     1      -9.381  12.522  67.568  1.00  0.00    -0.187 A  
HETATM   16  C   UNL     1      -8.218  12.351  66.804  1.00  0.00    -0.028 A  
HETATM   17  C   UNL     1      -7.263  11.371  67.119  1.00  0.00    -0.134 A  
BRANCH  15  18
HETATM   18  C   UNL     1     -10.444  13.512  67.133  1.00  0.00    -0.256 C  
BRANCH  18  19
HETATM   19  C   UNL     1     -10.208  14.936  67.619  1.00  0.00    -0.236 C  
BRANCH  19  20
HETATM   20  S   UNL     1      -9.528  15.977  66.347  1.00  0.00    -0.320 S  
HETATM   21  O   UNL     1     -10.350  15.845  65.162  1.00  0.00    -0.473 OA 
HETATM   22  O   UNL     1      -8.097  15.774  66.298  1.00  0.00    -0.197 OA 
BRANCH  20  23
HETATM   23  C   UNL     1      -9.824  17.600  67.023  1.00  0.00    -0.307 A  
HETATM   24  C   UNL     1     -10.188  18.642  66.163  1.00  0.00    -0.450 A  
HETATM   25  C   UNL     1     -10.380  19.921  66.684  1.00  0.00    -0.608 A  
HETATM   26  C   UNL     1     -10.215  20.152  68.051  1.00  0.00    -0.493 A  
HETATM   27  C   UNL     1      -9.867  19.104  68.906  1.00  0.00    -0.487 A  
HETATM   28  C   UNL     1      -9.674  17.820  68.395  1.00  0.00    -0.333 A  
ENDBRANCH  20  23
ENDBRANCH  19  20
ENDBRANCH  18  19
ENDBRANCH  15  18
ENDBRANCH   7   8
ENDBRANCH   6   7
TORSDOF 6
ENDMDL
MODEL      196
REMARK 921   NORMALIZED FREE ENERGY PREDICTED BY IDOCK:   -4.50 KCAL/MOL
REMARK 922        TOTAL FREE ENERGY PREDICTED BY IDOCK:   -7.65 KCAL/MOL
REMARK 923 INTER-LIGAND FREE ENERGY PREDICTED BY IDOCK:   -6.85 KCAL/MOL
REMARK 924 INTRA-LIGAND FREE ENERGY PREDICTED BY IDOCK:   -0.80 KCAL/MOL
REMARK 927      BINDING AFFINITY PREDICTED BY RF-SCORE:    0.00 PKD
ROOT
HETATM    1  C   UNL     1      -7.025  18.300  65.816  1.00  0.00    -0.249 C  
HETATM    2  N   UNL     1      -7.988  18.949  66.701  1.00  0.00    -0.260 NA 
HETATM    3  C   UNL     1      -8.734  19.993  65.987  1.00  0.00    -0.199 C  
HETATM    4  C   UNL     1     -10.029  20.106  66.759  1.00  0.00    -0.604 C  
HETATM    5  C   UNL     1     -10.340  18.667  67.110  1.00  0.00    -0.442 C  
HETATM    6  C   UNL     1      -8.969  17.997  67.276  1.00  0.00    -0.251 C  
ENDROOT
BRANCH   6   7
HETATM    7  C   UNL     1      -8.616  17.697  68.756  1.00  0.00    -0.202 C  
BRANCH   7   8
HETATM    8  C   UNL     1      -7.366  16.875  68.933  1.00  0.00    -0.236 A  
HETATM    9  C   UNL     1      -6.200  17.263  69.563  1.00  0.00    -0.251 A  
HETATM   10  N   UNL     1      -5.349  16.187  69.604  1.00  0.00    -0.122 NA 
HETATM   11  C   UNL     1      -5.945  15.090  69.028  1.00  0.00    -0.096 A  
HETATM   12  H   UNL     1      -4.410  16.200  70.003  1.00  0.00     0.000 HD 
HETATM   13  C   UNL     1      -7.175  15.516  68.536  1.00  0.00    -0.119 A  
HETATM   14  C   UNL     1      -7.983  14.586  67.858  1.00  0.00    -0.152 A  
HETATM   15  C   UNL     1      -7.613  13.237  67.767  1.00  0.00    -0.161 A  
HETATM   16  C   UNL     1      -6.382  12.843  68.310  1.00  0.00    -0.085 A  
HETATM   17  C   UNL     1      -5.514  13.764  68.918  1.00  0.00    -0.074 A  
BRANCH  15  18
HETATM   18  C   UNL     1      -8.575  12.200  67.220  1.00  0.00    -0.180 C  
BRANCH  18  19
HETATM   19  C   UNL     1      -9.652  12.768  66.305  1.00  0.00    -0.242 C  
BRANCH  19  20
HETATM   20  S   UNL     1     -11.290  12.499  66.946  1.00  0.00    -0.347 S  
HETATM   21  O   UNL     1     -12.150  12.105  65.849  1.00  0.00    -0.594 OA 
HETATM   22  O   UNL     1     -11.634  13.603  67.815  1.00  0.00    -0.299 OA 
BRANCH  20  23
HETATM   23  C   UNL     1     -11.037  11.060  67.968  1.00  0.00    -0.286 A  
HETATM   24  C   UNL     1     -10.719   9.839  67.363  1.00  0.00    -0.314 A  
HETATM   25  C   UNL     1     -10.563   8.705  68.157  1.00  0.00    -0.189 A  
HETATM   26  C   UNL     1     -10.717   8.793  69.542  1.00  0.00    -0.196 A  
HETATM   27  C   UNL     1     -11.019  10.017  70.141  1.00  0.00    -0.368 A  
HETATM   28  C   UNL     1     -11.177  11.160  69.356  1.00  0.00    -0.334 A  
ENDBRANCH  20  23
ENDBRANCH  19  20
ENDBRANCH  18  19
ENDBRANCH  15  18
ENDBRANCH   7   8
ENDBRANCH   6   7
TORSDOF 6
ENDMDL
MODEL      197
REMARK 921   NORMALIZED FREE ENERGY PREDICTED BY IDOCK:   -4.49 KCAL/MOL
REMARK 922        TOTAL FREE ENERGY PREDICTED BY IDOCK:   -7.63 KCAL/MOL
REMARK 923 INTER-LIGAND FREE ENERGY PREDICTED BY IDOCK:   -6.17 KCAL/MOL
REMARK 924 INTRA-LIGAND FREE ENERGY PREDICTED BY IDOCK:   -1.46 KCAL/MOL
REMARK 927      BINDING AFFINITY PREDICTED BY RF-SCORE:    0.00 PKD
ROOT
HETATM    1  C   UNL     1      -6.081  11.004  70.369  1.00  0.00    -0.131 C  
HETATM    2  N   UNL     1      -5.516  11.136  69.030  1.00  0.00    -0.040 NA 
HETATM    3  C   UNL     1      -5.582   9.861  68.306  1.00  0.00    -0.039 C  
HETATM    4  C   UNL     1      -5.583  10.269  66.850  1.00  0.00    -0.046 C  
HETATM    5  C   UNL     1      -6.452  11.509  66.847  1.00  0.00    -0.144 C  
HETATM    6  C   UNL     1      -6.209  12.163  68.214  1.00  0.00    -0.052 C  
ENDROOT
BRANCH   6   7
HETATM    7  C   UNL     1      -5.346  13.448  68.127  1.00  0.00    -0.105 C  
BRANCH   7   8
HETATM    8  C   UNL     1      -6.049  14.691  68.606  1.00  0.00    -0.087 A  
HETATM    9  C   UNL     1      -5.662  15.514  69.645  1.00  0.00    -0.119 A  
HETATM   10  N   UNL     1      -6.510  16.592  69.685  1.00  0.00    -0.223 NA 
HETATM   11  C   UNL     1      -7.437  16.503  68.674  1.00  0.00    -0.202 A  
HETATM   12  H   UNL     1      -6.459  17.350  70.366  1.00  0.00     0.000 HD 
HETATM   13  C   UNL     1      -7.214  15.287  68.035  1.00  0.00    -0.138 A  
HETATM   14  C   UNL     1      -8.060  14.925  66.971  1.00  0.00    -0.200 A  
HETATM   15  C   UNL     1      -9.039  15.808  66.493  1.00  0.00    -0.327 A  
HETATM   16  C   UNL     1      -9.205  17.039  67.144  1.00  0.00    -0.242 A  
HETATM   17  C   UNL     1      -8.433  17.394  68.262  1.00  0.00    -0.249 A  
BRANCH  15  18
HETATM   18  C   UNL     1      -9.808  15.505  65.222  1.00  0.00    -0.201 C  
BRANCH  18  19
HETATM   19  C   UNL     1     -11.323  15.533  65.386  1.00  0.00    -0.141 C  
BRANCH  19  20
HETATM   20  S   UNL     1     -11.977  13.950  65.867  1.00  0.00    -0.432 S  
HETATM   21  O   UNL     1     -11.041  12.925  65.452  1.00  0.00    -0.276 OA 
HETATM   22  O   UNL     1     -13.373  13.893  65.494  1.00  0.00    -0.662 OA 
BRANCH  20  23
HETATM   23  C   UNL     1     -11.893  14.059  67.645  1.00  0.00    -0.395 A  
HETATM   24  C   UNL     1     -11.862  12.883  68.401  1.00  0.00    -0.357 A  
HETATM   25  C   UNL     1     -11.839  12.966  69.792  1.00  0.00    -0.380 A  
HETATM   26  C   UNL     1     -11.841  14.213  70.419  1.00  0.00    -0.367 A  
HETATM   27  C   UNL     1     -11.856  15.384  69.659  1.00  0.00    -0.368 A  
HETATM   28  C   UNL     1     -11.879  15.313  68.265  1.00  0.00    -0.251 A  
ENDBRANCH  20  23
ENDBRANCH  19  20
ENDBRANCH  18  19
ENDBRANCH  15  18
ENDBRANCH   7   8
ENDBRANCH   6   7
TORSDOF 6
ENDMDL
MODEL      198
REMARK 921   NORMALIZED FREE ENERGY PREDICTED BY IDOCK:   -4.48 KCAL/MOL
REMARK 922        TOTAL FREE ENERGY PREDICTED BY IDOCK:   -7.63 KCAL/MOL
REMARK 923 INTER-LIGAND FREE ENERGY PREDICTED BY IDOCK:   -6.96 KCAL/MOL
REMARK 924 INTRA-LIGAND FREE ENERGY PREDICTED BY IDOCK:   -0.67 KCAL/MOL
REMARK 927      BINDING AFFINITY PREDICTED BY RF-SCORE:    0.00 PKD
ROOT
HETATM    1  C   UNL     1     -10.442  18.498  67.334  1.00  0.00    -0.419 C  
HETATM    2  N   UNL     1     -10.397  17.068  67.042  1.00  0.00    -0.309 NA 
HETATM    3  C   UNL     1      -9.135  16.707  66.386  1.00  0.00    -0.292 C  
HETATM    4  C   UNL     1      -8.957  15.243  66.719  1.00  0.00    -0.291 C  
HETATM    5  C   UNL     1      -9.441  15.162  68.152  1.00  0.00    -0.201 C  
HETATM    6  C   UNL     1     -10.537  16.231  68.258  1.00  0.00    -0.300 C  
ENDROOT
BRANCH   6   7
HETATM    7  C   UNL     1     -11.965  15.629  68.330  1.00  0.00    -0.084 C  
BRANCH   7   8
HETATM    8  C   UNL     1     -12.245  14.871  69.601  1.00  0.00    -0.299 A  
HETATM    9  C   UNL     1     -12.813  15.370  70.757  1.00  0.00    -0.466 A  
HETATM   10  N   UNL     1     -12.994  14.332  71.637  1.00  0.00    -0.328 NA 
HETATM   11  C   UNL     1     -12.574  13.152  71.069  1.00  0.00    -0.312 A  
HETATM   12  H   UNL     1     -13.384  14.423  72.575  1.00  0.00     0.000 HD 
HETATM   13  C   UNL     1     -12.035  13.476  69.828  1.00  0.00    -0.405 A  
HETATM   14  C   UNL     1     -11.490  12.443  69.044  1.00  0.00    -0.352 A  
HETATM   15  C   UNL     1     -11.580  11.104  69.450  1.00  0.00    -0.388 A  
HETATM   16  C   UNL     1     -12.166  10.819  70.691  1.00  0.00    -0.474 A  
HETATM   17  C   UNL     1     -12.642  11.835  71.535  1.00  0.00    -0.320 A  
BRANCH  15  18
HETATM   18  C   UNL     1     -11.183   9.977  68.515  1.00  0.00    -0.180 C  
BRANCH  18  19
HETATM   19  C   UNL     1     -10.387   8.863  69.183  1.00  0.00    -0.220 C  
BRANCH  19  20
HETATM   20  S   UNL     1     -10.530   7.319  68.311  1.00  0.00    -0.180 S  
HETATM   21  O   UNL     1     -10.975   7.597  66.960  1.00  0.00    -0.277 OA 
HETATM   22  O   UNL     1     -11.227   6.373  69.154  1.00  0.00    -0.353 OA 
BRANCH  20  23
HETATM   23  C   UNL     1      -8.824   6.809  68.215  1.00  0.00    -0.125 A  
HETATM   24  C   UNL     1      -8.182   6.350  69.370  1.00  0.00    -0.118 A  
HETATM   25  C   UNL     1      -6.838   5.990  69.306  1.00  0.00    -0.062 A  
HETATM   26  C   UNL     1      -6.145   6.082  68.098  1.00  0.00    -0.021 A  
HETATM   27  C   UNL     1      -6.795   6.526  66.945  1.00  0.00    -0.066 A  
HETATM   28  C   UNL     1      -8.142   6.888  66.997  1.00  0.00    -0.117 A  
ENDBRANCH  20  23
ENDBRANCH  19  20
ENDBRANCH  18  19
ENDBRANCH  15  18
ENDBRANCH   7   8
ENDBRANCH   6   7
TORSDOF 6
ENDMDL
MODEL      199
REMARK 921   NORMALIZED FREE ENERGY PREDICTED BY IDOCK:   -4.47 KCAL/MOL
REMARK 922        TOTAL FREE ENERGY PREDICTED BY IDOCK:   -7.62 KCAL/MOL
REMARK 923 INTER-LIGAND FREE ENERGY PREDICTED BY IDOCK:   -5.96 KCAL/MOL
REMARK 924 INTRA-LIGAND FREE ENERGY PREDICTED BY IDOCK:   -1.66 KCAL/MOL
REMARK 927      BINDING AFFINITY PREDICTED BY RF-SCORE:    0.00 PKD
ROOT
HETATM    1  C   UNL     1      -9.350   5.213  71.965  1.00  0.00    -0.137 C  
HETATM    2  N   UNL     1     -10.670   5.513  71.417  1.00  0.00    -0.243 NA 
HETATM    3  C   UNL     1     -11.613   5.862  72.487  1.00  0.00    -0.277 C  
HETATM    4  C   UNL     1     -12.649   6.718  71.793  1.00  0.00    -0.370 C  
HETATM    5  C   UNL     1     -11.818   7.543  70.834  1.00  0.00    -0.293 C  
HETATM    6  C   UNL     1     -10.645   6.633  70.445  1.00  0.00    -0.223 C  
ENDROOT
BRANCH   6   7
HETATM    7  C   UNL     1     -10.757   6.086  68.998  1.00  0.00    -0.393 C  
BRANCH   7   8
HETATM    8  C   UNL     1      -9.497   6.241  68.187  1.00  0.00    -0.113 A  
HETATM    9  C   UNL     1      -8.411   5.388  68.171  1.00  0.00    -0.098 A  
HETATM   10  N   UNL     1      -7.525   5.830  67.220  1.00  0.00    -0.080 NA 
HETATM   11  C   UNL     1      -8.021   6.950  66.595  1.00  0.00    -0.108 A  
HETATM   12  H   UNL     1      -6.628   5.392  67.008  1.00  0.00     0.000 HD 
HETATM   13  C   UNL     1      -9.216   7.267  67.233  1.00  0.00    -0.148 A  
HETATM   14  C   UNL     1      -9.921   8.407  66.808  1.00  0.00    -0.354 A  
HETATM   15  C   UNL     1      -9.491   9.151  65.700  1.00  0.00    -0.309 A  
HETATM   16  C   UNL     1      -8.300   8.774  65.063  1.00  0.00    -0.180 A  
HETATM   17  C   UNL     1      -7.529   7.691  65.516  1.00  0.00    -0.077 A  
BRANCH  15  18
HETATM   18  C   UNL     1     -10.356  10.251  65.116  1.00  0.00    -0.198 C  
BRANCH  18  19
HETATM   19  C   UNL     1      -9.853  11.660  65.403  1.00  0.00    -0.238 C  
BRANCH  19  20
HETATM   20  S   UNL     1     -10.481  12.299  66.939  1.00  0.00    -0.220 S  
HETATM   21  O   UNL     1     -11.855  11.864  67.087  1.00  0.00    -0.588 OA 
HETATM   22  O   UNL     1     -10.117  13.695  67.045  1.00  0.00    -0.242 OA 
BRANCH  20  23
HETATM   23  C   UNL     1      -9.506  11.392  68.124  1.00  0.00    -0.181 A  
HETATM   24  C   UNL     1     -10.152  10.608  69.085  1.00  0.00    -0.234 A  
HETATM   25  C   UNL     1      -9.393   9.931  70.038  1.00  0.00    -0.232 A  
HETATM   26  C   UNL     1      -8.001  10.033  70.025  1.00  0.00    -0.166 A  
HETATM   27  C   UNL     1      -7.360  10.804  69.053  1.00  0.00    -0.109 A  
HETATM   28  C   UNL     1      -8.111  11.486  68.094  1.00  0.00    -0.146 A  
ENDBRANCH  20  23
ENDBRANCH  19  20
ENDBRANCH  18  19
ENDBRANCH  15  18
ENDBRANCH   7   8
ENDBRANCH   6   7
TORSDOF 6
ENDMDL
MODEL      200
REMARK 921   NORMALIZED FREE ENERGY PREDICTED BY IDOCK:   -4.47 KCAL/MOL
REMARK 922        TOTAL FREE ENERGY PREDICTED BY IDOCK:   -7.62 KCAL/MOL
REMARK 923 INTER-LIGAND FREE ENERGY PREDICTED BY IDOCK:   -6.12 KCAL/MOL
REMARK 924 INTRA-LIGAND FREE ENERGY PREDICTED BY IDOCK:   -1.50 KCAL/MOL
REMARK 927      BINDING AFFINITY PREDICTED BY RF-SCORE:    0.00 PKD
ROOT
HETATM    1  C   UNL     1      -8.633  19.268  66.395  1.00  0.00    -0.343 C  
HETATM    2  N   UNL     1      -8.258  17.970  66.949  1.00  0.00    -0.234 NA 
HETATM    3  C   UNL     1      -7.577  18.129  68.240  1.00  0.00    -0.274 C  
HETATM    4  C   UNL     1      -7.825  16.815  68.947  1.00  0.00    -0.244 C  
HETATM    5  C   UNL     1      -9.252  16.488  68.561  1.00  0.00    -0.230 C  
HETATM    6  C   UNL     1      -9.424  17.077  67.153  1.00  0.00    -0.242 C  
ENDROOT
BRANCH   6   7
HETATM    7  C   UNL     1      -9.467  15.993  66.045  1.00  0.00    -0.384 C  
BRANCH   7   8
HETATM    8  C   UNL     1     -10.381  14.837  66.356  1.00  0.00    -0.297 A  
HETATM    9  C   UNL     1     -11.761  14.828  66.290  1.00  0.00    -0.257 A  
HETATM   10  N   UNL     1     -12.201  13.553  66.544  1.00  0.00    -0.401 NA 
HETATM   11  C   UNL     1     -11.130  12.716  66.755  1.00  0.00    -0.277 A  
HETATM   12  H   UNL     1     -13.180  13.268  66.572  1.00  0.00     0.000 HD 
HETATM   13  C   UNL     1      -9.989  13.511  66.715  1.00  0.00    -0.269 A  
HETATM   14  C   UNL     1      -8.741  12.902  66.942  1.00  0.00    -0.164 A  
HETATM   15  C   UNL     1      -8.632  11.513  67.099  1.00  0.00    -0.155 A  
HETATM   16  C   UNL     1      -9.806  10.746  67.095  1.00  0.00    -0.216 A  
HETATM   17  C   UNL     1     -11.074  11.334  66.956  1.00  0.00    -0.356 A  
BRANCH  15  18
HETATM   18  C   UNL     1      -7.276  10.836  67.135  1.00  0.00    -0.100 C  
BRANCH  18  19
HETATM   19  C   UNL     1      -7.338   9.315  67.203  1.00  0.00    -0.091 C  
BRANCH  19  20
HETATM   20  S   UNL     1      -6.915   8.697  68.816  1.00  0.00    -0.064 S  
HETATM   21  O   UNL     1      -6.211   9.739  69.535  1.00  0.00    -0.042 OA 
HETATM   22  O   UNL     1      -6.355   7.371  68.672  1.00  0.00    -0.037 OA 
BRANCH  20  23
HETATM   23  C   UNL     1      -8.525   8.528  69.564  1.00  0.00    -0.127 A  
HETATM   24  C   UNL     1      -9.416   7.574  69.061  1.00  0.00    -0.145 A  
HETATM   25  C   UNL     1     -10.690   7.470  69.617  1.00  0.00    -0.236 A  
HETATM   26  C   UNL     1     -11.065   8.307  70.668  1.00  0.00    -0.269 A  
HETATM   27  C   UNL     1     -10.166   9.247  71.177  1.00  0.00    -0.387 A  
HETATM   28  C   UNL     1      -8.888   9.360  70.628  1.00  0.00    -0.275 A  
ENDBRANCH  20  23
ENDBRANCH  19  20
ENDBRANCH  18  19
ENDBRANCH  15  18
ENDBRANCH   7   8
ENDBRANCH   6   7
TORSDOF 6
ENDMDL
MODEL      201
REMARK 921   NORMALIZED FREE ENERGY PREDICTED BY IDOCK:   -4.47 KCAL/MOL
REMARK 922        TOTAL FREE ENERGY PREDICTED BY IDOCK:   -7.62 KCAL/MOL
REMARK 923 INTER-LIGAND FREE ENERGY PREDICTED BY IDOCK:   -7.13 KCAL/MOL
REMARK 924 INTRA-LIGAND FREE ENERGY PREDICTED BY IDOCK:   -0.49 KCAL/MOL
REMARK 927      BINDING AFFINITY PREDICTED BY RF-SCORE:    0.00 PKD
ROOT
HETATM    1  C   UNL     1      -7.264   9.004  64.506  1.00  0.00    -0.097 C  
HETATM    2  N   UNL     1      -7.183   9.377  65.915  1.00  0.00    -0.090 NA 
HETATM    3  C   UNL     1      -5.936   8.886  66.515  1.00  0.00    -0.056 C  
HETATM    4  C   UNL     1      -5.695   9.826  67.675  1.00  0.00    -0.039 C  
HETATM    5  C   UNL     1      -6.118  11.167  67.115  1.00  0.00    -0.082 C  
HETATM    6  C   UNL     1      -7.245  10.844  66.124  1.00  0.00    -0.101 C  
ENDROOT
BRANCH   6   7
HETATM    7  C   UNL     1      -8.647  11.249  66.649  1.00  0.00    -0.167 C  
BRANCH   7   8
HETATM    8  C   UNL     1      -9.665  11.473  65.561  1.00  0.00    -0.259 A  
HETATM    9  C   UNL     1     -10.279  10.507  64.788  1.00  0.00    -0.303 A  
HETATM   10  N   UNL     1     -11.218  11.117  63.994  1.00  0.00    -0.390 NA 
HETATM   11  C   UNL     1     -11.247  12.469  64.248  1.00  0.00    -0.355 A  
HETATM   12  H   UNL     1     -11.809  10.638  63.314  1.00  0.00     0.000 HD 
HETATM   13  C   UNL     1     -10.235  12.723  65.169  1.00  0.00    -0.297 A  
HETATM   14  C   UNL     1     -10.020  14.051  65.578  1.00  0.00    -0.302 A  
HETATM   15  C   UNL     1     -10.868  15.084  65.153  1.00  0.00    -0.422 A  
HETATM   16  C   UNL     1     -11.899  14.777  64.254  1.00  0.00    -0.335 A  
HETATM   17  C   UNL     1     -12.086  13.475  63.761  1.00  0.00    -0.482 A  
BRANCH  15  18
HETATM   18  C   UNL     1     -10.765  16.474  65.753  1.00  0.00    -0.232 C  
BRANCH  18  19
HETATM   19  C   UNL     1      -9.500  16.710  66.567  1.00  0.00    -0.266 C  
BRANCH  19  20
HETATM   20  S   UNL     1      -9.751  17.890  67.874  1.00  0.00    -0.302 S  
HETATM   21  O   UNL     1      -9.571  17.212  69.142  1.00  0.00    -0.221 OA 
HETATM   22  O   UNL     1     -10.949  18.650  67.589  1.00  0.00    -0.365 OA 
BRANCH  20  23
HETATM   23  C   UNL     1      -8.353  18.973  67.647  1.00  0.00    -0.287 A  
HETATM   24  C   UNL     1      -7.543  19.284  68.744  1.00  0.00    -0.393 A  
HETATM   25  C   UNL     1      -6.475  20.163  68.577  1.00  0.00    -0.342 A  
HETATM   26  C   UNL     1      -6.217  20.720  67.323  1.00  0.00    -0.322 A  
HETATM   27  C   UNL     1      -7.019  20.394  66.228  1.00  0.00    -0.291 A  
HETATM   28  C   UNL     1      -8.092  19.514  66.384  1.00  0.00    -0.331 A  
ENDBRANCH  20  23
ENDBRANCH  19  20
ENDBRANCH  18  19
ENDBRANCH  15  18
ENDBRANCH   7   8
ENDBRANCH   6   7
TORSDOF 6
ENDMDL
MODEL      202
REMARK 921   NORMALIZED FREE ENERGY PREDICTED BY IDOCK:   -4.44 KCAL/MOL
REMARK 922        TOTAL FREE ENERGY PREDICTED BY IDOCK:   -7.57 KCAL/MOL
REMARK 923 INTER-LIGAND FREE ENERGY PREDICTED BY IDOCK:   -6.60 KCAL/MOL
REMARK 924 INTRA-LIGAND FREE ENERGY PREDICTED BY IDOCK:   -0.97 KCAL/MOL
REMARK 927      BINDING AFFINITY PREDICTED BY RF-SCORE:    0.00 PKD
ROOT
HETATM    1  C   UNL     1      -7.360   7.345  67.092  1.00  0.00    -0.097 C  
HETATM    2  N   UNL     1      -7.593   8.536  66.280  1.00  0.00    -0.089 NA 
HETATM    3  C   UNL     1      -7.450   8.231  64.852  1.00  0.00    -0.092 C  
HETATM    4  C   UNL     1      -8.295   9.283  64.169  1.00  0.00    -0.178 C  
HETATM    5  C   UNL     1      -9.492   9.404  65.089  1.00  0.00    -0.255 C  
HETATM    6  C   UNL     1      -8.940   9.119  66.493  1.00  0.00    -0.148 C  
ENDROOT
BRANCH   6   7
HETATM    7  C   UNL     1      -8.838  10.391  67.374  1.00  0.00    -0.133 C  
BRANCH   7   8
HETATM    8  C   UNL     1     -10.132  10.780  68.038  1.00  0.00    -0.198 A  
HETATM    9  C   UNL     1     -11.157  11.524  67.487  1.00  0.00    -0.272 A  
HETATM   10  N   UNL     1     -12.199  11.558  68.380  1.00  0.00    -0.483 NA 
HETATM   11  C   UNL     1     -11.884  10.830  69.503  1.00  0.00    -0.308 A  
HETATM   12  H   UNL     1     -13.079  12.053  68.232  1.00  0.00     0.000 HD 
HETATM   13  C   UNL     1     -10.571  10.397  69.343  1.00  0.00    -0.267 A  
HETATM   14  C   UNL     1      -9.981   9.652  70.379  1.00  0.00    -0.330 A  
HETATM   15  C   UNL     1     -10.724   9.261  71.502  1.00  0.00    -0.425 A  
HETATM   16  C   UNL     1     -12.055   9.687  71.605  1.00  0.00    -0.481 A  
HETATM   17  C   UNL     1     -12.648  10.504  70.628  1.00  0.00    -0.457 A  
BRANCH  15  18
HETATM   18  C   UNL     1     -10.152   8.287  72.515  1.00  0.00    -0.376 C  
BRANCH  18  19
HETATM   19  C   UNL     1      -9.642   6.985  71.910  1.00  0.00    -0.150 C  
BRANCH  19  20
HETATM   20  S   UNL     1     -10.967   5.892  71.451  1.00  0.00    -0.238 S  
HETATM   21  O   UNL     1     -11.193   6.023  70.026  1.00  0.00    -0.372 OA 
HETATM   22  O   UNL     1     -12.046   6.046  72.402  1.00  0.00    -0.280 OA 
BRANCH  20  23
HETATM   23  C   UNL     1     -10.222   4.296  71.728  1.00  0.00    -0.112 A  
HETATM   24  C   UNL     1     -10.530   3.591  72.895  1.00  0.00    -0.239 A  
HETATM   25  C   UNL     1      -9.917   2.363  73.133  1.00  0.00    -0.182 A  
HETATM   26  C   UNL     1      -9.008   1.843  72.209  1.00  0.00    -0.102 A  
HETATM   27  C   UNL     1      -8.716   2.545  71.037  1.00  0.00    -0.118 A  
HETATM   28  C   UNL     1      -9.326   3.776  70.789  1.00  0.00    -0.218 A  
ENDBRANCH  20  23
ENDBRANCH  19  20
ENDBRANCH  18  19
ENDBRANCH  15  18
ENDBRANCH   7   8
ENDBRANCH   6   7
TORSDOF 6
ENDMDL
MODEL      203
REMARK 921   NORMALIZED FREE ENERGY PREDICTED BY IDOCK:   -4.41 KCAL/MOL
REMARK 922        TOTAL FREE ENERGY PREDICTED BY IDOCK:   -7.53 KCAL/MOL
REMARK 923 INTER-LIGAND FREE ENERGY PREDICTED BY IDOCK:   -7.72 KCAL/MOL
REMARK 924 INTRA-LIGAND FREE ENERGY PREDICTED BY IDOCK:    0.19 KCAL/MOL
REMARK 927      BINDING AFFINITY PREDICTED BY RF-SCORE:    0.00 PKD
ROOT
HETATM    1  C   UNL     1      -7.610  20.672  67.317  1.00  0.00    -0.333 C  
HETATM    2  N   UNL     1      -8.888  19.966  67.340  1.00  0.00    -0.325 NA 
HETATM    3  C   UNL     1      -9.781  20.466  66.288  1.00  0.00    -0.228 C  
HETATM    4  C   UNL     1     -10.713  19.306  66.020  1.00  0.00    -0.477 C  
HETATM    5  C   UNL     1      -9.795  18.106  66.117  1.00  0.00    -0.255 C  
HETATM    6  C   UNL     1      -8.737  18.503  67.155  1.00  0.00    -0.270 C  
ENDROOT
BRANCH   6   7
HETATM    7  C   UNL     1      -8.916  17.772  68.512  1.00  0.00    -0.288 C  
BRANCH   7   8
HETATM    8  C   UNL     1      -7.927  16.660  68.742  1.00  0.00    -0.239 A  
HETATM    9  C   UNL     1      -6.685  16.764  69.337  1.00  0.00    -0.226 A  
HETATM   10  N   UNL     1      -6.151  15.505  69.453  1.00  0.00    -0.117 NA 
HETATM   11  C   UNL     1      -7.032  14.570  68.962  1.00  0.00    -0.121 A  
HETATM   12  H   UNL     1      -5.233  15.294  69.846  1.00  0.00     0.000 HD 
HETATM   13  C   UNL     1      -8.115  15.275  68.446  1.00  0.00    -0.137 A  
HETATM   14  C   UNL     1      -9.158  14.551  67.842  1.00  0.00    -0.191 A  
HETATM   15  C   UNL     1      -9.164  13.149  67.849  1.00  0.00    -0.207 A  
HETATM   16  C   UNL     1      -8.069  12.478  68.413  1.00  0.00    -0.136 A  
HETATM   17  C   UNL     1      -6.973  13.173  68.949  1.00  0.00    -0.093 A  
BRANCH  15  18
HETATM   18  C   UNL     1     -10.381  12.371  67.385  1.00  0.00    -0.217 C  
BRANCH  18  19
HETATM   19  C   UNL     1     -11.554  13.245  66.958  1.00  0.00    -0.359 C  
BRANCH  19  20
HETATM   20  S   UNL     1     -11.799  13.228  65.196  1.00  0.00    -0.371 S  
HETATM   21  O   UNL     1     -11.279  14.465  64.651  1.00  0.00    -0.377 OA 
HETATM   22  O   UNL     1     -13.150  12.791  64.921  1.00  0.00    -0.833 OA 
BRANCH  20  23
HETATM   23  C   UNL     1     -10.693  11.921  64.698  1.00  0.00    -0.307 A  
HETATM   24  C   UNL     1     -10.019  12.024  63.477  1.00  0.00    -0.393 A  
HETATM   25  C   UNL     1      -9.186  10.984  63.067  1.00  0.00    -0.337 A  
HETATM   26  C   UNL     1      -9.026   9.856  63.874  1.00  0.00    -0.280 A  
HETATM   27  C   UNL     1      -9.690   9.766  65.099  1.00  0.00    -0.338 A  
HETATM   28  C   UNL     1     -10.525  10.801  65.520  1.00  0.00    -0.264 A  
ENDBRANCH  20  23
ENDBRANCH  19  20
ENDBRANCH  18  19
ENDBRANCH  15  18
ENDBRANCH   7   8
ENDBRANCH   6   7
TORSDOF 6
ENDMDL
MODEL      204
REMARK 921   NORMALIZED FREE ENERGY PREDICTED BY IDOCK:   -4.40 KCAL/MOL
REMARK 922        TOTAL FREE ENERGY PREDICTED BY IDOCK:   -7.51 KCAL/MOL
REMARK 923 INTER-LIGAND FREE ENERGY PREDICTED BY IDOCK:   -6.39 KCAL/MOL
REMARK 924 INTRA-LIGAND FREE ENERGY PREDICTED BY IDOCK:   -1.12 KCAL/MOL
REMARK 927      BINDING AFFINITY PREDICTED BY RF-SCORE:    0.00 PKD
ROOT
HETATM    1  C   UNL     1     -11.018  19.638  67.306  1.00  0.00    -0.290 C  
HETATM    2  N   UNL     1      -9.916  18.848  66.763  1.00  0.00    -0.337 NA 
HETATM    3  C   UNL     1      -8.681  19.639  66.712  1.00  0.00    -0.334 C  
HETATM    4  C   UNL     1      -7.582  18.601  66.760  1.00  0.00    -0.246 C  
HETATM    5  C   UNL     1      -8.122  17.583  67.742  1.00  0.00    -0.221 C  
HETATM    6  C   UNL     1      -9.645  17.624  67.555  1.00  0.00    -0.267 C  
ENDROOT
BRANCH   6   7
HETATM    7  C   UNL     1     -10.198  16.377  66.817  1.00  0.00    -0.285 C  
BRANCH   7   8
HETATM    8  C   UNL     1     -10.823  15.354  67.729  1.00  0.00    -0.302 A  
HETATM    9  C   UNL     1     -11.615  15.601  68.834  1.00  0.00    -0.383 A  
HETATM   10  N   UNL     1     -12.070  14.402  69.320  1.00  0.00    -0.448 NA 
HETATM   11  C   UNL     1     -11.607  13.368  68.540  1.00  0.00    -0.333 A  
HETATM   12  H   UNL     1     -12.665  14.292  70.141  1.00  0.00     0.000 HD 
HETATM   13  C   UNL     1     -10.767  13.934  67.586  1.00  0.00    -0.255 A  
HETATM   14  C   UNL     1     -10.123  13.082  66.671  1.00  0.00    -0.251 A  
HETATM   15  C   UNL     1     -10.397  11.707  66.647  1.00  0.00    -0.257 A  
HETATM   16  C   UNL     1     -11.280  11.184  67.603  1.00  0.00    -0.364 A  
HETATM   17  C   UNL     1     -11.873  11.996  68.584  1.00  0.00    -0.366 A  
BRANCH  15  18
HETATM   18  C   UNL     1      -9.865  10.825  65.534  1.00  0.00    -0.309 C  
BRANCH  18  19
HETATM   19  C   UNL     1      -9.851   9.338  65.868  1.00  0.00    -0.265 C  
BRANCH  19  20
HETATM   20  S   UNL     1      -8.251   8.607  65.607  1.00  0.00    -0.131 S  
HETATM   21  O   UNL     1      -7.902   8.758  64.209  1.00  0.00    -0.118 OA 
HETATM   22  O   UNL     1      -8.221   7.314  66.256  1.00  0.00    -0.112 OA 
BRANCH  20  23
HETATM   23  C   UNL     1      -7.202   9.707  66.540  1.00  0.00    -0.090 A  
HETATM   24  C   UNL     1      -6.493  10.708  65.868  1.00  0.00    -0.121 A  
HETATM   25  C   UNL     1      -5.642  11.543  66.589  1.00  0.00    -0.140 A  
HETATM   26  C   UNL     1      -5.506  11.380  67.969  1.00  0.00    -0.043 A  
HETATM   27  C   UNL     1      -6.228  10.389  68.637  1.00  0.00    -0.047 A  
HETATM   28  C   UNL     1      -7.085   9.549  67.924  1.00  0.00    -0.081 A  
ENDBRANCH  20  23
ENDBRANCH  19  20
ENDBRANCH  18  19
ENDBRANCH  15  18
ENDBRANCH   7   8
ENDBRANCH   6   7
TORSDOF 6
ENDMDL
MODEL      205
REMARK 921   NORMALIZED FREE ENERGY PREDICTED BY IDOCK:   -4.39 KCAL/MOL
REMARK 922        TOTAL FREE ENERGY PREDICTED BY IDOCK:   -7.51 KCAL/MOL
REMARK 923 INTER-LIGAND FREE ENERGY PREDICTED BY IDOCK:   -5.75 KCAL/MOL
REMARK 924 INTRA-LIGAND FREE ENERGY PREDICTED BY IDOCK:   -1.76 KCAL/MOL
REMARK 927      BINDING AFFINITY PREDICTED BY RF-SCORE:    0.00 PKD
ROOT
HETATM    1  C   UNL     1     -12.553  13.052  65.436  1.00  0.00    -0.422 C  
HETATM    2  N   UNL     1     -11.660  12.043  64.874  1.00  0.00    -0.304 NA 
HETATM    3  C   UNL     1     -11.203  12.436  63.535  1.00  0.00    -0.469 C  
HETATM    4  C   UNL     1      -9.890  11.705  63.369  1.00  0.00    -0.424 C  
HETATM    5  C   UNL     1      -9.271  11.806  64.747  1.00  0.00     0.174 C  
HETATM    6  C   UNL     1     -10.462  11.806  65.715  1.00  0.00    -0.260 C  
ENDROOT
BRANCH   6   7
HETATM    7  C   UNL     1     -10.611  10.472  66.492  1.00  0.00    -0.240 C  
BRANCH   7   8
HETATM    8  C   UNL     1     -10.833  10.647  67.971  1.00  0.00    -0.309 A  
HETATM    9  C   UNL     1     -11.030  11.836  68.646  1.00  0.00    -0.224 A  
HETATM   10  N   UNL     1     -11.303  11.551  69.960  1.00  0.00    -0.492 NA 
HETATM   11  C   UNL     1     -11.311  10.190  70.158  1.00  0.00    -0.303 A  
HETATM   12  H   UNL     1     -11.475  12.248  70.685  1.00  0.00     0.000 HD 
HETATM   13  C   UNL     1     -10.947   9.609  68.947  1.00  0.00    -0.153 A  
HETATM   14  C   UNL     1     -10.840   8.209  68.882  1.00  0.00     0.004 A  
HETATM   15  C   UNL     1     -11.192   7.405  69.976  1.00  0.00    -0.200 A  
HETATM   16  C   UNL     1     -11.589   8.032  71.165  1.00  0.00    -0.307 A  
HETATM   17  C   UNL     1     -11.624   9.430  71.289  1.00  0.00    -0.434 A  
BRANCH  15  18
HETATM   18  C   UNL     1     -11.276   5.897  69.840  1.00  0.00    -0.339 C  
BRANCH  18  19
HETATM   19  C   UNL     1     -10.294   5.135  70.723  1.00  0.00    -0.224 C  
BRANCH  19  20
HETATM   20  S   UNL     1      -8.983   4.388  69.781  1.00  0.00    -0.107 S  
HETATM   21  O   UNL     1      -9.564   3.746  68.620  1.00  0.00    -0.161 OA 
HETATM   22  O   UNL     1      -8.116   3.667  70.686  1.00  0.00    -0.053 OA 
BRANCH  20  23
HETATM   23  C   UNL     1      -8.097   5.825  69.208  1.00  0.00    -0.101 A  
HETATM   24  C   UNL     1      -7.496   6.675  70.142  1.00  0.00    -0.094 A  
HETATM   25  C   UNL     1      -6.839   7.821  69.698  1.00  0.00    -0.043 A  
HETATM   26  C   UNL     1      -6.778   8.109  68.334  1.00  0.00    -0.064 A  
HETATM   27  C   UNL     1      -7.365   7.248  67.405  1.00  0.00    -0.092 A  
HETATM   28  C   UNL     1      -8.026   6.097  67.838  1.00  0.00    -0.110 A  
ENDBRANCH  20  23
ENDBRANCH  19  20
ENDBRANCH  18  19
ENDBRANCH  15  18
ENDBRANCH   7   8
ENDBRANCH   6   7
TORSDOF 6
ENDMDL
MODEL      206
REMARK 921   NORMALIZED FREE ENERGY PREDICTED BY IDOCK:   -4.39 KCAL/MOL
REMARK 922        TOTAL FREE ENERGY PREDICTED BY IDOCK:   -7.50 KCAL/MOL
REMARK 923 INTER-LIGAND FREE ENERGY PREDICTED BY IDOCK:   -6.17 KCAL/MOL
REMARK 924 INTRA-LIGAND FREE ENERGY PREDICTED BY IDOCK:   -1.34 KCAL/MOL
REMARK 927      BINDING AFFINITY PREDICTED BY RF-SCORE:    0.00 PKD
ROOT
HETATM    1  C   UNL     1     -12.167  10.786  70.572  1.00  0.00    -0.366 C  
HETATM    2  N   UNL     1     -11.019  10.796  69.669  1.00  0.00    -0.258 NA 
HETATM    3  C   UNL     1     -10.324   9.503  69.694  1.00  0.00    -0.221 C  
HETATM    4  C   UNL     1      -9.634   9.435  68.350  1.00  0.00    -0.157 C  
HETATM    5  C   UNL     1     -10.657  10.044  67.414  1.00  0.00    -0.330 C  
HETATM    6  C   UNL     1     -11.398  11.086  68.265  1.00  0.00    -0.299 C  
ENDROOT
BRANCH   6   7
HETATM    7  C   UNL     1     -11.020  12.545  67.901  1.00  0.00    -0.262 C  
BRANCH   7   8
HETATM    8  C   UNL     1     -11.623  13.028  66.608  1.00  0.00    -0.410 A  
HETATM    9  C   UNL     1     -12.607  12.404  65.867  1.00  0.00     0.591 A  
HETATM   10  N   UNL     1     -12.951  13.223  64.821  1.00  0.00    -0.718 NA 
HETATM   11  C   UNL     1     -12.222  14.389  64.874  1.00  0.00    -0.433 A  
HETATM   12  H   UNL     1     -13.646  13.000  64.108  1.00  0.00     0.000 HD 
HETATM   13  C   UNL     1     -11.336  14.257  65.938  1.00  0.00    -0.328 A  
HETATM   14  C   UNL     1     -10.436  15.307  66.193  1.00  0.00    -0.318 A  
HETATM   15  C   UNL     1     -10.496  16.504  65.465  1.00  0.00    -0.320 A  
HETATM   16  C   UNL     1     -11.431  16.608  64.426  1.00  0.00     0.294 A  
HETATM   17  C   UNL     1     -12.286  15.545  64.091  1.00  0.00    -0.019 A  
BRANCH  15  18
HETATM   18  C   UNL     1      -9.670  17.708  65.875  1.00  0.00    -0.051 C  
BRANCH  18  19
HETATM   19  C   UNL     1     -10.364  18.633  66.867  1.00  0.00    -0.402 C  
BRANCH  19  20
HETATM   20  S   UNL     1      -9.312  19.063  68.235  1.00  0.00    -0.361 S  
HETATM   21  O   UNL     1     -10.151  19.433  69.357  1.00  0.00    -0.327 OA 
HETATM   22  O   UNL     1      -8.264  19.937  67.757  1.00  0.00    -0.295 OA 
BRANCH  20  23
HETATM   23  C   UNL     1      -8.573  17.487  68.621  1.00  0.00    -0.259 A  
HETATM   24  C   UNL     1      -9.360  16.485  69.199  1.00  0.00    -0.207 A  
HETATM   25  C   UNL     1      -8.774  15.268  69.539  1.00  0.00    -0.178 A  
HETATM   26  C   UNL     1      -7.416  15.053  69.298  1.00  0.00    -0.188 A  
HETATM   27  C   UNL     1      -6.639  16.050  68.706  1.00  0.00    -0.126 A  
HETATM   28  C   UNL     1      -7.216  17.273  68.360  1.00  0.00    -0.220 A  
ENDBRANCH  20  23
ENDBRANCH  19  20
ENDBRANCH  18  19
ENDBRANCH  15  18
ENDBRANCH   7   8
ENDBRANCH   6   7
TORSDOF 6
ENDMDL
MODEL      207
REMARK 921   NORMALIZED FREE ENERGY PREDICTED BY IDOCK:   -4.39 KCAL/MOL
REMARK 922        TOTAL FREE ENERGY PREDICTED BY IDOCK:   -7.50 KCAL/MOL
REMARK 923 INTER-LIGAND FREE ENERGY PREDICTED BY IDOCK:   -6.49 KCAL/MOL
REMARK 924 INTRA-LIGAND FREE ENERGY PREDICTED BY IDOCK:   -1.01 KCAL/MOL
REMARK 927      BINDING AFFINITY PREDICTED BY RF-SCORE:    0.00 PKD
ROOT
HETATM    1  C   UNL     1     -11.522  12.067  69.086  1.00  0.00    -0.300 C  
HETATM    2  N   UNL     1     -11.753  13.152  68.135  1.00  0.00    -0.336 NA 
HETATM    3  C   UNL     1     -11.590  14.458  68.783  1.00  0.00    -0.315 C  
HETATM    4  C   UNL     1     -11.228  15.386  67.645  1.00  0.00    -0.311 C  
HETATM    5  C   UNL     1     -10.317  14.532  66.790  1.00  0.00    -0.269 C  
HETATM    6  C   UNL     1     -10.834  13.098  66.972  1.00  0.00    -0.264 C  
ENDROOT
BRANCH   6   7
HETATM    7  C   UNL     1     -11.583  12.561  65.725  1.00  0.00    -0.439 C  
BRANCH   7   8
HETATM    8  C   UNL     1     -10.695  11.847  64.740  1.00  0.00    -0.356 A  
HETATM    9  C   UNL     1     -10.463  12.199  63.424  1.00  0.00    -0.412 A  
HETATM   10  N   UNL     1      -9.511  11.356  62.909  1.00  0.00    -0.487 NA 
HETATM   11  C   UNL     1      -9.096  10.466  63.872  1.00  0.00    -0.245 A  
HETATM   12  H   UNL     1      -9.162  11.385  61.951  1.00  0.00     0.000 HD 
HETATM   13  C   UNL     1      -9.874  10.707  65.000  1.00  0.00    -0.353 A  
HETATM   14  C   UNL     1      -9.678   9.899  66.134  1.00  0.00    -0.297 A  
HETATM   15  C   UNL     1      -8.653   8.943  66.172  1.00  0.00    -0.155 A  
HETATM   16  C   UNL     1      -7.867   8.760  65.026  1.00  0.00    -0.111 A  
HETATM   17  C   UNL     1      -8.094   9.491  63.848  1.00  0.00    -0.152 A  
BRANCH  15  18
HETATM   18  C   UNL     1      -8.307   8.221  67.460  1.00  0.00    -0.130 C  
BRANCH  18  19
HETATM   19  C   UNL     1      -7.166   8.855  68.245  1.00  0.00    -0.079 C  
BRANCH  19  20
HETATM   20  S   UNL     1      -6.831   7.989  69.762  1.00  0.00    -0.045 S  
HETATM   21  O   UNL     1      -6.165   8.901  70.670  1.00  0.00    -0.035 OA 
HETATM   22  O   UNL     1      -6.266   6.697  69.443  1.00  0.00    -0.031 OA 
BRANCH  20  23
HETATM   23  C   UNL     1      -8.479   7.723  70.389  1.00  0.00    -0.132 A  
HETATM   24  C   UNL     1      -8.989   6.422  70.439  1.00  0.00    -0.155 A  
HETATM   25  C   UNL     1     -10.292   6.216  70.889  1.00  0.00    -0.267 A  
HETATM   26  C   UNL     1     -11.073   7.301  71.290  1.00  0.00    -0.270 A  
HETATM   27  C   UNL     1     -10.553   8.596  71.253  1.00  0.00    -0.308 A  
HETATM   28  C   UNL     1      -9.249   8.814  70.804  1.00  0.00    -0.242 A  
ENDBRANCH  20  23
ENDBRANCH  19  20
ENDBRANCH  18  19
ENDBRANCH  15  18
ENDBRANCH   7   8
ENDBRANCH   6   7
TORSDOF 6
ENDMDL
MODEL      208
REMARK 921   NORMALIZED FREE ENERGY PREDICTED BY IDOCK:   -4.39 KCAL/MOL
REMARK 922        TOTAL FREE ENERGY PREDICTED BY IDOCK:   -7.50 KCAL/MOL
REMARK 923 INTER-LIGAND FREE ENERGY PREDICTED BY IDOCK:   -5.42 KCAL/MOL
REMARK 924 INTRA-LIGAND FREE ENERGY PREDICTED BY IDOCK:   -2.07 KCAL/MOL
REMARK 927      BINDING AFFINITY PREDICTED BY RF-SCORE:    0.00 PKD
ROOT
HETATM    1  C   UNL     1      -6.618  11.188  66.260  1.00  0.00    -0.069 C  
HETATM    2  N   UNL     1      -6.703  10.831  67.673  1.00  0.00    -0.068 NA 
HETATM    3  C   UNL     1      -5.365  10.709  68.263  1.00  0.00    -0.033 C  
HETATM    4  C   UNL     1      -5.590  10.974  69.735  1.00  0.00    -0.052 C  
HETATM    5  C   UNL     1      -6.622  12.083  69.724  1.00  0.00     0.001 C  
HETATM    6  C   UNL     1      -7.467  11.822  68.469  1.00  0.00    -0.110 C  
ENDROOT
BRANCH   6   7
HETATM    7  C   UNL     1      -8.880  11.271  68.794  1.00  0.00    -0.106 C  
BRANCH   7   8
HETATM    8  C   UNL     1      -9.915  11.588  67.747  1.00  0.00    -0.195 A  
HETATM    9  C   UNL     1     -11.043  10.850  67.446  1.00  0.00    -0.307 A  
HETATM   10  N   UNL     1     -11.776  11.537  66.511  1.00  0.00    -0.406 NA 
HETATM   11  C   UNL     1     -11.158  12.728  66.207  1.00  0.00    -0.288 A  
HETATM   12  H   UNL     1     -12.652  11.212  66.101  1.00  0.00     0.000 HD 
HETATM   13  C   UNL     1      -9.958  12.746  66.911  1.00  0.00    -0.232 A  
HETATM   14  C   UNL     1      -9.103  13.851  66.749  1.00  0.00    -0.238 A  
HETATM   15  C   UNL     1      -9.490  14.958  65.981  1.00  0.00    -0.316 A  
HETATM   16  C   UNL     1     -10.725  14.913  65.319  1.00  0.00    -0.409 A  
HETATM   17  C   UNL     1     -11.564  13.789  65.392  1.00  0.00    -0.330 A  
BRANCH  15  18
HETATM   18  C   UNL     1      -8.664  16.230  65.974  1.00  0.00    -0.285 C  
BRANCH  18  19
HETATM   19  C   UNL     1      -9.459  17.493  66.282  1.00  0.00    -0.219 C  
BRANCH  19  20
HETATM   20  S   UNL     1      -9.384  17.932  68.003  1.00  0.00    -0.282 S  
HETATM   21  O   UNL     1     -10.182  19.124  68.205  1.00  0.00    -0.381 OA 
HETATM   22  O   UNL     1      -8.006  17.865  68.439  1.00  0.00    -0.279 OA 
BRANCH  20  23
HETATM   23  C   UNL     1     -10.258  16.572  68.754  1.00  0.00    -0.267 A  
HETATM   24  C   UNL     1     -11.590  16.335  68.398  1.00  0.00    -0.154 A  
HETATM   25  C   UNL     1     -12.287  15.298  69.014  1.00  0.00    -0.049 A  
HETATM   26  C   UNL     1     -11.657  14.503  69.973  1.00  0.00    -0.339 A  
HETATM   27  C   UNL     1     -10.322  14.734  70.313  1.00  0.00     0.222 A  
HETATM   28  C   UNL     1      -9.614  15.770  69.701  1.00  0.00    -0.233 A  
ENDBRANCH  20  23
ENDBRANCH  19  20
ENDBRANCH  18  19
ENDBRANCH  15  18
ENDBRANCH   7   8
ENDBRANCH   6   7
TORSDOF 6
ENDMDL
MODEL      209
REMARK 921   NORMALIZED FREE ENERGY PREDICTED BY IDOCK:   -4.37 KCAL/MOL
REMARK 922        TOTAL FREE ENERGY PREDICTED BY IDOCK:   -7.47 KCAL/MOL
REMARK 923 INTER-LIGAND FREE ENERGY PREDICTED BY IDOCK:   -6.71 KCAL/MOL
REMARK 924 INTRA-LIGAND FREE ENERGY PREDICTED BY IDOCK:   -0.77 KCAL/MOL
REMARK 927      BINDING AFFINITY PREDICTED BY RF-SCORE:    0.00 PKD
ROOT
HETATM    1  C   UNL     1      -7.601  18.684  68.646  1.00  0.00    -0.314 C  
HETATM    2  N   UNL     1      -9.022  18.497  68.369  1.00  0.00    -0.316 NA 
HETATM    3  C   UNL     1      -9.653  19.768  67.994  1.00  0.00    -0.383 C  
HETATM    4  C   UNL     1     -10.846  19.351  67.164  1.00  0.00    -0.561 C  
HETATM    5  C   UNL     1     -10.309  18.185  66.362  1.00  0.00    -0.404 C  
HETATM    6  C   UNL     1      -9.269  17.523  67.278  1.00  0.00    -0.240 C  
ENDROOT
BRANCH   6   7
HETATM    7  C   UNL     1      -9.753  16.173  67.867  1.00  0.00    -0.225 C  
BRANCH   7   8
HETATM    8  C   UNL     1      -8.829  15.017  67.587  1.00  0.00    -0.183 A  
HETATM    9  C   UNL     1      -7.535  15.087  67.108  1.00  0.00    -0.110 A  
HETATM   10  N   UNL     1      -7.006  13.821  67.098  1.00  0.00    -0.406 NA 
HETATM   11  C   UNL     1      -7.925  12.920  67.584  1.00  0.00    -0.167 A  
HETATM   12  H   UNL     1      -6.068  13.582  66.777  1.00  0.00     0.000 HD 
HETATM   13  C   UNL     1      -9.094  13.634  67.826  1.00  0.00    -0.199 A  
HETATM   14  C   UNL     1     -10.219  12.936  68.300  1.00  0.00    -0.245 A  
HETATM   15  C   UNL     1     -10.142  11.573  68.623  1.00  0.00    -0.214 A  
HETATM   16  C   UNL     1      -8.932  10.901  68.399  1.00  0.00    -0.154 A  
HETATM   17  C   UNL     1      -7.816  11.551  67.847  1.00  0.00    -0.123 A  
BRANCH  15  18
HETATM   18  C   UNL     1     -11.288  10.872  69.325  1.00  0.00    -0.345 C  
BRANCH  18  19
HETATM   19  C   UNL     1     -10.892  10.167  70.616  1.00  0.00    -0.235 C  
BRANCH  19  20
HETATM   20  S   UNL     1     -11.059   8.400  70.497  1.00  0.00    -0.235 S  
HETATM   21  O   UNL     1     -10.562   7.981  69.203  1.00  0.00    -0.219 OA 
HETATM   22  O   UNL     1     -12.381   8.028  70.953  1.00  0.00    -0.206 OA 
BRANCH  20  23
HETATM   23  C   UNL     1      -9.886   7.851  71.722  1.00  0.00    -0.173 A  
HETATM   24  C   UNL     1     -10.299   7.718  73.052  1.00  0.00    -0.410 A  
HETATM   25  C   UNL     1      -9.373   7.328  74.018  1.00  0.00    -0.301 A  
HETATM   26  C   UNL     1      -8.050   7.069  73.656  1.00  0.00    -0.127 A  
HETATM   27  C   UNL     1      -7.648   7.189  72.324  1.00  0.00    -0.089 A  
HETATM   28  C   UNL     1      -8.567   7.577  71.348  1.00  0.00    -0.124 A  
ENDBRANCH  20  23
ENDBRANCH  19  20
ENDBRANCH  18  19
ENDBRANCH  15  18
ENDBRANCH   7   8
ENDBRANCH   6   7
TORSDOF 6
ENDMDL
MODEL      210
REMARK 921   NORMALIZED FREE ENERGY PREDICTED BY IDOCK:   -4.36 KCAL/MOL
REMARK 922        TOTAL FREE ENERGY PREDICTED BY IDOCK:   -7.47 KCAL/MOL
REMARK 923 INTER-LIGAND FREE ENERGY PREDICTED BY IDOCK:   -6.78 KCAL/MOL
REMARK 924 INTRA-LIGAND FREE ENERGY PREDICTED BY IDOCK:   -0.69 KCAL/MOL
REMARK 927      BINDING AFFINITY PREDICTED BY RF-SCORE:    0.00 PKD
ROOT
HETATM    1  C   UNL     1     -11.455  16.049  68.309  1.00  0.00    -0.291 C  
HETATM    2  N   UNL     1     -10.382  16.359  67.369  1.00  0.00    -0.290 NA 
HETATM    3  C   UNL     1      -9.342  17.171  68.012  1.00  0.00    -0.254 C  
HETATM    4  C   UNL     1      -8.099  16.877  67.202  1.00  0.00    -0.214 C  
HETATM    5  C   UNL     1      -8.227  15.397  66.912  1.00  0.00    -0.281 C  
HETATM    6  C   UNL     1      -9.738  15.143  66.815  1.00  0.00    -0.242 C  
ENDROOT
BRANCH   6   7
HETATM    7  C   UNL     1     -10.219  14.900  65.361  1.00  0.00    -0.409 C  
BRANCH   7   8
HETATM    8  C   UNL     1     -10.452  13.450  65.029  1.00  0.00    -0.378 A  
HETATM    9  C   UNL     1     -10.972  12.940  63.855  1.00  0.00    -0.384 A  
HETATM   10  N   UNL     1     -10.917  11.570  63.913  1.00  0.00    -0.386 NA 
HETATM   11  C   UNL     1     -10.350  11.169  65.100  1.00  0.00    -0.293 A  
HETATM   12  H   UNL     1     -11.250  10.941  63.182  1.00  0.00     0.000 HD 
HETATM   13  C   UNL     1     -10.120  12.323  65.842  1.00  0.00    -0.272 A  
HETATM   14  C   UNL     1      -9.572  12.192  67.131  1.00  0.00    -0.195 A  
HETATM   15  C   UNL     1      -9.166  10.942  67.621  1.00  0.00    -0.155 A  
HETATM   16  C   UNL     1      -9.382   9.810  66.823  1.00  0.00    -0.190 A  
HETATM   17  C   UNL     1     -10.005   9.897  65.567  1.00  0.00    -0.363 A  
BRANCH  15  18
HETATM   18  C   UNL     1      -8.389  10.828  68.918  1.00  0.00    -0.147 C  
BRANCH  18  19
HETATM   19  C   UNL     1      -7.335   9.728  68.919  1.00  0.00    -0.073 C  
BRANCH  19  20
HETATM   20  S   UNL     1      -7.339   8.795  70.433  1.00  0.00    -0.072 S  
HETATM   21  O   UNL     1      -7.059   9.701  71.528  1.00  0.00    -0.306 OA 
HETATM   22  O   UNL     1      -6.565   7.588  70.237  1.00  0.00    -0.038 OA 
BRANCH  20  23
HETATM   23  C   UNL     1      -9.055   8.326  70.555  1.00  0.00    -0.147 A  
HETATM   24  C   UNL     1      -9.577   7.399  69.646  1.00  0.00    -0.156 A  
HETATM   25  C   UNL     1     -10.927   7.063  69.713  1.00  0.00    -0.283 A  
HETATM   26  C   UNL     1     -11.746   7.643  70.684  1.00  0.00    -0.214 A  
HETATM   27  C   UNL     1     -11.216   8.556  71.598  1.00  0.00    -0.361 A  
HETATM   28  C   UNL     1      -9.864   8.899  71.541  1.00  0.00    -0.384 A  
ENDBRANCH  20  23
ENDBRANCH  19  20
ENDBRANCH  18  19
ENDBRANCH  15  18
ENDBRANCH   7   8
ENDBRANCH   6   7
TORSDOF 6
ENDMDL
MODEL      211
REMARK 921   NORMALIZED FREE ENERGY PREDICTED BY IDOCK:   -4.36 KCAL/MOL
REMARK 922        TOTAL FREE ENERGY PREDICTED BY IDOCK:   -7.46 KCAL/MOL
REMARK 923 INTER-LIGAND FREE ENERGY PREDICTED BY IDOCK:   -6.57 KCAL/MOL
REMARK 924 INTRA-LIGAND FREE ENERGY PREDICTED BY IDOCK:   -0.89 KCAL/MOL
REMARK 927      BINDING AFFINITY PREDICTED BY RF-SCORE:    0.00 PKD
ROOT
HETATM    1  C   UNL     1      -7.020  14.255  67.786  1.00  0.00    -0.177 C  
HETATM    2  N   UNL     1      -7.207  15.422  68.644  1.00  0.00    -0.116 NA 
HETATM    3  C   UNL     1      -5.976  15.732  69.381  1.00  0.00    -0.129 C  
HETATM    4  C   UNL     1      -6.096  17.209  69.682  1.00  0.00    -0.241 C  
HETATM    5  C   UNL     1      -6.714  17.763  68.416  1.00  0.00    -0.213 C  
HETATM    6  C   UNL     1      -7.605  16.632  67.885  1.00  0.00    -0.160 C  
ENDROOT
BRANCH   6   7
HETATM    7  C   UNL     1      -9.118  16.911  68.080  1.00  0.00    -0.234 C  
BRANCH   7   8
HETATM    8  C   UNL     1      -9.988  16.358  66.981  1.00  0.00    -0.261 A  
HETATM    9  C   UNL     1     -10.199  16.910  65.733  1.00  0.00    -0.268 A  
HETATM   10  N   UNL     1     -10.967  16.042  64.998  1.00  0.00    -0.466 NA 
HETATM   11  C   UNL     1     -11.247  14.916  65.736  1.00  0.00    -0.334 A  
HETATM   12  H   UNL     1     -11.283  16.208  64.042  1.00  0.00     0.000 HD 
HETATM   13  C   UNL     1     -10.709  15.125  67.002  1.00  0.00    -0.307 A  
HETATM   14  C   UNL     1     -10.888  14.129  67.978  1.00  0.00    -0.256 A  
HETATM   15  C   UNL     1     -11.502  12.908  67.662  1.00  0.00    -0.383 A  
HETATM   16  C   UNL     1     -11.996  12.725  66.363  1.00  0.00    -0.443 A  
HETATM   17  C   UNL     1     -11.908  13.734  65.389  1.00  0.00    -0.371 A  
BRANCH  15  18
HETATM   18  C   UNL     1     -11.509  11.760  68.652  1.00  0.00    -0.346 C  
BRANCH  18  19
HETATM   19  C   UNL     1     -10.133  11.172  68.939  1.00  0.00    -0.186 C  
BRANCH  19  20
HETATM   20  S   UNL     1     -10.227   9.667  69.881  1.00  0.00    -0.264 S  
HETATM   21  O   UNL     1     -11.611   9.441  70.244  1.00  0.00    -0.233 OA 
HETATM   22  O   UNL     1      -9.178   9.676  70.876  1.00  0.00    -0.167 OA 
BRANCH  20  23
HETATM   23  C   UNL     1      -9.796   8.452  68.649  1.00  0.00    -0.170 A  
HETATM   24  C   UNL     1     -10.814   7.796  67.949  1.00  0.00    -0.080 A  
HETATM   25  C   UNL     1     -10.480   6.816  67.016  1.00  0.00    -0.369 A  
HETATM   26  C   UNL     1      -9.141   6.502  66.781  1.00  0.00    -0.153 A  
HETATM   27  C   UNL     1      -8.128   7.171  67.470  1.00  0.00    -0.113 A  
HETATM   28  C   UNL     1      -8.451   8.154  68.407  1.00  0.00    -0.126 A  
ENDBRANCH  20  23
ENDBRANCH  19  20
ENDBRANCH  18  19
ENDBRANCH  15  18
ENDBRANCH   7   8
ENDBRANCH   6   7
TORSDOF 6
ENDMDL
MODEL      212
REMARK 921   NORMALIZED FREE ENERGY PREDICTED BY IDOCK:   -4.35 KCAL/MOL
REMARK 922        TOTAL FREE ENERGY PREDICTED BY IDOCK:   -7.45 KCAL/MOL
REMARK 923 INTER-LIGAND FREE ENERGY PREDICTED BY IDOCK:   -6.64 KCAL/MOL
REMARK 924 INTRA-LIGAND FREE ENERGY PREDICTED BY IDOCK:   -0.82 KCAL/MOL
REMARK 927      BINDING AFFINITY PREDICTED BY RF-SCORE:    0.00 PKD
ROOT
HETATM    1  C   UNL     1     -11.774  12.238  69.346  1.00  0.00    -0.330 C  
HETATM    2  N   UNL     1     -12.199  13.531  68.816  1.00  0.00    -0.254 NA 
HETATM    3  C   UNL     1     -12.059  14.583  69.830  1.00  0.00    -0.331 C  
HETATM    4  C   UNL     1     -11.908  15.851  69.020  1.00  0.00    -0.328 C  
HETATM    5  C   UNL     1     -11.043  15.409  67.858  1.00  0.00    -0.323 C  
HETATM    6  C   UNL     1     -11.425  13.941  67.619  1.00  0.00    -0.324 C  
ENDROOT
BRANCH   6   7
HETATM    7  C   UNL     1     -12.275  13.737  66.338  1.00  0.00    -0.480 C  
BRANCH   7   8
HETATM    8  C   UNL     1     -11.536  13.057  65.216  1.00  0.00    -0.340 A  
HETATM    9  C   UNL     1     -11.333  13.546  63.940  1.00  0.00    -0.191 A  
HETATM   10  N   UNL     1     -10.521  12.671  63.263  1.00  0.00    -0.536 NA 
HETATM   11  C   UNL     1     -10.168  11.623  64.081  1.00  0.00    -0.326 A  
HETATM   12  H   UNL     1     -10.223  12.781  62.293  1.00  0.00     0.000 HD 
HETATM   13  C   UNL     1     -10.849  11.806  65.280  1.00  0.00    -0.343 A  
HETATM   14  C   UNL     1     -10.693  10.843  66.293  1.00  0.00    -0.241 A  
HETATM   15  C   UNL     1      -9.793   9.778  66.145  1.00  0.00    -0.329 A  
HETATM   16  C   UNL     1      -9.098   9.653  64.934  1.00  0.00    -0.284 A  
HETATM   17  C   UNL     1      -9.296  10.550  63.871  1.00  0.00    -0.314 A  
BRANCH  15  18
HETATM   18  C   UNL     1      -9.471   8.862  67.310  1.00  0.00    -0.195 C  
BRANCH  18  19
HETATM   19  C   UNL     1      -7.982   8.607  67.511  1.00  0.00    -0.106 C  
BRANCH  19  20
HETATM   20  S   UNL     1      -7.674   7.335  68.715  1.00  0.00    -0.122 S  
HETATM   21  O   UNL     1      -8.562   7.547  69.840  1.00  0.00    -0.137 OA 
HETATM   22  O   UNL     1      -6.245   7.204  68.896  1.00  0.00    -0.026 OA 
BRANCH  20  23
HETATM   23  C   UNL     1      -8.247   5.884  67.852  1.00  0.00    -0.108 A  
HETATM   24  C   UNL     1      -9.308   5.145  68.386  1.00  0.00    -0.155 A  
HETATM   25  C   UNL     1      -9.730   3.987  67.734  1.00  0.00    -0.155 A  
HETATM   26  C   UNL     1      -9.101   3.578  66.557  1.00  0.00    -0.172 A  
HETATM   27  C   UNL     1      -8.053   4.329  66.020  1.00  0.00    -0.102 A  
HETATM   28  C   UNL     1      -7.623   5.490  66.664  1.00  0.00    -0.088 A  
ENDBRANCH  20  23
ENDBRANCH  19  20
ENDBRANCH  18  19
ENDBRANCH  15  18
ENDBRANCH   7   8
ENDBRANCH   6   7
TORSDOF 6
ENDMDL
MODEL      213
REMARK 921   NORMALIZED FREE ENERGY PREDICTED BY IDOCK:   -4.33 KCAL/MOL
REMARK 922        TOTAL FREE ENERGY PREDICTED BY IDOCK:   -7.43 KCAL/MOL
REMARK 923 INTER-LIGAND FREE ENERGY PREDICTED BY IDOCK:   -6.51 KCAL/MOL
REMARK 924 INTRA-LIGAND FREE ENERGY PREDICTED BY IDOCK:   -0.92 KCAL/MOL
REMARK 927      BINDING AFFINITY PREDICTED BY RF-SCORE:    0.00 PKD
ROOT
HETATM    1  C   UNL     1     -13.849   8.929  71.132  1.00  0.00    -0.066 C  
HETATM    2  N   UNL     1     -12.576   9.409  71.665  1.00  0.00    -0.349 NA 
HETATM    3  C   UNL     1     -11.650   8.293  71.891  1.00  0.00    -0.315 C  
HETATM    4  C   UNL     1     -10.283   8.932  71.811  1.00  0.00    -0.414 C  
HETATM    5  C   UNL     1     -10.444   9.934  70.687  1.00  0.00    -0.301 C  
HETATM    6  C   UNL     1     -11.910  10.382  70.766  1.00  0.00    -0.368 C  
ENDROOT
BRANCH   6   7
HETATM    7  C   UNL     1     -12.074  11.821  71.321  1.00  0.00     0.110 C  
BRANCH   7   8
HETATM    8  C   UNL     1     -12.129  12.884  70.256  1.00  0.00    -0.377 A  
HETATM    9  C   UNL     1     -12.445  14.217  70.430  1.00  0.00    -0.362 A  
HETATM   10  N   UNL     1     -12.273  14.866  69.233  1.00  0.00    -0.545 NA 
HETATM   11  C   UNL     1     -11.826  13.983  68.277  1.00  0.00    -0.371 A  
HETATM   12  H   UNL     1     -12.450  15.858  69.075  1.00  0.00     0.000 HD 
HETATM   13  C   UNL     1     -11.800  12.727  68.874  1.00  0.00    -0.351 A  
HETATM   14  C   UNL     1     -11.411  11.623  68.095  1.00  0.00    -0.358 A  
HETATM   15  C   UNL     1     -10.958  11.791  66.779  1.00  0.00    -0.336 A  
HETATM   16  C   UNL     1     -10.965  13.080  66.228  1.00  0.00    -0.303 A  
HETATM   17  C   UNL     1     -11.428  14.191  66.952  1.00  0.00    -0.373 A  
BRANCH  15  18
HETATM   18  C   UNL     1     -10.345  10.635  66.012  1.00  0.00    -0.290 C  
BRANCH  18  19
HETATM   19  C   UNL     1      -8.979  10.940  65.410  1.00  0.00    -0.193 C  
BRANCH  19  20
HETATM   20  S   UNL     1      -7.674  10.031  66.206  1.00  0.00    -0.109 S  
HETATM   21  O   UNL     1      -6.558   9.935  65.288  1.00  0.00    -0.091 OA 
HETATM   22  O   UNL     1      -8.242   8.854  66.828  1.00  0.00    -0.109 OA 
BRANCH  20  23
HETATM   23  C   UNL     1      -7.201  11.157  67.505  1.00  0.00    -0.101 A  
HETATM   24  C   UNL     1      -6.626  10.649  68.675  1.00  0.00    -0.056 A  
HETATM   25  C   UNL     1      -6.294  11.523  69.708  1.00  0.00    -0.140 A  
HETATM   26  C   UNL     1      -6.529  12.892  69.569  1.00  0.00    -0.075 A  
HETATM   27  C   UNL     1      -7.088  13.395  68.393  1.00  0.00    -0.108 A  
HETATM   28  C   UNL     1      -7.424  12.529  67.351  1.00  0.00    -0.153 A  
ENDBRANCH  20  23
ENDBRANCH  19  20
ENDBRANCH  18  19
ENDBRANCH  15  18
ENDBRANCH   7   8
ENDBRANCH   6   7
TORSDOF 6
ENDMDL
MODEL      214
REMARK 921   NORMALIZED FREE ENERGY PREDICTED BY IDOCK:   -4.33 KCAL/MOL
REMARK 922        TOTAL FREE ENERGY PREDICTED BY IDOCK:   -7.42 KCAL/MOL
REMARK 923 INTER-LIGAND FREE ENERGY PREDICTED BY IDOCK:   -4.97 KCAL/MOL
REMARK 924 INTRA-LIGAND FREE ENERGY PREDICTED BY IDOCK:   -2.45 KCAL/MOL
REMARK 927      BINDING AFFINITY PREDICTED BY RF-SCORE:    0.00 PKD
ROOT
HETATM    1  C   UNL     1      -7.550   7.573  73.850  1.00  0.00    -0.125 C  
HETATM    2  N   UNL     1      -7.214   8.637  72.908  1.00  0.00    -0.333 NA 
HETATM    3  C   UNL     1      -5.789   8.981  72.995  1.00  0.00    -0.030 C  
HETATM    4  C   UNL     1      -5.471   9.560  71.635  1.00  0.00    -0.073 C  
HETATM    5  C   UNL     1      -6.269   8.679  70.698  1.00  0.00    -0.037 C  
HETATM    6  C   UNL     1      -7.512   8.273  71.502  1.00  0.00    -0.090 C  
ENDROOT
BRANCH   6   7
HETATM    7  C   UNL     1      -8.803   8.990  71.027  1.00  0.00    -0.291 C  
BRANCH   7   8
HETATM    8  C   UNL     1      -9.798   8.079  70.359  1.00  0.00    -0.183 A  
HETATM    9  C   UNL     1     -11.064   7.760  70.810  1.00  0.00    -0.257 A  
HETATM   10  N   UNL     1     -11.684   6.990  69.858  1.00  0.00    -0.587 NA 
HETATM   11  C   UNL     1     -10.853   6.813  68.777  1.00  0.00    -0.231 A  
HETATM   12  H   UNL     1     -12.625   6.604  69.941  1.00  0.00     0.000 HD 
HETATM   13  C   UNL     1      -9.644   7.422  69.100  1.00  0.00    -0.156 A  
HETATM   14  C   UNL     1      -8.591   7.355  68.169  1.00  0.00    -0.123 A  
HETATM   15  C   UNL     1      -8.781   6.783  66.903  1.00  0.00    -0.117 A  
HETATM   16  C   UNL     1     -10.027   6.215  66.606  1.00  0.00    -0.207 A  
HETATM   17  C   UNL     1     -11.072   6.190  67.545  1.00  0.00    -0.318 A  
BRANCH  15  18
HETATM   18  C   UNL     1      -7.716   6.896  65.830  1.00  0.00    -0.100 C  
BRANCH  18  19
HETATM   19  C   UNL     1      -6.883   8.169  65.907  1.00  0.00    -0.060 C  
BRANCH  19  20
HETATM   20  S   UNL     1      -7.648   9.526  65.047  1.00  0.00    -0.119 S  
HETATM   21  O   UNL     1      -8.596   8.986  64.094  1.00  0.00    -0.191 OA 
HETATM   22  O   UNL     1      -6.619  10.458  64.642  1.00  0.00    -0.114 OA 
BRANCH  20  23
HETATM   23  C   UNL     1      -8.587  10.289  66.357  1.00  0.00    -0.133 A  
HETATM   24  C   UNL     1      -9.985  10.270  66.298  1.00  0.00    -0.295 A  
HETATM   25  C   UNL     1     -10.720  10.902  67.299  1.00  0.00    -0.317 A  
HETATM   26  C   UNL     1     -10.063  11.541  68.351  1.00  0.00    -0.207 A  
HETATM   27  C   UNL     1      -8.668  11.544  68.414  1.00  0.00    -0.160 A  
HETATM   28  C   UNL     1      -7.922  10.913  67.417  1.00  0.00    -0.113 A  
ENDBRANCH  20  23
ENDBRANCH  19  20
ENDBRANCH  18  19
ENDBRANCH  15  18
ENDBRANCH   7   8
ENDBRANCH   6   7
TORSDOF 6
ENDMDL
MODEL      215
REMARK 921   NORMALIZED FREE ENERGY PREDICTED BY IDOCK:   -4.31 KCAL/MOL
REMARK 922        TOTAL FREE ENERGY PREDICTED BY IDOCK:   -7.40 KCAL/MOL
REMARK 923 INTER-LIGAND FREE ENERGY PREDICTED BY IDOCK:   -5.97 KCAL/MOL
REMARK 924 INTRA-LIGAND FREE ENERGY PREDICTED BY IDOCK:   -1.43 KCAL/MOL
REMARK 927      BINDING AFFINITY PREDICTED BY RF-SCORE:    0.00 PKD
ROOT
HETATM    1  C   UNL     1     -10.131   8.913  66.589  1.00  0.00    -0.287 C  
HETATM    2  N   UNL     1     -10.030  10.370  66.592  1.00  0.00    -0.202 NA 
HETATM    3  C   UNL     1     -10.066  10.899  65.223  1.00  0.00    -0.280 C  
HETATM    4  C   UNL     1     -10.582  12.310  65.392  1.00  0.00    -0.309 C  
HETATM    5  C   UNL     1     -11.632  12.159  66.473  1.00  0.00    -0.425 C  
HETATM    6  C   UNL     1     -11.119  11.018  67.362  1.00  0.00    -0.305 C  
ENDROOT
BRANCH   6   7
HETATM    7  C   UNL     1     -10.584  11.511  68.732  1.00  0.00    -0.241 C  
BRANCH   7   8
HETATM    8  C   UNL     1     -11.172  10.787  69.915  1.00  0.00    -0.371 A  
HETATM    9  C   UNL     1     -12.481  10.840  70.353  1.00  0.00    -0.347 A  
HETATM   10  N   UNL     1     -12.628   9.953  71.390  1.00  0.00    -0.366 NA 
HETATM   11  C   UNL     1     -11.441   9.300  71.627  1.00  0.00    -0.398 A  
HETATM   12  H   UNL     1     -13.493   9.799  71.909  1.00  0.00     0.000 HD 
HETATM   13  C   UNL     1     -10.501   9.858  70.767  1.00  0.00    -0.253 A  
HETATM   14  C   UNL     1      -9.176   9.391  70.831  1.00  0.00    -0.242 A  
HETATM   15  C   UNL     1      -8.826   8.317  71.663  1.00  0.00    -0.224 A  
HETATM   16  C   UNL     1      -9.815   7.760  72.485  1.00  0.00    -0.271 A  
HETATM   17  C   UNL     1     -11.127   8.259  72.507  1.00  0.00    -0.439 A  
BRANCH  15  18
HETATM   18  C   UNL     1      -7.452   7.681  71.579  1.00  0.00    -0.079 C  
BRANCH  18  19
HETATM   19  C   UNL     1      -6.937   7.493  70.157  1.00  0.00    -0.059 C  
BRANCH  19  20
HETATM   20  S   UNL     1      -6.459   5.811  69.832  1.00  0.00    -0.040 S  
HETATM   21  O   UNL     1      -5.168   5.576  70.446  1.00  0.00    -0.004 OA 
HETATM   22  O   UNL     1      -6.692   5.525  68.433  1.00  0.00    -0.050 OA 
BRANCH  20  23
HETATM   23  C   UNL     1      -7.671   4.910  70.779  1.00  0.00    -0.070 A  
HETATM   24  C   UNL     1      -8.979   4.805  70.293  1.00  0.00    -0.147 A  
HETATM   25  C   UNL     1      -9.938   4.137  71.052  1.00  0.00    -0.206 A  
HETATM   26  C   UNL     1      -9.590   3.575  72.282  1.00  0.00    -0.206 A  
HETATM   27  C   UNL     1      -8.280   3.669  72.755  1.00  0.00    -0.082 A  
HETATM   28  C   UNL     1      -7.311   4.335  72.002  1.00  0.00    -0.065 A  
ENDBRANCH  20  23
ENDBRANCH  19  20
ENDBRANCH  18  19
ENDBRANCH  15  18
ENDBRANCH   7   8
ENDBRANCH   6   7
TORSDOF 6
ENDMDL
MODEL      216
REMARK 921   NORMALIZED FREE ENERGY PREDICTED BY IDOCK:   -4.31 KCAL/MOL
REMARK 922        TOTAL FREE ENERGY PREDICTED BY IDOCK:   -7.40 KCAL/MOL
REMARK 923 INTER-LIGAND FREE ENERGY PREDICTED BY IDOCK:   -5.83 KCAL/MOL
REMARK 924 INTRA-LIGAND FREE ENERGY PREDICTED BY IDOCK:   -1.56 KCAL/MOL
REMARK 927      BINDING AFFINITY PREDICTED BY RF-SCORE:    0.00 PKD
ROOT
HETATM    1  C   UNL     1     -12.031  13.370  68.902  1.00  0.00    -0.324 C  
HETATM    2  N   UNL     1     -11.566  12.581  67.765  1.00  0.00    -0.324 NA 
HETATM    3  C   UNL     1     -11.072  13.452  66.691  1.00  0.00    -0.295 C  
HETATM    4  C   UNL     1     -10.098  12.577  65.933  1.00  0.00    -0.270 C  
HETATM    5  C   UNL     1      -9.412  11.801  67.037  1.00  0.00    -0.191 C  
HETATM    6  C   UNL     1     -10.480  11.639  68.127  1.00  0.00    -0.195 C  
ENDROOT
BRANCH   6   7
HETATM    7  C   UNL     1     -11.036  10.194  68.221  1.00  0.00    -0.299 C  
BRANCH   7   8
HETATM    8  C   UNL     1     -11.283   9.723  69.630  1.00  0.00    -0.216 A  
HETATM    9  C   UNL     1     -11.865  10.443  70.655  1.00  0.00    -0.350 A  
HETATM   10  N   UNL     1     -12.004   9.617  71.742  1.00  0.00    -0.381 NA 
HETATM   11  C   UNL     1     -11.540   8.358  71.442  1.00  0.00    -0.284 A  
HETATM   12  H   UNL     1     -12.394   9.897  72.642  1.00  0.00     0.000 HD 
HETATM   13  C   UNL     1     -11.018   8.421  70.154  1.00  0.00    -0.216 A  
HETATM   14  C   UNL     1     -10.437   7.262  69.609  1.00  0.00    -0.239 A  
HETATM   15  C   UNL     1     -10.475   6.042  70.300  1.00  0.00    -0.305 A  
HETATM   16  C   UNL     1     -11.045   6.015  71.580  1.00  0.00    -0.333 A  
HETATM   17  C   UNL     1     -11.557   7.174  72.186  1.00  0.00    -0.317 A  
BRANCH  15  18
HETATM   18  C   UNL     1     -10.037   4.753  69.630  1.00  0.00    -0.275 C  
BRANCH  18  19
HETATM   19  C   UNL     1      -9.697   4.902  68.152  1.00  0.00    -0.148 C  
BRANCH  19  20
HETATM   20  S   UNL     1      -7.942   4.923  67.864  1.00  0.00    -0.093 S  
HETATM   21  O   UNL     1      -7.638   3.956  66.830  1.00  0.00    -0.082 OA 
HETATM   22  O   UNL     1      -7.263   4.901  69.141  1.00  0.00    -0.052 OA 
BRANCH  20  23
HETATM   23  C   UNL     1      -7.720   6.546  67.159  1.00  0.00    -0.100 A  
HETATM   24  C   UNL     1      -6.566   7.273  67.468  1.00  0.00    -0.057 A  
HETATM   25  C   UNL     1      -6.409   8.558  66.951  1.00  0.00    -0.056 A  
HETATM   26  C   UNL     1      -7.395   9.106  66.129  1.00  0.00    -0.095 A  
HETATM   27  C   UNL     1      -8.538   8.369  65.811  1.00  0.00    -0.181 A  
HETATM   28  C   UNL     1      -8.704   7.081  66.322  1.00  0.00    -0.154 A  
ENDBRANCH  20  23
ENDBRANCH  19  20
ENDBRANCH  18  19
ENDBRANCH  15  18
ENDBRANCH   7   8
ENDBRANCH   6   7
TORSDOF 6
ENDMDL
MODEL      217
REMARK 921   NORMALIZED FREE ENERGY PREDICTED BY IDOCK:   -4.30 KCAL/MOL
REMARK 922        TOTAL FREE ENERGY PREDICTED BY IDOCK:   -7.39 KCAL/MOL
REMARK 923 INTER-LIGAND FREE ENERGY PREDICTED BY IDOCK:   -6.54 KCAL/MOL
REMARK 924 INTRA-LIGAND FREE ENERGY PREDICTED BY IDOCK:   -0.84 KCAL/MOL
REMARK 927      BINDING AFFINITY PREDICTED BY RF-SCORE:    0.00 PKD
ROOT
HETATM    1  C   UNL     1      -5.673  19.071  69.274  1.00  0.00    -0.215 C  
HETATM    2  N   UNL     1      -6.967  18.724  68.694  1.00  0.00    -0.273 NA 
HETATM    3  C   UNL     1      -7.395  19.739  67.725  1.00  0.00    -0.279 C  
HETATM    4  C   UNL     1      -8.329  18.990  66.801  1.00  0.00    -0.298 C  
HETATM    5  C   UNL     1      -7.654  17.642  66.660  1.00  0.00    -0.273 C  
HETATM    6  C   UNL     1      -6.952  17.410  68.006  1.00  0.00    -0.186 C  
ENDROOT
BRANCH   6   7
HETATM    7  C   UNL     1      -7.657  16.341  68.881  1.00  0.00    -0.212 C  
BRANCH   7   8
HETATM    8  C   UNL     1      -6.712  15.376  69.547  1.00  0.00    -0.174 A  
HETATM    9  C   UNL     1      -5.770  15.671  70.513  1.00  0.00    -0.082 A  
HETATM   10  N   UNL     1      -5.195  14.498  70.933  1.00  0.00    -0.122 NA 
HETATM   11  C   UNL     1      -5.760  13.431  70.274  1.00  0.00    -0.154 A  
HETATM   12  H   UNL     1      -4.456  14.427  71.633  1.00  0.00     0.000 HD 
HETATM   13  C   UNL     1      -6.656  13.962  69.351  1.00  0.00    -0.114 A  
HETATM   14  C   UNL     1      -7.352  13.077  68.508  1.00  0.00    -0.115 A  
HETATM   15  C   UNL     1      -7.230  11.689  68.659  1.00  0.00    -0.104 A  
HETATM   16  C   UNL     1      -6.343  11.196  69.627  1.00  0.00    -0.119 A  
HETATM   17  C   UNL     1      -5.570  12.054  70.427  1.00  0.00    -0.160 A  
BRANCH  15  18
HETATM   18  C   UNL     1      -8.132  10.739  67.894  1.00  0.00    -0.112 C  
BRANCH  18  19
HETATM   19  C   UNL     1      -8.674  11.308  66.589  1.00  0.00    -0.174 C  
BRANCH  19  20
HETATM   20  S   UNL     1     -10.172  10.499  66.074  1.00  0.00    -0.222 S  
HETATM   21  O   UNL     1     -10.866  10.028  67.255  1.00  0.00    -0.270 OA 
HETATM   22  O   UNL     1      -9.864   9.609  64.976  1.00  0.00    -0.268 OA 
BRANCH  20  23
HETATM   23  C   UNL     1     -11.105  11.869  65.418  1.00  0.00    -0.306 A  
HETATM   24  C   UNL     1     -11.210  12.024  64.031  1.00  0.00    -0.468 A  
HETATM   25  C   UNL     1     -11.904  13.117  63.517  1.00  0.00    -0.539 A  
HETATM   26  C   UNL     1     -12.492  14.042  64.381  1.00  0.00    -0.326 A  
HETATM   27  C   UNL     1     -12.399  13.874  65.764  1.00  0.00    -0.518 A  
HETATM   28  C   UNL     1     -11.707  12.782  66.290  1.00  0.00    -0.460 A  
ENDBRANCH  20  23
ENDBRANCH  19  20
ENDBRANCH  18  19
ENDBRANCH  15  18
ENDBRANCH   7   8
ENDBRANCH   6   7
TORSDOF 6
ENDMDL
MODEL      218
REMARK 921   NORMALIZED FREE ENERGY PREDICTED BY IDOCK:   -4.29 KCAL/MOL
REMARK 922        TOTAL FREE ENERGY PREDICTED BY IDOCK:   -7.37 KCAL/MOL
REMARK 923 INTER-LIGAND FREE ENERGY PREDICTED BY IDOCK:   -6.56 KCAL/MOL
REMARK 924 INTRA-LIGAND FREE ENERGY PREDICTED BY IDOCK:   -0.81 KCAL/MOL
REMARK 927      BINDING AFFINITY PREDICTED BY RF-SCORE:    0.00 PKD
ROOT
HETATM    1  C   UNL     1      -7.769   4.039  68.973  1.00  0.00    -0.053 C  
HETATM    2  N   UNL     1      -8.120   5.150  68.093  1.00  0.00    -0.094 NA 
HETATM    3  C   UNL     1      -8.330   4.682  66.718  1.00  0.00    -0.106 C  
HETATM    4  C   UNL     1      -9.253   5.718  66.117  1.00  0.00    -0.169 C  
HETATM    5  C   UNL     1     -10.195   6.034  67.259  1.00  0.00    -0.239 C  
HETATM    6  C   UNL     1      -9.348   5.859  68.528  1.00  0.00    -0.120 C  
ENDROOT
BRANCH   6   7
HETATM    7  C   UNL     1      -8.977   7.207  69.199  1.00  0.00    -0.138 C  
BRANCH   7   8
HETATM    8  C   UNL     1      -9.966   7.665  70.239  1.00  0.00    -0.189 A  
HETATM    9  C   UNL     1     -10.193   7.094  71.476  1.00  0.00    -0.197 A  
HETATM   10  N   UNL     1     -11.091   7.876  72.158  1.00  0.00    -0.272 NA 
HETATM   11  C   UNL     1     -11.444   8.965  71.396  1.00  0.00    -0.311 A  
HETATM   12  H   UNL     1     -11.446   7.678  73.094  1.00  0.00     0.000 HD 
HETATM   13  C   UNL     1     -10.811   8.814  70.167  1.00  0.00    -0.241 A  
HETATM   14  C   UNL     1     -11.035   9.785  69.174  1.00  0.00    -0.205 A  
HETATM   15  C   UNL     1     -11.792  10.934  69.444  1.00  0.00    -0.400 A  
HETATM   16  C   UNL     1     -12.382  11.064  70.710  1.00  0.00    -0.496 A  
HETATM   17  C   UNL     1     -12.247  10.071  71.694  1.00  0.00    -0.456 A  
BRANCH  15  18
HETATM   18  C   UNL     1     -11.862  12.075  68.448  1.00  0.00    -0.360 C  
BRANCH  18  19
HETATM   19  C   UNL     1     -10.932  13.239  68.765  1.00  0.00    -0.260 C  
BRANCH  19  20
HETATM   20  S   UNL     1      -9.656  13.434  67.541  1.00  0.00    -0.229 S  
HETATM   21  O   UNL     1     -10.176  12.986  66.265  1.00  0.00    -0.274 OA 
HETATM   22  O   UNL     1      -8.418  12.912  68.075  1.00  0.00    -0.159 OA 
BRANCH  20  23
HETATM   23  C   UNL     1      -9.510  15.209  67.463  1.00  0.00    -0.206 A  
HETATM   24  C   UNL     1      -8.279  15.779  67.122  1.00  0.00    -0.237 A  
HETATM   25  C   UNL     1      -8.151  17.167  67.102  1.00  0.00    -0.215 A  
HETATM   26  C   UNL     1      -9.246  17.975  67.413  1.00  0.00    -0.253 A  
HETATM   27  C   UNL     1     -10.477  17.400  67.737  1.00  0.00    -0.376 A  
HETATM   28  C   UNL     1     -10.616  16.012  67.760  1.00  0.00    -0.309 A  
ENDBRANCH  20  23
ENDBRANCH  19  20
ENDBRANCH  18  19
ENDBRANCH  15  18
ENDBRANCH   7   8
ENDBRANCH   6   7
TORSDOF 6
ENDMDL
MODEL      219
REMARK 921   NORMALIZED FREE ENERGY PREDICTED BY IDOCK:   -4.26 KCAL/MOL
REMARK 922        TOTAL FREE ENERGY PREDICTED BY IDOCK:   -7.33 KCAL/MOL
REMARK 923 INTER-LIGAND FREE ENERGY PREDICTED BY IDOCK:   -5.51 KCAL/MOL
REMARK 924 INTRA-LIGAND FREE ENERGY PREDICTED BY IDOCK:   -1.82 KCAL/MOL
REMARK 927      BINDING AFFINITY PREDICTED BY RF-SCORE:    0.00 PKD
ROOT
HETATM    1  C   UNL     1     -10.094   4.380  65.742  1.00  0.00    -0.245 C  
HETATM    2  N   UNL     1      -9.827   5.501  66.638  1.00  0.00    -0.157 NA 
HETATM    3  C   UNL     1     -11.076   6.170  67.025  1.00  0.00    -0.245 C  
HETATM    4  C   UNL     1     -10.744   6.820  68.350  1.00  0.00    -0.284 C  
HETATM    5  C   UNL     1      -9.871   5.784  69.025  1.00  0.00    -0.204 C  
HETATM    6  C   UNL     1      -9.125   5.089  67.877  1.00  0.00    -0.114 C  
ENDROOT
BRANCH   6   7
HETATM    7  C   UNL     1      -7.628   5.487  67.799  1.00  0.00    -0.088 C  
BRANCH   7   8
HETATM    8  C   UNL     1      -7.218   6.071  66.473  1.00  0.00    -0.073 A  
HETATM    9  C   UNL     1      -6.595   5.410  65.432  1.00  0.00    -0.040 A  
HETATM   10  N   UNL     1      -6.497   6.270  64.367  1.00  0.00    -0.033 NA 
HETATM   11  C   UNL     1      -7.066   7.482  64.683  1.00  0.00    -0.064 A  
HETATM   12  H   UNL     1      -6.065   6.044  63.471  1.00  0.00     0.000 HD 
HETATM   13  C   UNL     1      -7.456   7.404  66.016  1.00  0.00    -0.083 A  
HETATM   14  C   UNL     1      -8.041   8.536  66.610  1.00  0.00    -0.104 A  
HETATM   15  C   UNL     1      -8.324   9.684  65.856  1.00  0.00    -0.124 A  
HETATM   16  C   UNL     1      -7.948   9.705  64.505  1.00  0.00    -0.140 A  
HETATM   17  C   UNL     1      -7.285   8.622  63.904  1.00  0.00    -0.096 A  
BRANCH  15  18
HETATM   18  C   UNL     1      -9.138  10.821  66.441  1.00  0.00    -0.188 C  
BRANCH  18  19
HETATM   19  C   UNL     1     -10.479  10.393  67.024  1.00  0.00    -0.251 C  
BRANCH  19  20
HETATM   20  S   UNL     1     -10.961  11.399  68.410  1.00  0.00    -0.237 S  
HETATM   21  O   UNL     1     -12.399  11.567  68.373  1.00  0.00    -0.461 OA 
HETATM   22  O   UNL     1     -10.071  12.536  68.490  1.00  0.00    -0.221 OA 
BRANCH  20  23
HETATM   23  C   UNL     1     -10.586  10.318  69.778  1.00  0.00    -0.271 A  
HETATM   24  C   UNL     1      -9.285   9.827  69.925  1.00  0.00    -0.263 A  
HETATM   25  C   UNL     1      -9.000   8.950  70.969  1.00  0.00    -0.298 A  
HETATM   26  C   UNL     1     -10.006   8.573  71.860  1.00  0.00    -0.365 A  
HETATM   27  C   UNL     1     -11.299   9.079  71.719  1.00  0.00    -0.447 A  
HETATM   28  C   UNL     1     -11.596   9.959  70.677  1.00  0.00    -0.413 A  
ENDBRANCH  20  23
ENDBRANCH  19  20
ENDBRANCH  18  19
ENDBRANCH  15  18
ENDBRANCH   7   8
ENDBRANCH   6   7
TORSDOF 6
ENDMDL
MODEL      220
REMARK 921   NORMALIZED FREE ENERGY PREDICTED BY IDOCK:   -4.26 KCAL/MOL
REMARK 922        TOTAL FREE ENERGY PREDICTED BY IDOCK:   -7.33 KCAL/MOL
REMARK 923 INTER-LIGAND FREE ENERGY PREDICTED BY IDOCK:   -6.07 KCAL/MOL
REMARK 924 INTRA-LIGAND FREE ENERGY PREDICTED BY IDOCK:   -1.26 KCAL/MOL
REMARK 927      BINDING AFFINITY PREDICTED BY RF-SCORE:    0.00 PKD
ROOT
HETATM    1  C   UNL     1      -7.818  13.962  66.989  1.00  0.00     0.127 C  
HETATM    2  N   UNL     1      -7.424  13.676  68.366  1.00  0.00    -0.115 NA 
HETATM    3  C   UNL     1      -6.956  12.291  68.499  1.00  0.00    -0.092 C  
HETATM    4  C   UNL     1      -6.039  12.331  69.700  1.00  0.00    -0.132 C  
HETATM    5  C   UNL     1      -5.324  13.655  69.535  1.00  0.00    -0.085 C  
HETATM    6  C   UNL     1      -6.346  14.572  68.851  1.00  0.00    -0.089 C  
ENDROOT
BRANCH   6   7
HETATM    7  C   UNL     1      -6.933  15.645  69.805  1.00  0.00    -0.119 C  
BRANCH   7   8
HETATM    8  C   UNL     1      -6.569  17.058  69.434  1.00  0.00    -0.225 A  
HETATM    9  C   UNL     1      -5.429  17.745  69.803  1.00  0.00    -0.217 A  
HETATM   10  N   UNL     1      -5.430  18.962  69.168  1.00  0.00    -0.200 NA 
HETATM   11  C   UNL     1      -6.543  19.079  68.369  1.00  0.00    -0.248 A  
HETATM   12  H   UNL     1      -4.709  19.676  69.273  1.00  0.00     0.000 HD 
HETATM   13  C   UNL     1      -7.305  17.933  68.577  1.00  0.00    -0.268 A  
HETATM   14  C   UNL     1      -8.532  17.812  67.901  1.00  0.00    -0.245 A  
HETATM   15  C   UNL     1      -8.934  18.769  66.958  1.00  0.00    -0.299 A  
HETATM   16  C   UNL     1      -8.117  19.890  66.752  1.00  0.00    -0.349 A  
HETATM   17  C   UNL     1      -6.928  20.081  67.474  1.00  0.00    -0.284 A  
BRANCH  15  18
HETATM   18  C   UNL     1     -10.150  18.537  66.081  1.00  0.00    -0.391 C  
BRANCH  18  19
HETATM   19  C   UNL     1     -10.956  17.297  66.447  1.00  0.00     0.222 C  
BRANCH  19  20
HETATM   20  S   UNL     1     -10.825  16.022  65.213  1.00  0.00    -0.307 S  
HETATM   21  O   UNL     1      -9.431  15.886  64.843  1.00  0.00     0.115 OA 
HETATM   22  O   UNL     1     -11.853  16.233  64.218  1.00  0.00    -0.670 OA 
BRANCH  20  23
HETATM   23  C   UNL     1     -11.270  14.574  66.154  1.00  0.00    -0.339 A  
HETATM   24  C   UNL     1     -11.602  14.711  67.506  1.00  0.00    -0.396 A  
HETATM   25  C   UNL     1     -11.909  13.576  68.252  1.00  0.00    -0.401 A  
HETATM   26  C   UNL     1     -11.890  12.316  67.651  1.00  0.00    -0.334 A  
HETATM   27  C   UNL     1     -11.574  12.186  66.297  1.00  0.00    -0.424 A  
HETATM   28  C   UNL     1     -11.265  13.317  65.539  1.00  0.00    -0.307 A  
ENDBRANCH  20  23
ENDBRANCH  19  20
ENDBRANCH  18  19
ENDBRANCH  15  18
ENDBRANCH   7   8
ENDBRANCH   6   7
TORSDOF 6
ENDMDL
MODEL      221
REMARK 921   NORMALIZED FREE ENERGY PREDICTED BY IDOCK:   -4.24 KCAL/MOL
REMARK 922        TOTAL FREE ENERGY PREDICTED BY IDOCK:   -7.30 KCAL/MOL
REMARK 923 INTER-LIGAND FREE ENERGY PREDICTED BY IDOCK:   -5.92 KCAL/MOL
REMARK 924 INTRA-LIGAND FREE ENERGY PREDICTED BY IDOCK:   -1.38 KCAL/MOL
REMARK 927      BINDING AFFINITY PREDICTED BY RF-SCORE:    0.00 PKD
ROOT
HETATM    1  C   UNL     1      -7.707  19.045  68.813  1.00  0.00    -0.347 C  
HETATM    2  N   UNL     1      -9.037  18.726  68.300  1.00  0.00    -0.313 NA 
HETATM    3  C   UNL     1      -9.787  19.951  67.995  1.00  0.00    -0.412 C  
HETATM    4  C   UNL     1     -10.785  19.514  66.946  1.00  0.00    -0.576 C  
HETATM    5  C   UNL     1      -9.983  18.551  66.097  1.00  0.00    -0.341 C  
HETATM    6  C   UNL     1      -8.992  17.898  67.070  1.00  0.00    -0.250 C  
ENDROOT
BRANCH   6   7
HETATM    7  C   UNL     1      -9.353  16.427  67.405  1.00  0.00    -0.223 C  
BRANCH   7   8
HETATM    8  C   UNL     1      -8.179  15.485  67.361  1.00  0.00    -0.199 A  
HETATM    9  C   UNL     1      -6.846  15.813  67.512  1.00  0.00    -0.189 A  
HETATM   10  N   UNL     1      -6.110  14.654  67.516  1.00  0.00    -0.345 NA 
HETATM   11  C   UNL     1      -6.941  13.565  67.393  1.00  0.00    -0.070 A  
HETATM   12  H   UNL     1      -5.094  14.608  67.600  1.00  0.00     0.000 HD 
HETATM   13  C   UNL     1      -8.228  14.064  67.220  1.00  0.00    -0.187 A  
HETATM   14  C   UNL     1      -9.280  13.150  67.030  1.00  0.00    -0.233 A  
HETATM   15  C   UNL     1      -9.062  11.768  67.117  1.00  0.00    -0.175 A  
HETATM   16  C   UNL     1      -7.754  11.310  67.330  1.00  0.00    -0.138 A  
HETATM   17  C   UNL     1      -6.669  12.195  67.438  1.00  0.00    -0.143 A  
BRANCH  15  18
HETATM   18  C   UNL     1     -10.223  10.793  67.119  1.00  0.00    -0.255 C  
BRANCH  18  19
HETATM   19  C   UNL     1     -10.732  10.432  68.509  1.00  0.00    -0.221 C  
BRANCH  19  20
HETATM   20  S   UNL     1     -10.478   8.713  68.893  1.00  0.00    -0.154 S  
HETATM   21  O   UNL     1     -10.635   7.946  67.674  1.00  0.00    -0.240 OA 
HETATM   22  O   UNL     1     -11.225   8.390  70.089  1.00  0.00    -0.233 OA 
BRANCH  20  23
HETATM   23  C   UNL     1      -8.745   8.698  69.313  1.00  0.00    -0.133 A  
HETATM   24  C   UNL     1      -8.286   9.518  70.348  1.00  0.00    -0.220 A  
HETATM   25  C   UNL     1      -6.925   9.538  70.650  1.00  0.00    -0.121 A  
HETATM   26  C   UNL     1      -6.036   8.741  69.928  1.00  0.00    -0.031 A  
HETATM   27  C   UNL     1      -6.503   7.913  68.906  1.00  0.00    -0.048 A  
HETATM   28  C   UNL     1      -7.863   7.884  68.595  1.00  0.00    -0.119 A  
ENDBRANCH  20  23
ENDBRANCH  19  20
ENDBRANCH  18  19
ENDBRANCH  15  18
ENDBRANCH   7   8
ENDBRANCH   6   7
TORSDOF 6
ENDMDL
MODEL      222
REMARK 921   NORMALIZED FREE ENERGY PREDICTED BY IDOCK:   -4.23 KCAL/MOL
REMARK 922        TOTAL FREE ENERGY PREDICTED BY IDOCK:   -7.29 KCAL/MOL
REMARK 923 INTER-LIGAND FREE ENERGY PREDICTED BY IDOCK:   -6.30 KCAL/MOL
REMARK 924 INTRA-LIGAND FREE ENERGY PREDICTED BY IDOCK:   -0.99 KCAL/MOL
REMARK 927      BINDING AFFINITY PREDICTED BY RF-SCORE:    0.00 PKD
ROOT
HETATM    1  C   UNL     1      -8.845   3.271  66.259  1.00  0.00    -0.140 C  
HETATM    2  N   UNL     1      -9.267   4.651  66.485  1.00  0.00    -0.125 NA 
HETATM    3  C   UNL     1     -10.647   4.857  66.028  1.00  0.00    -0.261 C  
HETATM    4  C   UNL     1     -11.134   6.025  66.855  1.00  0.00    -0.253 C  
HETATM    5  C   UNL     1     -10.521   5.756  68.214  1.00  0.00    -0.281 C  
HETATM    6  C   UNL     1      -9.194   5.045  67.913  1.00  0.00    -0.119 C  
ENDROOT
BRANCH   6   7
HETATM    7  C   UNL     1      -7.956   5.947  68.155  1.00  0.00    -0.109 C  
BRANCH   7   8
HETATM    8  C   UNL     1      -7.500   6.701  66.933  1.00  0.00    -0.087 A  
HETATM    9  C   UNL     1      -6.607   6.264  65.974  1.00  0.00    -0.048 A  
HETATM   10  N   UNL     1      -6.550   7.202  64.974  1.00  0.00    -0.046 NA 
HETATM   11  C   UNL     1      -7.408   8.241  65.249  1.00  0.00    -0.081 A  
HETATM   12  H   UNL     1      -5.956   7.139  64.146  1.00  0.00     0.000 HD 
HETATM   13  C   UNL     1      -7.956   7.984  66.502  1.00  0.00    -0.102 A  
HETATM   14  C   UNL     1      -8.852   8.922  67.046  1.00  0.00    -0.138 A  
HETATM   15  C   UNL     1      -9.269  10.037  66.305  1.00  0.00    -0.199 A  
HETATM   16  C   UNL     1      -8.719  10.237  65.031  1.00  0.00    -0.195 A  
HETATM   17  C   UNL     1      -7.759   9.365  64.495  1.00  0.00    -0.118 A  
BRANCH  15  18
HETATM   18  C   UNL     1     -10.386  10.932  66.806  1.00  0.00    -0.289 C  
BRANCH  18  19
HETATM   19  C   UNL     1     -10.081  11.636  68.122  1.00  0.00    -0.196 C  
BRANCH  19  20
HETATM   20  S   UNL     1     -11.040  13.119  68.330  1.00  0.00    -0.284 S  
HETATM   21  O   UNL     1     -12.005  13.194  67.252  1.00  0.00    -0.370 OA 
HETATM   22  O   UNL     1     -10.142  14.217  68.615  1.00  0.00    -0.232 OA 
BRANCH  20  23
HETATM   23  C   UNL     1     -11.940  12.751  69.825  1.00  0.00    -0.292 A  
HETATM   24  C   UNL     1     -12.142  11.416  70.190  1.00  0.00    -0.439 A  
HETATM   25  C   UNL     1     -12.880  11.126  71.335  1.00  0.00    -0.544 A  
HETATM   26  C   UNL     1     -13.405  12.161  72.111  1.00  0.00    -0.438 A  
HETATM   27  C   UNL     1     -13.187  13.492  71.751  1.00  0.00    -0.490 A  
HETATM   28  C   UNL     1     -12.448  13.794  70.606  1.00  0.00    -0.429 A  
ENDBRANCH  20  23
ENDBRANCH  19  20
ENDBRANCH  18  19
ENDBRANCH  15  18
ENDBRANCH   7   8
ENDBRANCH   6   7
TORSDOF 6
ENDMDL
MODEL      223
REMARK 921   NORMALIZED FREE ENERGY PREDICTED BY IDOCK:   -4.21 KCAL/MOL
REMARK 922        TOTAL FREE ENERGY PREDICTED BY IDOCK:   -7.26 KCAL/MOL
REMARK 923 INTER-LIGAND FREE ENERGY PREDICTED BY IDOCK:   -6.20 KCAL/MOL
REMARK 924 INTRA-LIGAND FREE ENERGY PREDICTED BY IDOCK:   -1.07 KCAL/MOL
REMARK 927      BINDING AFFINITY PREDICTED BY RF-SCORE:    0.00 PKD
ROOT
HETATM    1  C   UNL     1     -12.448  15.133  64.398  1.00  0.00    -0.089 C  
HETATM    2  N   UNL     1     -11.931  14.081  65.270  1.00  0.00    -0.360 NA 
HETATM    3  C   UNL     1     -12.527  12.783  64.932  1.00  0.00    -0.497 C  
HETATM    4  C   UNL     1     -11.505  11.778  65.413  1.00  0.00    -0.239 C  
HETATM    5  C   UNL     1     -10.189  12.439  65.059  1.00  0.00    -0.306 C  
HETATM    6  C   UNL     1     -10.457  13.945  65.190  1.00  0.00    -0.393 C  
ENDROOT
BRANCH   6   7
HETATM    7  C   UNL     1      -9.794  14.571  66.444  1.00  0.00    -0.306 C  
BRANCH   7   8
HETATM    8  C   UNL     1     -10.732  14.744  67.609  1.00  0.00    -0.270 A  
HETATM    9  C   UNL     1     -11.404  15.896  67.969  1.00  0.00    -0.284 A  
HETATM   10  N   UNL     1     -12.238  15.603  69.020  1.00  0.00    -0.594 NA 
HETATM   11  C   UNL     1     -12.140  14.270  69.343  1.00  0.00    -0.318 A  
HETATM   12  H   UNL     1     -12.842  16.276  69.491  1.00  0.00     0.000 HD 
HETATM   13  C   UNL     1     -11.152  13.731  68.525  1.00  0.00    -0.292 A  
HETATM   14  C   UNL     1     -10.822  12.373  68.678  1.00  0.00    -0.273 A  
HETATM   15  C   UNL     1     -11.539  11.550  69.558  1.00  0.00    -0.400 A  
HETATM   16  C   UNL     1     -12.553  12.126  70.337  1.00  0.00    -0.111 A  
HETATM   17  C   UNL     1     -12.849  13.497  70.268  1.00  0.00    -0.005 A  
BRANCH  15  18
HETATM   18  C   UNL     1     -11.323  10.049  69.572  1.00  0.00    -0.220 C  
BRANCH  18  19
HETATM   19  C   UNL     1     -10.160   9.593  70.445  1.00  0.00    -0.276 C  
BRANCH  19  20
HETATM   20  S   UNL     1      -9.751   7.882  70.180  1.00  0.00    -0.180 S  
HETATM   21  O   UNL     1     -10.590   7.372  69.115  1.00  0.00    -0.217 OA 
HETATM   22  O   UNL     1      -9.676   7.220  71.464  1.00  0.00    -0.161 OA 
BRANCH  20  23
HETATM   23  C   UNL     1      -8.093   8.011  69.537  1.00  0.00    -0.120 A  
HETATM   24  C   UNL     1      -7.060   7.306  70.164  1.00  0.00    -0.065 A  
HETATM   25  C   UNL     1      -5.757   7.439  69.688  1.00  0.00    -0.023 A  
HETATM   26  C   UNL     1      -5.492   8.262  68.592  1.00  0.00    -0.036 A  
HETATM   27  C   UNL     1      -6.530   8.951  67.961  1.00  0.00    -0.057 A  
HETATM   28  C   UNL     1      -7.839   8.825  68.429  1.00  0.00    -0.104 A  
ENDBRANCH  20  23
ENDBRANCH  19  20
ENDBRANCH  18  19
ENDBRANCH  15  18
ENDBRANCH   7   8
ENDBRANCH   6   7
TORSDOF 6
ENDMDL
MODEL      224
REMARK 921   NORMALIZED FREE ENERGY PREDICTED BY IDOCK:   -4.21 KCAL/MOL
REMARK 922        TOTAL FREE ENERGY PREDICTED BY IDOCK:   -7.26 KCAL/MOL
REMARK 923 INTER-LIGAND FREE ENERGY PREDICTED BY IDOCK:   -6.57 KCAL/MOL
REMARK 924 INTRA-LIGAND FREE ENERGY PREDICTED BY IDOCK:   -0.70 KCAL/MOL
REMARK 927      BINDING AFFINITY PREDICTED BY RF-SCORE:    0.00 PKD
ROOT
HETATM    1  C   UNL     1      -6.156  10.921  66.309  1.00  0.00    -0.137 C  
HETATM    2  N   UNL     1      -6.688  10.284  67.510  1.00  0.00    -0.071 NA 
HETATM    3  C   UNL     1      -5.609   9.688  68.307  1.00  0.00    -0.040 C  
HETATM    4  C   UNL     1      -6.168   9.657  69.711  1.00  0.00    -0.045 C  
HETATM    5  C   UNL     1      -6.922  10.966  69.803  1.00  0.00    -0.121 C  
HETATM    6  C   UNL     1      -7.430  11.229  68.378  1.00  0.00    -0.108 C  
ENDROOT
BRANCH   6   7
HETATM    7  C   UNL     1      -8.958  11.004  68.229  1.00  0.00    -0.155 C  
BRANCH   7   8
HETATM    8  C   UNL     1      -9.685  12.153  67.581  1.00  0.00    -0.188 A  
HETATM    9  C   UNL     1     -11.019  12.197  67.227  1.00  0.00    -0.260 A  
HETATM   10  N   UNL     1     -11.306  13.458  66.768  1.00  0.00    -0.314 NA 
HETATM   11  C   UNL     1     -10.186  14.253  66.835  1.00  0.00    -0.266 A  
HETATM   12  H   UNL     1     -12.218  13.762  66.427  1.00  0.00     0.000 HD 
HETATM   13  C   UNL     1      -9.145  13.439  67.270  1.00  0.00    -0.222 A  
HETATM   14  C   UNL     1      -7.861  14.000  67.391  1.00  0.00    -0.188 A  
HETATM   15  C   UNL     1      -7.649  15.371  67.183  1.00  0.00    -0.238 A  
HETATM   16  C   UNL     1      -8.735  16.162  66.782  1.00  0.00    -0.273 A  
HETATM   17  C   UNL     1     -10.010  15.614  66.570  1.00  0.00    -0.287 A  
BRANCH  15  18
HETATM   18  C   UNL     1      -6.315  16.013  67.514  1.00  0.00    -0.200 C  
BRANCH  18  19
HETATM   19  C   UNL     1      -6.133  17.409  66.932  1.00  0.00    -0.177 C  
BRANCH  19  20
HETATM   20  S   UNL     1      -6.436  18.684  68.134  1.00  0.00    -0.215 S  
HETATM   21  O   UNL     1      -5.577  19.810  67.832  1.00  0.00    -0.197 OA 
HETATM   22  O   UNL     1      -6.458  18.084  69.450  1.00  0.00    -0.254 OA 
BRANCH  20  23
HETATM   23  C   UNL     1      -8.105  19.163  67.728  1.00  0.00    -0.278 A  
HETATM   24  C   UNL     1      -9.080  19.162  68.731  1.00  0.00    -0.397 A  
HETATM   25  C   UNL     1     -10.393  19.496  68.406  1.00  0.00    -0.486 A  
HETATM   26  C   UNL     1     -10.726  19.833  67.093  1.00  0.00    -0.547 A  
HETATM   27  C   UNL     1      -9.746  19.847  66.099  1.00  0.00    -0.527 A  
HETATM   28  C   UNL     1      -8.427  19.515  66.413  1.00  0.00    -0.373 A  
ENDBRANCH  20  23
ENDBRANCH  19  20
ENDBRANCH  18  19
ENDBRANCH  15  18
ENDBRANCH   7   8
ENDBRANCH   6   7
TORSDOF 6
ENDMDL
MODEL      225
REMARK 921   NORMALIZED FREE ENERGY PREDICTED BY IDOCK:   -4.20 KCAL/MOL
REMARK 922        TOTAL FREE ENERGY PREDICTED BY IDOCK:   -7.25 KCAL/MOL
REMARK 923 INTER-LIGAND FREE ENERGY PREDICTED BY IDOCK:   -6.16 KCAL/MOL
REMARK 924 INTRA-LIGAND FREE ENERGY PREDICTED BY IDOCK:   -1.09 KCAL/MOL
REMARK 927      BINDING AFFINITY PREDICTED BY RF-SCORE:    0.00 PKD
ROOT
HETATM    1  C   UNL     1     -11.352   6.747  67.628  1.00  0.00     0.042 C  
HETATM    2  N   UNL     1     -10.155   5.926  67.791  1.00  0.00    -0.145 NA 
HETATM    3  C   UNL     1     -10.176   5.223  69.080  1.00  0.00    -0.199 C  
HETATM    4  C   UNL     1      -9.298   4.014  68.848  1.00  0.00    -0.230 C  
HETATM    5  C   UNL     1      -9.658   3.601  67.437  1.00  0.00    -0.197 C  
HETATM    6  C   UNL     1     -10.005   4.913  66.719  1.00  0.00    -0.224 C  
ENDROOT
BRANCH   6   7
HETATM    7  C   UNL     1      -8.912   5.360  65.713  1.00  0.00    -0.161 C  
BRANCH   7   8
HETATM    8  C   UNL     1      -7.957   6.386  66.263  1.00  0.00    -0.111 A  
HETATM    9  C   UNL     1      -6.782   6.144  66.946  1.00  0.00    -0.061 A  
HETATM   10  N   UNL     1      -6.157   7.344  67.175  1.00  0.00    -0.044 NA 
HETATM   11  C   UNL     1      -6.893   8.373  66.634  1.00  0.00    -0.068 A  
HETATM   12  H   UNL     1      -5.274   7.457  67.674  1.00  0.00     0.000 HD 
HETATM   13  C   UNL     1      -8.056   7.805  66.125  1.00  0.00    -0.113 A  
HETATM   14  C   UNL     1      -9.015   8.653  65.541  1.00  0.00    -0.209 A  
HETATM   15  C   UNL     1      -8.764  10.022  65.376  1.00  0.00    -0.176 A  
HETATM   16  C   UNL     1      -7.561  10.546  65.871  1.00  0.00    -0.148 A  
HETATM   17  C   UNL     1      -6.621   9.741  66.535  1.00  0.00    -0.072 A  
BRANCH  15  18
HETATM   18  C   UNL     1      -9.702  10.895  64.565  1.00  0.00    -0.334 C  
BRANCH  18  19
HETATM   19  C   UNL     1     -11.126  10.951  65.103  1.00  0.00     0.155 C  
BRANCH  19  20
HETATM   20  S   UNL     1     -11.698  12.622  65.319  1.00  0.00    -0.399 S  
HETATM   21  O   UNL     1     -13.047  12.712  64.802  1.00  0.00    -0.852 OA 
HETATM   22  O   UNL     1     -10.659  13.527  64.880  1.00  0.00    -0.349 OA 
BRANCH  20  23
HETATM   23  C   UNL     1     -11.800  12.733  67.096  1.00  0.00    -0.350 A  
HETATM   24  C   UNL     1     -11.881  13.993  67.698  1.00  0.00    -0.430 A  
HETATM   25  C   UNL     1     -11.919  14.084  69.088  1.00  0.00    -0.400 A  
HETATM   26  C   UNL     1     -11.883  12.926  69.867  1.00  0.00    -0.373 A  
HETATM   27  C   UNL     1     -11.817  11.670  69.259  1.00  0.00    -0.396 A  
HETATM   28  C   UNL     1     -11.780  11.567  67.868  1.00  0.00    -0.317 A  
ENDBRANCH  20  23
ENDBRANCH  19  20
ENDBRANCH  18  19
ENDBRANCH  15  18
ENDBRANCH   7   8
ENDBRANCH   6   7
TORSDOF 6
ENDMDL
MODEL      226
REMARK 921   NORMALIZED FREE ENERGY PREDICTED BY IDOCK:   -4.19 KCAL/MOL
REMARK 922        TOTAL FREE ENERGY PREDICTED BY IDOCK:   -7.24 KCAL/MOL
REMARK 923 INTER-LIGAND FREE ENERGY PREDICTED BY IDOCK:   -5.91 KCAL/MOL
REMARK 924 INTRA-LIGAND FREE ENERGY PREDICTED BY IDOCK:   -1.33 KCAL/MOL
REMARK 927      BINDING AFFINITY PREDICTED BY RF-SCORE:    0.00 PKD
ROOT
HETATM    1  C   UNL     1      -9.685   7.849  66.310  1.00  0.00    -0.100 C  
HETATM    2  N   UNL     1      -8.920   8.853  65.575  1.00  0.00    -0.200 NA 
HETATM    3  C   UNL     1      -8.274   8.260  64.398  1.00  0.00    -0.127 C  
HETATM    4  C   UNL     1      -8.092   9.428  63.455  1.00  0.00    -0.157 C  
HETATM    5  C   UNL     1      -9.368  10.219  63.648  1.00  0.00    -0.338 C  
HETATM    6  C   UNL     1      -9.758   9.987  65.115  1.00  0.00    -0.311 C  
ENDROOT
BRANCH   6   7
HETATM    7  C   UNL     1      -9.513  11.229  66.010  1.00  0.00    -0.240 C  
BRANCH   7   8
HETATM    8  C   UNL     1     -10.472  11.348  67.166  1.00  0.00    -0.259 A  
HETATM    9  C   UNL     1     -11.026  10.314  67.894  1.00  0.00    -0.292 A  
HETATM   10  N   UNL     1     -11.756  10.849  68.925  1.00  0.00    -0.376 NA 
HETATM   11  C   UNL     1     -11.674  12.222  68.900  1.00  0.00    -0.328 A  
HETATM   12  H   UNL     1     -12.283  10.308  69.611  1.00  0.00     0.000 HD 
HETATM   13  C   UNL     1     -10.938  12.557  67.768  1.00  0.00    -0.270 A  
HETATM   14  C   UNL     1     -10.734  13.918  67.480  1.00  0.00    -0.271 A  
HETATM   15  C   UNL     1     -11.167  14.917  68.365  1.00  0.00    -0.304 A  
HETATM   16  C   UNL     1     -11.871  14.532  69.514  1.00  0.00    -0.374 A  
HETATM   17  C   UNL     1     -12.166  13.186  69.786  1.00  0.00    -0.266 A  
BRANCH  15  18
HETATM   18  C   UNL     1     -10.767  16.366  68.162  1.00  0.00    -0.336 C  
BRANCH  18  19
HETATM   19  C   UNL     1      -9.433  16.740  68.795  1.00  0.00    -0.259 C  
BRANCH  19  20
HETATM   20  S   UNL     1      -8.091  16.667  67.630  1.00  0.00    -0.174 S  
HETATM   21  O   UNL     1      -7.153  17.724  67.947  1.00  0.00    -0.196 OA 
HETATM   22  O   UNL     1      -8.639  16.518  66.300  1.00  0.00    -0.288 OA 
BRANCH  20  23
HETATM   23  C   UNL     1      -7.321  15.121  68.076  1.00  0.00    -0.123 A  
HETATM   24  C   UNL     1      -6.856  14.941  69.382  1.00  0.00    -0.164 A  
HETATM   25  C   UNL     1      -6.216  13.750  69.721  1.00  0.00    -0.126 A  
HETATM   26  C   UNL     1      -6.050  12.748  68.763  1.00  0.00    -0.071 A  
HETATM   27  C   UNL     1      -6.530  12.927  67.465  1.00  0.00    -0.162 A  
HETATM   28  C   UNL     1      -7.173  14.116  67.115  1.00  0.00     0.207 A  
ENDBRANCH  20  23
ENDBRANCH  19  20
ENDBRANCH  18  19
ENDBRANCH  15  18
ENDBRANCH   7   8
ENDBRANCH   6   7
TORSDOF 6
ENDMDL
MODEL      227
REMARK 921   NORMALIZED FREE ENERGY PREDICTED BY IDOCK:   -4.18 KCAL/MOL
REMARK 922        TOTAL FREE ENERGY PREDICTED BY IDOCK:   -7.22 KCAL/MOL
REMARK 923 INTER-LIGAND FREE ENERGY PREDICTED BY IDOCK:   -6.46 KCAL/MOL
REMARK 924 INTRA-LIGAND FREE ENERGY PREDICTED BY IDOCK:   -0.76 KCAL/MOL
REMARK 927      BINDING AFFINITY PREDICTED BY RF-SCORE:    0.00 PKD
ROOT
HETATM    1  C   UNL     1     -10.645  20.136  65.489  1.00  0.00    -0.127 C  
HETATM    2  N   UNL     1      -9.879  19.900  66.709  1.00  0.00    -0.395 NA 
HETATM    3  C   UNL     1     -10.666  20.253  67.897  1.00  0.00     0.045 C  
HETATM    4  C   UNL     1     -10.061  19.409  68.997  1.00  0.00    -0.417 C  
HETATM    5  C   UNL     1      -9.772  18.098  68.297  1.00  0.00    -0.344 C  
HETATM    6  C   UNL     1      -9.445  18.489  66.849  1.00  0.00    -0.298 C  
ENDROOT
BRANCH   6   7
HETATM    7  C   UNL     1      -7.937  18.358  66.512  1.00  0.00    -0.294 C  
BRANCH   7   8
HETATM    8  C   UNL     1      -7.109  17.778  67.629  1.00  0.00    -0.194 A  
HETATM    9  C   UNL     1      -6.307  18.471  68.514  1.00  0.00    -0.213 A  
HETATM   10  N   UNL     1      -5.815  17.587  69.440  1.00  0.00    -0.213 NA 
HETATM   11  C   UNL     1      -6.299  16.323  69.192  1.00  0.00    -0.168 A  
HETATM   12  H   UNL     1      -5.183  17.830  70.203  1.00  0.00     0.000 HD 
HETATM   13  C   UNL     1      -7.049  16.406  68.023  1.00  0.00    -0.146 A  
HETATM   14  C   UNL     1      -7.634  15.231  67.518  1.00  0.00    -0.212 A  
HETATM   15  C   UNL     1      -7.556  14.023  68.225  1.00  0.00    -0.135 A  
HETATM   16  C   UNL     1      -6.822  13.993  69.419  1.00  0.00    -0.083 A  
HETATM   17  C   UNL     1      -6.155  15.130  69.906  1.00  0.00    -0.147 A  
BRANCH  15  18
HETATM   18  C   UNL     1      -8.357  12.811  67.790  1.00  0.00    -0.177 C  
BRANCH  18  19
HETATM   19  C   UNL     1      -9.577  13.142  66.939  1.00  0.00    -0.248 C  
BRANCH  19  20
HETATM   20  S   UNL     1     -11.043  12.316  67.516  1.00  0.00    -0.294 S  
HETATM   21  O   UNL     1     -12.125  12.615  66.601  1.00  0.00    -0.519 OA 
HETATM   22  O   UNL     1     -11.173  12.543  68.939  1.00  0.00    -0.251 OA 
BRANCH  20  23
HETATM   23  C   UNL     1     -10.601  10.605  67.278  1.00  0.00    -0.263 A  
HETATM   24  C   UNL     1     -10.036  10.208  66.062  1.00  0.00    -0.317 A  
HETATM   25  C   UNL     1      -9.729   8.864  65.858  1.00  0.00    -0.259 A  
HETATM   26  C   UNL     1      -9.979   7.929  66.864  1.00  0.00    -0.332 A  
HETATM   27  C   UNL     1     -10.528   8.333  68.082  1.00  0.00    -0.226 A  
HETATM   28  C   UNL     1     -10.839   9.677  68.297  1.00  0.00    -0.230 A  
ENDBRANCH  20  23
ENDBRANCH  19  20
ENDBRANCH  18  19
ENDBRANCH  15  18
ENDBRANCH   7   8
ENDBRANCH   6   7
TORSDOF 6
ENDMDL
MODEL      228
REMARK 921   NORMALIZED FREE ENERGY PREDICTED BY IDOCK:   -4.17 KCAL/MOL
REMARK 922        TOTAL FREE ENERGY PREDICTED BY IDOCK:   -7.21 KCAL/MOL
REMARK 923 INTER-LIGAND FREE ENERGY PREDICTED BY IDOCK:   -6.51 KCAL/MOL
REMARK 924 INTRA-LIGAND FREE ENERGY PREDICTED BY IDOCK:   -0.71 KCAL/MOL
REMARK 927      BINDING AFFINITY PREDICTED BY RF-SCORE:    0.00 PKD
ROOT
HETATM    1  C   UNL     1      -8.169   3.050  67.510  1.00  0.00    -0.081 C  
HETATM    2  N   UNL     1      -8.299   4.504  67.488  1.00  0.00    -0.100 NA 
HETATM    3  C   UNL     1      -7.003   5.141  67.222  1.00  0.00    -0.065 C  
HETATM    4  C   UNL     1      -7.372   6.477  66.617  1.00  0.00    -0.078 C  
HETATM    5  C   UNL     1      -8.558   6.134  65.740  1.00  0.00    -0.153 C  
HETATM    6  C   UNL     1      -9.261   4.976  66.463  1.00  0.00    -0.135 C  
ENDROOT
BRANCH   6   7
HETATM    7  C   UNL     1     -10.592   5.401  67.136  1.00  0.00    -0.274 C  
BRANCH   7   8
HETATM    8  C   UNL     1     -10.424   5.957  68.525  1.00  0.00    -0.297 A  
HETATM    9  C   UNL     1     -10.164   5.243  69.679  1.00  0.00    -0.278 A  
HETATM   10  N   UNL     1      -9.976   6.132  70.707  1.00  0.00    -0.185 NA 
HETATM   11  C   UNL     1     -10.087   7.422  70.245  1.00  0.00    -0.197 A  
HETATM   12  H   UNL     1      -9.782   5.873  71.675  1.00  0.00     0.000 HD 
HETATM   13  C   UNL     1     -10.440   7.335  68.902  1.00  0.00    -0.216 A  
HETATM   14  C   UNL     1     -10.656   8.527  68.188  1.00  0.00    -0.181 A  
HETATM   15  C   UNL     1     -10.421   9.777  68.779  1.00  0.00    -0.240 A  
HETATM   16  C   UNL     1     -10.030   9.817  70.125  1.00  0.00    -0.315 A  
HETATM   17  C   UNL     1      -9.888   8.647  70.889  1.00  0.00    -0.256 A  
BRANCH  15  18
HETATM   18  C   UNL     1     -10.453  11.049  67.953  1.00  0.00    -0.223 C  
BRANCH  18  19
HETATM   19  C   UNL     1     -11.735  11.858  68.102  1.00  0.00    -0.320 C  
BRANCH  19  20
HETATM   20  S   UNL     1     -11.414  13.554  68.531  1.00  0.00    -0.335 S  
HETATM   21  O   UNL     1     -10.073  13.642  69.073  1.00  0.00    -0.104 OA 
HETATM   22  O   UNL     1     -12.554  14.075  69.252  1.00  0.00    -0.151 OA 
BRANCH  20  23
HETATM   23  C   UNL     1     -11.389  14.326  66.923  1.00  0.00    -0.343 A  
HETATM   24  C   UNL     1     -12.163  13.783  65.892  1.00  0.00    -0.501 A  
HETATM   25  C   UNL     1     -12.112  14.359  64.625  1.00  0.00    -0.485 A  
HETATM   26  C   UNL     1     -11.301  15.472  64.393  1.00  0.00    -0.260 A  
HETATM   27  C   UNL     1     -10.544  16.019  65.430  1.00  0.00    -0.428 A  
HETATM   28  C   UNL     1     -10.587  15.450  66.704  1.00  0.00    -0.306 A  
ENDBRANCH  20  23
ENDBRANCH  19  20
ENDBRANCH  18  19
ENDBRANCH  15  18
ENDBRANCH   7   8
ENDBRANCH   6   7
TORSDOF 6
ENDMDL
MODEL      229
REMARK 921   NORMALIZED FREE ENERGY PREDICTED BY IDOCK:   -4.15 KCAL/MOL
REMARK 922        TOTAL FREE ENERGY PREDICTED BY IDOCK:   -7.19 KCAL/MOL
REMARK 923 INTER-LIGAND FREE ENERGY PREDICTED BY IDOCK:   -6.26 KCAL/MOL
REMARK 924 INTRA-LIGAND FREE ENERGY PREDICTED BY IDOCK:   -0.93 KCAL/MOL
REMARK 927      BINDING AFFINITY PREDICTED BY RF-SCORE:    0.00 PKD
ROOT
HETATM    1  C   UNL     1     -13.343  13.994  72.527  1.00  0.00    -0.539 C  
HETATM    2  N   UNL     1     -13.176  13.758  71.096  1.00  0.00    -0.254 NA 
HETATM    3  C   UNL     1     -12.717  14.975  70.415  1.00  0.00    -0.325 C  
HETATM    4  C   UNL     1     -12.010  14.457  69.183  1.00  0.00    -0.357 C  
HETATM    5  C   UNL     1     -11.296  13.225  69.696  1.00  0.00    -0.191 C  
HETATM    6  C   UNL     1     -12.205  12.675  70.804  1.00  0.00    -0.240 C  
ENDROOT
BRANCH   6   7
HETATM    7  C   UNL     1     -12.955  11.383  70.387  1.00  0.00     0.060 C  
BRANCH   7   8
HETATM    8  C   UNL     1     -12.820  10.253  71.373  1.00  0.00    -0.544 A  
HETATM    9  C   UNL     1     -13.750   9.858  72.315  1.00  0.00    -0.165 A  
HETATM   10  N   UNL     1     -13.286   8.725  72.935  1.00  0.00    -0.837 NA 
HETATM   11  C   UNL     1     -12.075   8.354  72.400  1.00  0.00    -0.378 A  
HETATM   12  H   UNL     1     -13.771   8.229  73.684  1.00  0.00     0.000 HD 
HETATM   13  C   UNL     1     -11.730   9.335  71.476  1.00  0.00    -0.450 A  
HETATM   14  C   UNL     1     -10.502   9.218  70.802  1.00  0.00    -0.343 A  
HETATM   15  C   UNL     1      -9.687   8.089  70.974  1.00  0.00    -0.185 A  
HETATM   16  C   UNL     1     -10.092   7.106  71.888  1.00  0.00    -0.197 A  
HETATM   17  C   UNL     1     -11.271   7.235  72.639  1.00  0.00    -0.355 A  
BRANCH  15  18
HETATM   18  C   UNL     1      -8.471   7.864  70.097  1.00  0.00    -0.129 C  
BRANCH  18  19
HETATM   19  C   UNL     1      -7.548   6.752  70.582  1.00  0.00    -0.095 C  
BRANCH  19  20
HETATM   20  S   UNL     1      -7.725   5.265  69.622  1.00  0.00    -0.073 S  
HETATM   21  O   UNL     1      -9.054   4.734  69.844  1.00  0.00    -0.095 OA 
HETATM   22  O   UNL     1      -6.546   4.449  69.810  1.00  0.00    -0.031 OA 
BRANCH  20  23
HETATM   23  C   UNL     1      -7.680   5.910  67.960  1.00  0.00    -0.100 A  
HETATM   24  C   UNL     1      -6.478   6.415  67.455  1.00  0.00    -0.049 A  
HETATM   25  C   UNL     1      -6.450   6.957  66.172  1.00  0.00    -0.051 A  
HETATM   26  C   UNL     1      -7.613   6.988  65.400  1.00  0.00    -0.097 A  
HETATM   27  C   UNL     1      -8.807   6.467  65.903  1.00  0.00    -0.131 A  
HETATM   28  C   UNL     1      -8.846   5.921  67.187  1.00  0.00    -0.107 A  
ENDBRANCH  20  23
ENDBRANCH  19  20
ENDBRANCH  18  19
ENDBRANCH  15  18
ENDBRANCH   7   8
ENDBRANCH   6   7
TORSDOF 6
ENDMDL
MODEL      230
REMARK 921   NORMALIZED FREE ENERGY PREDICTED BY IDOCK:   -4.14 KCAL/MOL
REMARK 922        TOTAL FREE ENERGY PREDICTED BY IDOCK:   -7.17 KCAL/MOL
REMARK 923 INTER-LIGAND FREE ENERGY PREDICTED BY IDOCK:   -6.51 KCAL/MOL
REMARK 924 INTRA-LIGAND FREE ENERGY PREDICTED BY IDOCK:   -0.66 KCAL/MOL
REMARK 927      BINDING AFFINITY PREDICTED BY RF-SCORE:    0.00 PKD
ROOT
HETATM    1  C   UNL     1     -13.096  14.479  73.327  1.00  0.00    -0.329 C  
HETATM    2  N   UNL     1     -13.262  14.213  71.901  1.00  0.00    -0.360 NA 
HETATM    3  C   UNL     1     -12.813  15.358  71.100  1.00  0.00    -0.455 C  
HETATM    4  C   UNL     1     -12.447  14.747  69.766  1.00  0.00    -0.230 C  
HETATM    5  C   UNL     1     -11.796  13.438  70.161  1.00  0.00    -0.342 C  
HETATM    6  C   UNL     1     -12.513  13.015  71.451  1.00  0.00    -0.148 C  
ENDROOT
BRANCH   6   7
HETATM    7  C   UNL     1     -13.484  11.824  71.242  1.00  0.00     0.345 C  
BRANCH   7   8
HETATM    8  C   UNL     1     -12.909  10.490  71.638  1.00  0.00    -0.581 A  
HETATM    9  C   UNL     1     -13.377   9.645  72.624  1.00  0.00    -0.080 A  
HETATM   10  N   UNL     1     -12.641   8.487  72.591  1.00  0.00    -0.572 NA 
HETATM   11  C   UNL     1     -11.708   8.548  71.582  1.00  0.00    -0.306 A  
HETATM   12  H   UNL     1     -12.767   7.696  73.223  1.00  0.00     0.000 HD 
HETATM   13  C   UNL     1     -11.808   9.818  71.023  1.00  0.00    -0.442 A  
HETATM   14  C   UNL     1     -10.930  10.161  69.980  1.00  0.00    -0.364 A  
HETATM   15  C   UNL     1     -10.043   9.218  69.441  1.00  0.00    -0.200 A  
HETATM   16  C   UNL     1     -10.002   7.937  70.011  1.00  0.00    -0.191 A  
HETATM   17  C   UNL     1     -10.806   7.590  71.108  1.00  0.00    -0.254 A  
BRANCH  15  18
HETATM   18  C   UNL     1      -9.247   9.523  68.187  1.00  0.00    -0.134 C  
BRANCH  18  19
HETATM   19  C   UNL     1      -9.589   8.634  66.998  1.00  0.00    -0.182 C  
BRANCH  19  20
HETATM   20  S   UNL     1      -8.152   8.210  66.039  1.00  0.00    -0.118 S  
HETATM   21  O   UNL     1      -8.283   6.835  65.604  1.00  0.00    -0.122 OA 
HETATM   22  O   UNL     1      -6.975   8.670  66.741  1.00  0.00    -0.074 OA 
BRANCH  20  23
HETATM   23  C   UNL     1      -8.368   9.246  64.603  1.00  0.00    -0.161 A  
HETATM   24  C   UNL     1      -9.330  10.261  64.631  1.00  0.00    -0.320 A  
HETATM   25  C   UNL     1      -9.529  11.044  63.496  1.00  0.00    -0.315 A  
HETATM   26  C   UNL     1      -8.769  10.817  62.347  1.00  0.00    -0.331 A  
HETATM   27  C   UNL     1      -7.799   9.813  62.330  1.00  0.00    -0.128 A  
HETATM   28  C   UNL     1      -7.591   9.023  63.462  1.00  0.00    -0.111 A  
ENDBRANCH  20  23
ENDBRANCH  19  20
ENDBRANCH  18  19
ENDBRANCH  15  18
ENDBRANCH   7   8
ENDBRANCH   6   7
TORSDOF 6
ENDMDL
MODEL      231
REMARK 921   NORMALIZED FREE ENERGY PREDICTED BY IDOCK:   -4.12 KCAL/MOL
REMARK 922        TOTAL FREE ENERGY PREDICTED BY IDOCK:   -7.15 KCAL/MOL
REMARK 923 INTER-LIGAND FREE ENERGY PREDICTED BY IDOCK:   -6.27 KCAL/MOL
REMARK 924 INTRA-LIGAND FREE ENERGY PREDICTED BY IDOCK:   -0.88 KCAL/MOL
REMARK 927      BINDING AFFINITY PREDICTED BY RF-SCORE:    0.00 PKD
ROOT
HETATM    1  C   UNL     1     -10.708  16.989  65.683  1.00  0.00    -0.144 C  
HETATM    2  N   UNL     1      -9.851  17.697  66.630  1.00  0.00    -0.295 NA 
HETATM    3  C   UNL     1      -9.428  18.992  66.084  1.00  0.00    -0.234 C  
HETATM    4  C   UNL     1      -9.133  19.825  67.311  1.00  0.00    -0.413 C  
HETATM    5  C   UNL     1     -10.229  19.413  68.271  1.00  0.00    -0.535 C  
HETATM    6  C   UNL     1     -10.517  17.944  67.932  1.00  0.00    -0.396 C  
ENDROOT
BRANCH   6   7
HETATM    7  C   UNL     1      -9.979  16.958  69.002  1.00  0.00    -0.265 C  
BRANCH   7   8
HETATM    8  C   UNL     1      -8.643  16.354  68.659  1.00  0.00    -0.237 A  
HETATM    9  C   UNL     1      -7.400  16.923  68.856  1.00  0.00    -0.236 A  
HETATM   10  N   UNL     1      -6.441  16.004  68.512  1.00  0.00    -0.113 NA 
HETATM   11  C   UNL     1      -7.033  14.829  68.111  1.00  0.00    -0.125 A  
HETATM   12  H   UNL     1      -5.434  16.168  68.548  1.00  0.00     0.000 HD 
HETATM   13  C   UNL     1      -8.407  15.050  68.125  1.00  0.00    -0.142 A  
HETATM   14  C   UNL     1      -9.257  14.007  67.716  1.00  0.00    -0.195 A  
HETATM   15  C   UNL     1      -8.746  12.740  67.402  1.00  0.00    -0.196 A  
HETATM   16  C   UNL     1      -7.358  12.550  67.438  1.00  0.00    -0.147 A  
HETATM   17  C   UNL     1      -6.477  13.596  67.759  1.00  0.00    -0.178 A  
BRANCH  15  18
HETATM   18  C   UNL     1      -9.673  11.563  67.164  1.00  0.00    -0.199 C  
BRANCH  18  19
HETATM   19  C   UNL     1      -9.014  10.202  67.347  1.00  0.00    -0.134 C  
BRANCH  19  20
HETATM   20  S   UNL     1      -8.808   9.340  65.805  1.00  0.00    -0.190 S  
HETATM   21  O   UNL     1      -7.391   9.241  65.523  1.00  0.00    -0.088 OA 
HETATM   22  O   UNL     1      -9.732   9.893  64.839  1.00  0.00    -0.302 OA 
BRANCH  20  23
HETATM   23  C   UNL     1      -9.382   7.707  66.233  1.00  0.00    -0.131 A  
HETATM   24  C   UNL     1     -10.417   7.569  67.164  1.00  0.00    -0.407 A  
HETATM   25  C   UNL     1     -10.838   6.292  67.531  1.00  0.00    -0.436 A  
HETATM   26  C   UNL     1     -10.235   5.167  66.968  1.00  0.00    -0.265 A  
HETATM   27  C   UNL     1      -9.213   5.311  66.027  1.00  0.00    -0.163 A  
HETATM   28  C   UNL     1      -8.784   6.585  65.651  1.00  0.00    -0.102 A  
ENDBRANCH  20  23
ENDBRANCH  19  20
ENDBRANCH  18  19
ENDBRANCH  15  18
ENDBRANCH   7   8
ENDBRANCH   6   7
TORSDOF 6
ENDMDL
MODEL      232
REMARK 921   NORMALIZED FREE ENERGY PREDICTED BY IDOCK:   -4.12 KCAL/MOL
REMARK 922        TOTAL FREE ENERGY PREDICTED BY IDOCK:   -7.13 KCAL/MOL
REMARK 923 INTER-LIGAND FREE ENERGY PREDICTED BY IDOCK:   -6.60 KCAL/MOL
REMARK 924 INTRA-LIGAND FREE ENERGY PREDICTED BY IDOCK:   -0.54 KCAL/MOL
REMARK 927      BINDING AFFINITY PREDICTED BY RF-SCORE:    0.00 PKD
ROOT
HETATM    1  C   UNL     1      -8.575   8.498  71.869  1.00  0.00    -0.188 C  
HETATM    2  N   UNL     1      -9.979   8.323  71.511  1.00  0.00    -0.185 NA 
HETATM    3  C   UNL     1     -10.798   8.086  72.705  1.00  0.00    -0.369 C  
HETATM    4  C   UNL     1     -12.179   8.549  72.297  1.00  0.00    -0.454 C  
HETATM    5  C   UNL     1     -11.890   9.781  71.466  1.00  0.00    -0.476 C  
HETATM    6  C   UNL     1     -10.538   9.496  70.797  1.00  0.00    -0.317 C  
ENDROOT
BRANCH   6   7
HETATM    7  C   UNL     1     -10.666   9.189  69.282  1.00  0.00    -0.199 C  
BRANCH   7   8
HETATM    8  C   UNL     1     -11.102  10.368  68.453  1.00  0.00    -0.322 A  
HETATM    9  C   UNL     1     -11.789  11.483  68.893  1.00  0.00    -0.341 A  
HETATM   10  N   UNL     1     -11.893  12.369  67.850  1.00  0.00    -0.411 NA 
HETATM   11  C   UNL     1     -11.266  11.864  66.735  1.00  0.00    -0.327 A  
HETATM   12  H   UNL     1     -12.367  13.272  67.896  1.00  0.00     0.000 HD 
HETATM   13  C   UNL     1     -10.830  10.586  67.067  1.00  0.00    -0.288 A  
HETATM   14  C   UNL     1     -10.180   9.823  66.081  1.00  0.00    -0.278 A  
HETATM   15  C   UNL     1      -9.882  10.368  64.824  1.00  0.00    -0.406 A  
HETATM   16  C   UNL     1     -10.307  11.675  64.545  1.00  0.00    -0.349 A  
HETATM   17  C   UNL     1     -11.033  12.432  65.479  1.00  0.00    -0.328 A  
BRANCH  15  18
HETATM   18  C   UNL     1      -9.003   9.623  63.839  1.00  0.00    -0.254 C  
BRANCH  18  19
HETATM   19  C   UNL     1      -7.924   8.766  64.489  1.00  0.00    -0.141 C  
BRANCH  19  20
HETATM   20  S   UNL     1      -7.515   7.340  63.507  1.00  0.00    -0.106 S  
HETATM   21  O   UNL     1      -6.073   7.261  63.394  1.00  0.00    -0.047 OA 
HETATM   22  O   UNL     1      -8.365   7.325  62.336  1.00  0.00    -0.110 OA 
BRANCH  20  23
HETATM   23  C   UNL     1      -8.039   6.013  64.576  1.00  0.00    -0.126 A  
HETATM   24  C   UNL     1      -8.278   6.278  65.928  1.00  0.00    -0.129 A  
HETATM   25  C   UNL     1      -8.647   5.234  66.774  1.00  0.00    -0.106 A  
HETATM   26  C   UNL     1      -8.782   3.939  66.270  1.00  0.00    -0.115 A  
HETATM   27  C   UNL     1      -8.558   3.683  64.916  1.00  0.00    -0.109 A  
HETATM   28  C   UNL     1      -8.188   4.722  64.059  1.00  0.00    -0.119 A  
ENDBRANCH  20  23
ENDBRANCH  19  20
ENDBRANCH  18  19
ENDBRANCH  15  18
ENDBRANCH   7   8
ENDBRANCH   6   7
TORSDOF 6
ENDMDL
MODEL      233
REMARK 921   NORMALIZED FREE ENERGY PREDICTED BY IDOCK:   -4.11 KCAL/MOL
REMARK 922        TOTAL FREE ENERGY PREDICTED BY IDOCK:   -7.12 KCAL/MOL
REMARK 923 INTER-LIGAND FREE ENERGY PREDICTED BY IDOCK:   -5.31 KCAL/MOL
REMARK 924 INTRA-LIGAND FREE ENERGY PREDICTED BY IDOCK:   -1.81 KCAL/MOL
REMARK 927      BINDING AFFINITY PREDICTED BY RF-SCORE:    0.00 PKD
ROOT
HETATM    1  C   UNL     1      -8.860   4.986  66.348  1.00  0.00    -0.115 C  
HETATM    2  N   UNL     1      -9.278   6.385  66.374  1.00  0.00    -0.157 NA 
HETATM    3  C   UNL     1     -10.691   6.502  66.756  1.00  0.00    -0.273 C  
HETATM    4  C   UNL     1     -10.795   7.893  67.340  1.00  0.00    -0.172 C  
HETATM    5  C   UNL     1      -9.499   8.036  68.108  1.00  0.00    -0.152 C  
HETATM    6  C   UNL     1      -8.479   7.205  67.316  1.00  0.00    -0.122 C  
ENDROOT
BRANCH   6   7
HETATM    7  C   UNL     1      -7.462   8.077  66.536  1.00  0.00    -0.088 C  
BRANCH   7   8
HETATM    8  C   UNL     1      -7.918   8.457  65.151  1.00  0.00    -0.136 A  
HETATM    9  C   UNL     1      -7.713   7.746  63.986  1.00  0.00    -0.126 A  
HETATM   10  N   UNL     1      -8.380   8.378  62.967  1.00  0.00    -0.351 NA 
HETATM   11  C   UNL     1      -9.041   9.485  63.448  1.00  0.00    -0.107 A  
HETATM   12  H   UNL     1      -8.386   8.072  61.994  1.00  0.00     0.000 HD 
HETATM   13  C   UNL     1      -8.706   9.595  64.794  1.00  0.00    -0.219 A  
HETATM   14  C   UNL     1      -9.224  10.677  65.527  1.00  0.00    -0.228 A  
HETATM   15  C   UNL     1     -10.140  11.569  64.949  1.00  0.00    -0.314 A  
HETATM   16  C   UNL     1     -10.479  11.398  63.600  1.00  0.00    -0.472 A  
HETATM   17  C   UNL     1      -9.913  10.378  62.818  1.00  0.00     0.040 A  
BRANCH  15  18
HETATM   18  C   UNL     1     -10.855  12.607  65.792  1.00  0.00    -0.304 C  
BRANCH  18  19
HETATM   19  C   UNL     1     -11.601  12.033  66.990  1.00  0.00    -0.317 C  
BRANCH  19  20
HETATM   20  S   UNL     1     -11.240  12.913  68.493  1.00  0.00    -0.295 S  
HETATM   21  O   UNL     1     -11.618  12.077  69.614  1.00  0.00    -0.296 OA 
HETATM   22  O   UNL     1     -11.729  14.269  68.365  1.00  0.00    -0.302 OA 
BRANCH  20  23
HETATM   23  C   UNL     1      -9.459  12.972  68.448  1.00  0.00    -0.165 A  
HETATM   24  C   UNL     1      -8.819  14.203  68.270  1.00  0.00    -0.187 A  
HETATM   25  C   UNL     1      -7.428  14.245  68.194  1.00  0.00    -0.131 A  
HETATM   26  C   UNL     1      -6.686  13.068  68.301  1.00  0.00    -0.096 A  
HETATM   27  C   UNL     1      -7.328  11.844  68.494  1.00  0.00    -0.111 A  
HETATM   28  C   UNL     1      -8.721  11.790  68.573  1.00  0.00    -0.118 A  
ENDBRANCH  20  23
ENDBRANCH  19  20
ENDBRANCH  18  19
ENDBRANCH  15  18
ENDBRANCH   7   8
ENDBRANCH   6   7
TORSDOF 6
ENDMDL
MODEL      234
REMARK 921   NORMALIZED FREE ENERGY PREDICTED BY IDOCK:   -4.10 KCAL/MOL
REMARK 922        TOTAL FREE ENERGY PREDICTED BY IDOCK:   -7.11 KCAL/MOL
REMARK 923 INTER-LIGAND FREE ENERGY PREDICTED BY IDOCK:   -6.36 KCAL/MOL
REMARK 924 INTRA-LIGAND FREE ENERGY PREDICTED BY IDOCK:   -0.76 KCAL/MOL
REMARK 927      BINDING AFFINITY PREDICTED BY RF-SCORE:    0.00 PKD
ROOT
HETATM    1  C   UNL     1      -9.425  19.679  66.919  1.00  0.00    -0.358 C  
HETATM    2  N   UNL     1      -8.303  18.780  67.174  1.00  0.00    -0.266 NA 
HETATM    3  C   UNL     1      -7.436  19.313  68.232  1.00  0.00    -0.300 C  
HETATM    4  C   UNL     1      -6.763  18.085  68.804  1.00  0.00    -0.248 C  
HETATM    5  C   UNL     1      -7.874  17.056  68.795  1.00  0.00    -0.253 C  
HETATM    6  C   UNL     1      -8.739  17.422  67.580  1.00  0.00    -0.221 C  
ENDROOT
BRANCH   6   7
HETATM    7  C   UNL     1      -8.571  16.432  66.398  1.00  0.00    -0.358 C  
BRANCH   7   8
HETATM    8  C   UNL     1      -9.856  16.118  65.677  1.00  0.00    -0.290 A  
HETATM    9  C   UNL     1     -10.424  16.837  64.643  1.00  0.00     0.867 A  
HETATM   10  N   UNL     1     -11.529  16.158  64.196  1.00  0.00    -1.275 NA 
HETATM   11  C   UNL     1     -11.686  14.990  64.906  1.00  0.00    -0.336 A  
HETATM   12  H   UNL     1     -12.145  16.473  63.446  1.00  0.00     0.000 HD 
HETATM   13  C   UNL     1     -10.696  14.982  65.884  1.00  0.00    -0.337 A  
HETATM   14  C   UNL     1     -10.654  13.902  66.784  1.00  0.00    -0.277 A  
HETATM   15  C   UNL     1     -11.517  12.806  66.640  1.00  0.00    -0.404 A  
HETATM   16  C   UNL     1     -12.474  12.839  65.616  1.00  0.00    -0.341 A  
HETATM   17  C   UNL     1     -12.598  13.941  64.754  1.00  0.00    -0.329 A  
BRANCH  15  18
HETATM   18  C   UNL     1     -11.334  11.555  67.477  1.00  0.00    -0.366 C  
BRANCH  18  19
HETATM   19  C   UNL     1      -9.941  10.944  67.392  1.00  0.00    -0.186 C  
BRANCH  19  20
HETATM   20  S   UNL     1      -9.877   9.313  68.098  1.00  0.00    -0.169 S  
HETATM   21  O   UNL     1     -10.753   8.450  67.332  1.00  0.00    -0.269 OA 
HETATM   22  O   UNL     1      -9.998   9.425  69.535  1.00  0.00    -0.174 OA 
BRANCH  20  23
HETATM   23  C   UNL     1      -8.200   8.833  67.729  1.00  0.00    -0.111 A  
HETATM   24  C   UNL     1      -7.387   9.701  66.991  1.00  0.00    -0.087 A  
HETATM   25  C   UNL     1      -6.090   9.310  66.666  1.00  0.00    -0.064 A  
HETATM   26  C   UNL     1      -5.609   8.067  67.080  1.00  0.00    -0.037 A  
HETATM   27  C   UNL     1      -6.419   7.211  67.830  1.00  0.00    -0.048 A  
HETATM   28  C   UNL     1      -7.720   7.593  68.162  1.00  0.00    -0.119 A  
ENDBRANCH  20  23
ENDBRANCH  19  20
ENDBRANCH  18  19
ENDBRANCH  15  18
ENDBRANCH   7   8
ENDBRANCH   6   7
TORSDOF 6
ENDMDL
MODEL      235
REMARK 921   NORMALIZED FREE ENERGY PREDICTED BY IDOCK:   -4.09 KCAL/MOL
REMARK 922        TOTAL FREE ENERGY PREDICTED BY IDOCK:   -7.11 KCAL/MOL
REMARK 923 INTER-LIGAND FREE ENERGY PREDICTED BY IDOCK:   -6.38 KCAL/MOL
REMARK 924 INTRA-LIGAND FREE ENERGY PREDICTED BY IDOCK:   -0.73 KCAL/MOL
REMARK 927      BINDING AFFINITY PREDICTED BY RF-SCORE:    0.00 PKD
ROOT
HETATM    1  C   UNL     1      -7.192  19.716  66.573  1.00  0.00    -0.228 C  
HETATM    2  N   UNL     1      -8.582  19.452  66.935  1.00  0.00    -0.286 NA 
HETATM    3  C   UNL     1      -9.499  20.213  66.078  1.00  0.00    -0.246 C  
HETATM    4  C   UNL     1     -10.780  19.410  66.113  1.00  0.00    -0.506 C  
HETATM    5  C   UNL     1     -10.283  17.980  66.088  1.00  0.00    -0.364 C  
HETATM    6  C   UNL     1      -8.939  18.017  66.829  1.00  0.00    -0.269 C  
ENDROOT
BRANCH   6   7
HETATM    7  C   UNL     1      -9.008  17.379  68.241  1.00  0.00    -0.268 C  
BRANCH   7   8
HETATM    8  C   UNL     1      -7.776  16.601  68.621  1.00  0.00    -0.224 A  
HETATM    9  C   UNL     1      -6.611  17.105  69.167  1.00  0.00    -0.231 A  
HETATM   10  N   UNL     1      -5.780  16.055  69.465  1.00  0.00    -0.125 NA 
HETATM   11  C   UNL     1      -6.388  14.864  69.145  1.00  0.00    -0.108 A  
HETATM   12  H   UNL     1      -4.847  16.145  69.867  1.00  0.00     0.000 HD 
HETATM   13  C   UNL     1      -7.604  15.184  68.549  1.00  0.00    -0.120 A  
HETATM   14  C   UNL     1      -8.419  14.136  68.086  1.00  0.00    -0.173 A  
HETATM   15  C   UNL     1      -8.072  12.797  68.311  1.00  0.00    -0.154 A  
HETATM   16  C   UNL     1      -6.856  12.519  68.950  1.00  0.00    -0.098 A  
HETATM   17  C   UNL     1      -5.979  13.542  69.348  1.00  0.00    -0.097 A  
BRANCH  15  18
HETATM   18  C   UNL     1      -9.046  11.676  67.999  1.00  0.00    -0.177 C  
BRANCH  18  19
HETATM   19  C   UNL     1      -9.363  10.776  69.187  1.00  0.00    -0.125 C  
BRANCH  19  20
HETATM   20  S   UNL     1     -11.103  10.431  69.323  1.00  0.00    -0.262 S  
HETATM   21  O   UNL     1     -11.705  10.599  68.016  1.00  0.00    -0.495 OA 
HETATM   22  O   UNL     1     -11.622  11.116  70.486  1.00  0.00    -0.306 OA 
BRANCH  20  23
HETATM   23  C   UNL     1     -11.089   8.684  69.682  1.00  0.00    -0.013 A  
HETATM   24  C   UNL     1     -11.735   8.218  70.832  1.00  0.00    -0.256 A  
HETATM   25  C   UNL     1     -11.690   6.859  71.136  1.00  0.00    -0.381 A  
HETATM   26  C   UNL     1     -11.011   5.975  70.296  1.00  0.00    -0.412 A  
HETATM   27  C   UNL     1     -10.381   6.444  69.141  1.00  0.00    -0.248 A  
HETATM   28  C   UNL     1     -10.421   7.804  68.826  1.00  0.00    -0.201 A  
ENDBRANCH  20  23
ENDBRANCH  19  20
ENDBRANCH  18  19
ENDBRANCH  15  18
ENDBRANCH   7   8
ENDBRANCH   6   7
TORSDOF 6
ENDMDL
MODEL      236
REMARK 921   NORMALIZED FREE ENERGY PREDICTED BY IDOCK:   -4.09 KCAL/MOL
REMARK 922        TOTAL FREE ENERGY PREDICTED BY IDOCK:   -7.10 KCAL/MOL
REMARK 923 INTER-LIGAND FREE ENERGY PREDICTED BY IDOCK:   -5.40 KCAL/MOL
REMARK 924 INTRA-LIGAND FREE ENERGY PREDICTED BY IDOCK:   -1.70 KCAL/MOL
REMARK 927      BINDING AFFINITY PREDICTED BY RF-SCORE:    0.00 PKD
ROOT
HETATM    1  C   UNL     1      -9.368   4.810  65.628  1.00  0.00    -0.163 C  
HETATM    2  N   UNL     1      -9.657   5.959  66.482  1.00  0.00    -0.154 NA 
HETATM    3  C   UNL     1     -11.026   5.889  67.007  1.00  0.00    -0.211 C  
HETATM    4  C   UNL     1     -10.969   6.702  68.281  1.00  0.00    -0.321 C  
HETATM    5  C   UNL     1      -9.617   6.334  68.856  1.00  0.00    -0.135 C  
HETATM    6  C   UNL     1      -8.729   6.065  67.633  1.00  0.00    -0.104 C  
ENDROOT
BRANCH   6   7
HETATM    7  C   UNL     1      -7.691   7.189  67.380  1.00  0.00    -0.110 C  
BRANCH   7   8
HETATM    8  C   UNL     1      -7.918   7.956  66.104  1.00  0.00    -0.104 A  
HETATM    9  C   UNL     1      -7.332   7.717  64.877  1.00  0.00    -0.070 A  
HETATM   10  N   UNL     1      -7.890   8.568  63.955  1.00  0.00    -0.141 NA 
HETATM   11  C   UNL     1      -8.851   9.349  64.553  1.00  0.00    -0.198 A  
HETATM   12  H   UNL     1      -7.629   8.614  62.970  1.00  0.00     0.000 HD 
HETATM   13  C   UNL     1      -8.833   9.036  65.909  1.00  0.00    -0.210 A  
HETATM   14  C   UNL     1      -9.706   9.728  66.767  1.00  0.00    -0.248 A  
HETATM   15  C   UNL     1     -10.647  10.637  66.262  1.00  0.00    -0.229 A  
HETATM   16  C   UNL     1     -10.655  10.895  64.884  1.00  0.00    -0.304 A  
HETATM   17  C   UNL     1      -9.740  10.283  64.012  1.00  0.00    -0.343 A  
BRANCH  15  18
HETATM   18  C   UNL     1     -11.721  11.225  67.157  1.00  0.00     0.035 C  
BRANCH  18  19
HETATM   19  C   UNL     1     -11.201  11.771  68.481  1.00  0.00    -0.252 C  
BRANCH  19  20
HETATM   20  S   UNL     1     -12.098  11.124  69.874  1.00  0.00    -0.342 S  
HETATM   21  O   UNL     1     -13.244  10.391  69.378  1.00  0.00     0.357 OA 
HETATM   22  O   UNL     1     -12.242  12.173  70.860  1.00  0.00    -0.354 OA 
BRANCH  20  23
HETATM   23  C   UNL     1     -10.939   9.931  70.516  1.00  0.00    -0.326 A  
HETATM   24  C   UNL     1     -11.361   9.029  71.499  1.00  0.00    -0.416 A  
HETATM   25  C   UNL     1     -10.446   8.123  72.032  1.00  0.00    -0.329 A  
HETATM   26  C   UNL     1      -9.125   8.116  71.581  1.00  0.00    -0.214 A  
HETATM   27  C   UNL     1      -8.714   9.007  70.589  1.00  0.00    -0.251 A  
HETATM   28  C   UNL     1      -9.622   9.919  70.047  1.00  0.00    -0.260 A  
ENDBRANCH  20  23
ENDBRANCH  19  20
ENDBRANCH  18  19
ENDBRANCH  15  18
ENDBRANCH   7   8
ENDBRANCH   6   7
TORSDOF 6
ENDMDL
MODEL      237
REMARK 921   NORMALIZED FREE ENERGY PREDICTED BY IDOCK:   -4.09 KCAL/MOL
REMARK 922        TOTAL FREE ENERGY PREDICTED BY IDOCK:   -7.10 KCAL/MOL
REMARK 923 INTER-LIGAND FREE ENERGY PREDICTED BY IDOCK:   -5.87 KCAL/MOL
REMARK 924 INTRA-LIGAND FREE ENERGY PREDICTED BY IDOCK:   -1.23 KCAL/MOL
REMARK 927      BINDING AFFINITY PREDICTED BY RF-SCORE:    0.00 PKD
ROOT
HETATM    1  C   UNL     1      -8.100   1.641  71.349  1.00  0.00    -0.043 C  
HETATM    2  N   UNL     1      -9.104   2.487  71.988  1.00  0.00    -0.079 NA 
HETATM    3  C   UNL     1     -10.360   1.751  72.183  1.00  0.00    -0.128 C  
HETATM    4  C   UNL     1     -11.019   2.461  73.345  1.00  0.00    -0.297 C  
HETATM    5  C   UNL     1      -9.851   2.778  74.254  1.00  0.00    -0.146 C  
HETATM    6  C   UNL     1      -8.664   3.001  73.307  1.00  0.00    -0.080 C  
ENDROOT
BRANCH   6   7
HETATM    7  C   UNL     1      -8.255   4.493  73.189  1.00  0.00    -0.099 C  
BRANCH   7   8
HETATM    8  C   UNL     1      -9.398   5.456  73.374  1.00  0.00    -0.134 A  
HETATM    9  C   UNL     1      -9.761   6.099  74.542  1.00  0.00    -0.277 A  
HETATM   10  N   UNL     1     -10.783   6.970  74.259  1.00  0.00    -0.468 NA 
HETATM   11  C   UNL     1     -11.085   6.927  72.918  1.00  0.00    -0.261 A  
HETATM   12  H   UNL     1     -11.250   7.564  74.945  1.00  0.00     0.000 HD 
HETATM   13  C   UNL     1     -10.284   5.936  72.361  1.00  0.00    -0.217 A  
HETATM   14  C   UNL     1     -10.421   5.656  70.989  1.00  0.00    -0.316 A  
HETATM   15  C   UNL     1     -11.266   6.425  70.176  1.00  0.00    -0.454 A  
HETATM   16  C   UNL     1     -12.027   7.440  70.773  1.00  0.00    -0.261 A  
HETATM   17  C   UNL     1     -11.976   7.687  72.155  1.00  0.00    -0.344 A  
BRANCH  15  18
HETATM   18  C   UNL     1     -11.258   6.261  68.668  1.00  0.00    -0.328 C  
BRANCH  18  19
HETATM   19  C   UNL     1     -10.080   5.456  68.134  1.00  0.00    -0.166 C  
BRANCH  19  20
HETATM   20  S   UNL     1      -8.760   6.498  67.555  1.00  0.00    -0.113 S  
HETATM   21  O   UNL     1      -8.791   6.512  66.107  1.00  0.00    -0.146 OA 
HETATM   22  O   UNL     1      -7.554   6.164  68.280  1.00  0.00    -0.094 OA 
BRANCH  20  23
HETATM   23  C   UNL     1      -9.305   8.101  68.115  1.00  0.00    -0.133 A  
HETATM   24  C   UNL     1      -8.708   8.669  69.246  1.00  0.00    -0.133 A  
HETATM   25  C   UNL     1      -9.161   9.902  69.710  1.00  0.00    -0.252 A  
HETATM   26  C   UNL     1     -10.195  10.564  69.045  1.00  0.00    -0.233 A  
HETATM   27  C   UNL     1     -10.776   9.999  67.907  1.00  0.00    -0.322 A  
HETATM   28  C   UNL     1     -10.330   8.764  67.434  1.00  0.00    -0.349 A  
ENDBRANCH  20  23
ENDBRANCH  19  20
ENDBRANCH  18  19
ENDBRANCH  15  18
ENDBRANCH   7   8
ENDBRANCH   6   7
TORSDOF 6
ENDMDL
MODEL      238
REMARK 921   NORMALIZED FREE ENERGY PREDICTED BY IDOCK:   -4.08 KCAL/MOL
REMARK 922        TOTAL FREE ENERGY PREDICTED BY IDOCK:   -7.09 KCAL/MOL
REMARK 923 INTER-LIGAND FREE ENERGY PREDICTED BY IDOCK:   -6.38 KCAL/MOL
REMARK 924 INTRA-LIGAND FREE ENERGY PREDICTED BY IDOCK:   -0.71 KCAL/MOL
REMARK 927      BINDING AFFINITY PREDICTED BY RF-SCORE:    0.00 PKD
ROOT
HETATM    1  C   UNL     1     -10.536  19.868  66.029  1.00  0.00    -0.475 C  
HETATM    2  N   UNL     1      -9.984  18.762  66.807  1.00  0.00    -0.336 NA 
HETATM    3  C   UNL     1      -9.920  19.106  68.232  1.00  0.00    -0.403 C  
HETATM    4  C   UNL     1      -9.960  17.766  68.932  1.00  0.00    -0.332 C  
HETATM    5  C   UNL     1     -10.949  16.979  68.099  1.00  0.00    -0.263 C  
HETATM    6  C   UNL     1     -10.776  17.515  66.671  1.00  0.00    -0.097 C  
ENDROOT
BRANCH   6   7
HETATM    7  C   UNL     1     -10.046  16.518  65.734  1.00  0.00    -0.328 C  
BRANCH   7   8
HETATM    8  C   UNL     1      -8.761  15.975  66.301  1.00  0.00    -0.372 A  
HETATM    9  C   UNL     1      -7.536  16.613  66.339  1.00  0.00    -0.262 A  
HETATM   10  N   UNL     1      -6.656  15.822  67.034  1.00  0.00    -0.285 NA 
HETATM   11  C   UNL     1      -7.288  14.683  67.473  1.00  0.00    -0.197 A  
HETATM   12  H   UNL     1      -5.675  16.047  67.201  1.00  0.00     0.000 HD 
HETATM   13  C   UNL     1      -8.582  14.723  66.964  1.00  0.00    -0.260 A  
HETATM   14  C   UNL     1      -9.442  13.644  67.236  1.00  0.00    -0.230 A  
HETATM   15  C   UNL     1      -9.048  12.601  68.086  1.00  0.00    -0.204 A  
HETATM   16  C   UNL     1      -7.747  12.620  68.608  1.00  0.00    -0.066 A  
HETATM   17  C   UNL     1      -6.836  13.639  68.287  1.00  0.00    -0.108 A  
BRANCH  15  18
HETATM   18  C   UNL     1     -10.041  11.550  68.543  1.00  0.00    -0.211 C  
BRANCH  18  19
HETATM   19  C   UNL     1      -9.952  10.233  67.782  1.00  0.00    -0.173 C  
BRANCH  19  20
HETATM   20  S   UNL     1      -9.630   8.854  68.858  1.00  0.00    -0.163 S  
HETATM   21  O   UNL     1     -10.791   8.650  69.699  1.00  0.00    -0.226 OA 
HETATM   22  O   UNL     1      -8.307   9.006  69.423  1.00  0.00    -0.113 OA 
BRANCH  20  23
HETATM   23  C   UNL     1      -9.572   7.504  67.694  1.00  0.00    -0.143 A  
HETATM   24  C   UNL     1     -10.710   6.712  67.508  1.00  0.00    -0.387 A  
HETATM   25  C   UNL     1     -10.653   5.632  66.630  1.00  0.00    -0.361 A  
HETATM   26  C   UNL     1      -9.473   5.350  65.941  1.00  0.00    -0.138 A  
HETATM   27  C   UNL     1      -8.344   6.154  66.119  1.00  0.00    -0.128 A  
HETATM   28  C   UNL     1      -8.390   7.239  66.995  1.00  0.00    -0.118 A  
ENDBRANCH  20  23
ENDBRANCH  19  20
ENDBRANCH  18  19
ENDBRANCH  15  18
ENDBRANCH   7   8
ENDBRANCH   6   7
TORSDOF 6
ENDMDL
MODEL      239
REMARK 921   NORMALIZED FREE ENERGY PREDICTED BY IDOCK:   -4.07 KCAL/MOL
REMARK 922        TOTAL FREE ENERGY PREDICTED BY IDOCK:   -7.07 KCAL/MOL
REMARK 923 INTER-LIGAND FREE ENERGY PREDICTED BY IDOCK:   -5.07 KCAL/MOL
REMARK 924 INTRA-LIGAND FREE ENERGY PREDICTED BY IDOCK:   -2.00 KCAL/MOL
REMARK 927      BINDING AFFINITY PREDICTED BY RF-SCORE:    0.00 PKD
ROOT
HETATM    1  C   UNL     1      -8.383  20.047  65.788  1.00  0.00    -0.030 C  
HETATM    2  N   UNL     1      -7.774  18.746  66.048  1.00  0.00    -0.434 NA 
HETATM    3  C   UNL     1      -6.575  18.555  65.222  1.00  0.00    -0.145 C  
HETATM    4  C   UNL     1      -5.750  17.557  66.003  1.00  0.00    -0.174 C  
HETATM    5  C   UNL     1      -5.963  17.992  67.438  1.00  0.00    -0.160 C  
HETATM    6  C   UNL     1      -7.386  18.568  67.468  1.00  0.00    -0.219 C  
ENDROOT
BRANCH   6   7
HETATM    7  C   UNL     1      -8.400  17.641  68.186  1.00  0.00    -0.259 C  
BRANCH   7   8
HETATM    8  C   UNL     1      -7.847  16.284  68.535  1.00  0.00    -0.192 A  
HETATM    9  C   UNL     1      -7.094  15.955  69.645  1.00  0.00    -0.130 A  
HETATM   10  N   UNL     1      -6.885  14.599  69.644  1.00  0.00    -0.162 NA 
HETATM   11  C   UNL     1      -7.509  14.025  68.560  1.00  0.00    -0.124 A  
HETATM   12  H   UNL     1      -6.347  14.090  70.345  1.00  0.00     0.000 HD 
HETATM   13  C   UNL     1      -8.052  15.067  67.815  1.00  0.00    -0.160 A  
HETATM   14  C   UNL     1      -8.722  14.756  66.619  1.00  0.00    -0.229 A  
HETATM   15  C   UNL     1      -8.933  13.424  66.233  1.00  0.00     0.109 A  
HETATM   16  C   UNL     1      -8.401  12.404  67.034  1.00  0.00    -0.157 A  
HETATM   17  C   UNL     1      -7.654  12.685  68.190  1.00  0.00    -0.132 A  
BRANCH  15  18
HETATM   18  C   UNL     1      -9.830  13.085  65.059  1.00  0.00    -0.059 C  
BRANCH  18  19
HETATM   19  C   UNL     1     -11.273  12.781  65.442  1.00  0.00    -0.292 C  
BRANCH  19  20
HETATM   20  S   UNL     1     -12.236  14.260  65.664  1.00  0.00    -0.377 S  
HETATM   21  O   UNL     1     -13.638  13.911  65.556  1.00  0.00    -0.579 OA 
HETATM   22  O   UNL     1     -11.658  15.314  64.860  1.00  0.00    -0.352 OA 
BRANCH  20  23
HETATM   23  C   UNL     1     -11.912  14.640  67.375  1.00  0.00    -0.279 A  
HETATM   24  C   UNL     1     -11.980  15.969  67.805  1.00  0.00     0.502 A  
HETATM   25  C   UNL     1     -11.686  16.273  69.133  1.00  0.00    -0.151 A  
HETATM   26  C   UNL     1     -11.333  15.256  70.022  1.00  0.00    -0.311 A  
HETATM   27  C   UNL     1     -11.282  13.929  69.591  1.00  0.00    -0.196 A  
HETATM   28  C   UNL     1     -11.576  13.613  68.264  1.00  0.00    -0.374 A  
ENDBRANCH  20  23
ENDBRANCH  19  20
ENDBRANCH  18  19
ENDBRANCH  15  18
ENDBRANCH   7   8
ENDBRANCH   6   7
TORSDOF 6
ENDMDL
MODEL      240
REMARK 921   NORMALIZED FREE ENERGY PREDICTED BY IDOCK:   -4.06 KCAL/MOL
REMARK 922        TOTAL FREE ENERGY PREDICTED BY IDOCK:   -7.06 KCAL/MOL
REMARK 923 INTER-LIGAND FREE ENERGY PREDICTED BY IDOCK:   -6.07 KCAL/MOL
REMARK 924 INTRA-LIGAND FREE ENERGY PREDICTED BY IDOCK:   -0.99 KCAL/MOL
REMARK 927      BINDING AFFINITY PREDICTED BY RF-SCORE:    0.00 PKD
ROOT
HETATM    1  C   UNL     1     -12.990  11.639  71.592  1.00  0.00    -0.378 C  
HETATM    2  N   UNL     1     -13.256  13.027  71.224  1.00  0.00    -0.180 NA 
HETATM    3  C   UNL     1     -14.030  13.706  72.270  1.00  0.00    -0.563 C  
HETATM    4  C   UNL     1     -13.687  15.167  72.086  1.00  0.00    -0.583 C  
HETATM    5  C   UNL     1     -12.211  15.127  71.748  1.00  0.00    -0.423 C  
HETATM    6  C   UNL     1     -12.016  13.805  70.993  1.00  0.00    -0.121 C  
ENDROOT
BRANCH   6   7
HETATM    7  C   UNL     1     -11.787  14.005  69.472  1.00  0.00    -0.378 C  
BRANCH   7   8
HETATM    8  C   UNL     1     -10.932  15.199  69.134  1.00  0.00    -0.260 A  
HETATM    9  C   UNL     1     -11.279  16.530  69.260  1.00  0.00    -0.213 A  
HETATM   10  N   UNL     1     -10.183  17.296  68.951  1.00  0.00    -0.338 NA 
HETATM   11  C   UNL     1      -9.112  16.489  68.644  1.00  0.00    -0.239 A  
HETATM   12  H   UNL     1     -10.165  18.316  68.949  1.00  0.00     0.000 HD 
HETATM   13  C   UNL     1      -9.578  15.178  68.680  1.00  0.00    -0.213 A  
HETATM   14  C   UNL     1      -8.682  14.141  68.364  1.00  0.00    -0.178 A  
HETATM   15  C   UNL     1      -7.327  14.405  68.121  1.00  0.00    -0.130 A  
HETATM   16  C   UNL     1      -6.893  15.739  68.132  1.00  0.00    -0.128 A  
HETATM   17  C   UNL     1      -7.780  16.803  68.360  1.00  0.00    -0.208 A  
BRANCH  15  18
HETATM   18  C   UNL     1      -6.324  13.276  67.986  1.00  0.00    -0.128 C  
BRANCH  18  19
HETATM   19  C   UNL     1      -6.708  12.007  68.736  1.00  0.00    -0.087 C  
BRANCH  19  20
HETATM   20  S   UNL     1      -7.140  10.679  67.635  1.00  0.00    -0.085 S  
HETATM   21  O   UNL     1      -6.132   9.645  67.749  1.00  0.00    -0.051 OA 
HETATM   22  O   UNL     1      -7.502  11.240  66.352  1.00  0.00    -0.133 OA 
BRANCH  20  23
HETATM   23  C   UNL     1      -8.628  10.058  68.396  1.00  0.00    -0.113 A  
HETATM   24  C   UNL     1      -9.815  10.788  68.273  1.00  0.00    -0.177 A  
HETATM   25  C   UNL     1     -10.969  10.326  68.902  1.00  0.00    -0.279 A  
HETATM   26  C   UNL     1     -10.938   9.142  69.641  1.00  0.00    -0.168 A  
HETATM   27  C   UNL     1      -9.754   8.409  69.747  1.00  0.00    -0.180 A  
HETATM   28  C   UNL     1      -8.592   8.862  69.120  1.00  0.00    -0.134 A  
ENDBRANCH  20  23
ENDBRANCH  19  20
ENDBRANCH  18  19
ENDBRANCH  15  18
ENDBRANCH   7   8
ENDBRANCH   6   7
TORSDOF 6
ENDMDL
MODEL      241
REMARK 921   NORMALIZED FREE ENERGY PREDICTED BY IDOCK:   -4.05 KCAL/MOL
REMARK 922        TOTAL FREE ENERGY PREDICTED BY IDOCK:   -7.04 KCAL/MOL
REMARK 923 INTER-LIGAND FREE ENERGY PREDICTED BY IDOCK:   -6.00 KCAL/MOL
REMARK 924 INTRA-LIGAND FREE ENERGY PREDICTED BY IDOCK:   -1.05 KCAL/MOL
REMARK 927      BINDING AFFINITY PREDICTED BY RF-SCORE:    0.00 PKD
ROOT
HETATM    1  C   UNL     1     -11.166  15.250  68.082  1.00  0.00    -0.324 C  
HETATM    2  N   UNL     1     -10.999  14.082  68.942  1.00  0.00    -0.254 NA 
HETATM    3  C   UNL     1     -12.224  13.815  69.705  1.00  0.00    -0.310 C  
HETATM    4  C   UNL     1     -12.147  12.337  70.012  1.00  0.00    -0.346 C  
HETATM    5  C   UNL     1     -11.573  11.757  68.737  1.00  0.00    -0.367 C  
HETATM    6  C   UNL     1     -10.657  12.856  68.182  1.00  0.00    -0.237 C  
ENDROOT
BRANCH   6   7
HETATM    7  C   UNL     1      -9.150  12.528  68.347  1.00  0.00    -0.135 C  
BRANCH   7   8
HETATM    8  C   UNL     1      -8.729  11.237  67.695  1.00  0.00    -0.131 A  
HETATM    9  C   UNL     1      -8.392  11.049  66.369  1.00  0.00    -0.165 A  
HETATM   10  N   UNL     1      -7.965   9.755  66.209  1.00  0.00    -0.108 NA 
HETATM   11  C   UNL     1      -7.995   9.093  67.414  1.00  0.00    -0.103 A  
HETATM   12  H   UNL     1      -7.668   9.343  65.324  1.00  0.00     0.000 HD 
HETATM   13  C   UNL     1      -8.539   9.977  68.341  1.00  0.00    -0.113 A  
HETATM   14  C   UNL     1      -8.719   9.534  69.663  1.00  0.00    -0.189 A  
HETATM   15  C   UNL     1      -8.267   8.271  70.070  1.00  0.00    -0.119 A  
HETATM   16  C   UNL     1      -7.690   7.426  69.112  1.00  0.00    -0.111 A  
HETATM   17  C   UNL     1      -7.574   7.807  67.765  1.00  0.00    -0.113 A  
BRANCH  15  18
HETATM   18  C   UNL     1      -8.272   7.875  71.535  1.00  0.00    -0.122 C  
BRANCH  18  19
HETATM   19  C   UNL     1      -9.418   8.475  72.340  1.00  0.00    -0.280 C  
BRANCH  19  20
HETATM   20  S   UNL     1     -10.791   7.356  72.491  1.00  0.00    -0.310 S  
HETATM   21  O   UNL     1     -12.002   8.069  72.141  1.00  0.00    -0.312 OA 
HETATM   22  O   UNL     1     -10.672   6.643  73.744  1.00  0.00    -0.296 OA 
BRANCH  20  23
HETATM   23  C   UNL     1     -10.453   6.201  71.175  1.00  0.00    -0.230 A  
HETATM   24  C   UNL     1      -9.673   5.071  71.440  1.00  0.00    -0.231 A  
HETATM   25  C   UNL     1      -9.373   4.190  70.404  1.00  0.00    -0.225 A  
HETATM   26  C   UNL     1      -9.855   4.434  69.116  1.00  0.00    -0.198 A  
HETATM   27  C   UNL     1     -10.646   5.555  68.861  1.00  0.00    -0.258 A  
HETATM   28  C   UNL     1     -10.954   6.444  69.892  1.00  0.00    -0.410 A  
ENDBRANCH  20  23
ENDBRANCH  19  20
ENDBRANCH  18  19
ENDBRANCH  15  18
ENDBRANCH   7   8
ENDBRANCH   6   7
TORSDOF 6
ENDMDL
MODEL      242
REMARK 921   NORMALIZED FREE ENERGY PREDICTED BY IDOCK:   -4.03 KCAL/MOL
REMARK 922        TOTAL FREE ENERGY PREDICTED BY IDOCK:   -7.03 KCAL/MOL
REMARK 923 INTER-LIGAND FREE ENERGY PREDICTED BY IDOCK:   -6.69 KCAL/MOL
REMARK 924 INTRA-LIGAND FREE ENERGY PREDICTED BY IDOCK:   -0.33 KCAL/MOL
REMARK 927      BINDING AFFINITY PREDICTED BY RF-SCORE:    0.00 PKD
ROOT
HETATM    1  C   UNL     1     -11.570  15.869  64.221  1.00  0.00    -0.178 C  
HETATM    2  N   UNL     1     -11.222  14.828  65.184  1.00  0.00    -0.364 NA 
HETATM    3  C   UNL     1     -10.588  15.407  66.374  1.00  0.00    -0.307 C  
HETATM    4  C   UNL     1     -10.868  14.396  67.463  1.00  0.00    -0.285 C  
HETATM    5  C   UNL     1     -12.282  13.950  67.155  1.00  0.00    -0.353 C  
HETATM    6  C   UNL     1     -12.400  14.043  65.627  1.00  0.00    -0.479 C  
ENDROOT
BRANCH   6   7
HETATM    7  C   UNL     1     -12.407  12.655  64.936  1.00  0.00    -0.563 C  
BRANCH   7   8
HETATM    8  C   UNL     1     -11.081  11.941  64.982  1.00  0.00    -0.360 A  
HETATM    9  C   UNL     1     -10.075  11.998  64.037  1.00  0.00    -0.335 A  
HETATM   10  N   UNL     1      -8.996  11.295  64.509  1.00  0.00    -0.391 NA 
HETATM   11  C   UNL     1      -9.267  10.793  65.760  1.00  0.00    -0.189 A  
HETATM   12  H   UNL     1      -8.118  11.163  64.005  1.00  0.00     0.000 HD 
HETATM   13  C   UNL     1     -10.589  11.122  66.043  1.00  0.00    -0.298 A  
HETATM   14  C   UNL     1     -11.140  10.689  67.263  1.00  0.00    -0.313 A  
HETATM   15  C   UNL     1     -10.353  10.034  68.220  1.00  0.00    -0.224 A  
HETATM   16  C   UNL     1      -9.014   9.757  67.908  1.00  0.00    -0.119 A  
HETATM   17  C   UNL     1      -8.458  10.100  66.665  1.00  0.00    -0.127 A  
BRANCH  15  18
HETATM   18  C   UNL     1     -10.888   9.754  69.611  1.00  0.00    -0.274 C  
BRANCH  18  19
HETATM   19  C   UNL     1      -9.899   9.049  70.531  1.00  0.00    -0.216 C  
BRANCH  19  20
HETATM   20  S   UNL     1      -9.900   7.286  70.293  1.00  0.00    -0.179 S  
HETATM   21  O   UNL     1      -9.213   6.992  69.052  1.00  0.00    -0.139 OA 
HETATM   22  O   UNL     1     -11.231   6.784  70.554  1.00  0.00    -0.277 OA 
BRANCH  20  23
HETATM   23  C   UNL     1      -8.845   6.749  71.626  1.00  0.00    -0.129 A  
HETATM   24  C   UNL     1      -9.049   7.266  72.910  1.00  0.00    -0.176 A  
HETATM   25  C   UNL     1      -8.200   6.879  73.945  1.00  0.00    -0.146 A  
HETATM   26  C   UNL     1      -7.161   5.980  73.698  1.00  0.00    -0.081 A  
HETATM   27  C   UNL     1      -6.972   5.455  72.418  1.00  0.00    -0.081 A  
HETATM   28  C   UNL     1      -7.817   5.835  71.375  1.00  0.00    -0.112 A  
ENDBRANCH  20  23
ENDBRANCH  19  20
ENDBRANCH  18  19
ENDBRANCH  15  18
ENDBRANCH   7   8
ENDBRANCH   6   7
TORSDOF 6
ENDMDL
MODEL      243
REMARK 921   NORMALIZED FREE ENERGY PREDICTED BY IDOCK:   -4.03 KCAL/MOL
REMARK 922        TOTAL FREE ENERGY PREDICTED BY IDOCK:   -7.02 KCAL/MOL
REMARK 923 INTER-LIGAND FREE ENERGY PREDICTED BY IDOCK:   -6.23 KCAL/MOL
REMARK 924 INTRA-LIGAND FREE ENERGY PREDICTED BY IDOCK:   -0.79 KCAL/MOL
REMARK 927      BINDING AFFINITY PREDICTED BY RF-SCORE:    0.00 PKD
ROOT
HETATM    1  C   UNL     1     -11.087  17.929  65.303  1.00  0.00     0.660 C  
HETATM    2  N   UNL     1      -9.920  18.065  66.171  1.00  0.00    -0.500 NA 
HETATM    3  C   UNL     1      -9.279  19.372  65.984  1.00  0.00    -0.174 C  
HETATM    4  C   UNL     1      -8.563  19.617  67.294  1.00  0.00    -0.356 C  
HETATM    5  C   UNL     1      -9.539  19.078  68.318  1.00  0.00    -0.411 C  
HETATM    6  C   UNL     1     -10.256  17.920  67.608  1.00  0.00    -0.365 C  
ENDROOT
BRANCH   6   7
HETATM    7  C   UNL     1      -9.810  16.526  68.122  1.00  0.00    -0.244 C  
BRANCH   7   8
HETATM    8  C   UNL     1     -10.641  16.002  69.264  1.00  0.00    -0.265 A  
HETATM    9  C   UNL     1     -11.249  16.745  70.257  1.00  0.00     0.202 A  
HETATM   10  N   UNL     1     -11.997  15.899  71.037  1.00  0.00    -0.425 NA 
HETATM   11  C   UNL     1     -11.908  14.612  70.560  1.00  0.00    -0.304 A  
HETATM   12  H   UNL     1     -12.541  16.183  71.852  1.00  0.00     0.000 HD 
HETATM   13  C   UNL     1     -11.008  14.642  69.499  1.00  0.00    -0.269 A  
HETATM   14  C   UNL     1     -10.702  13.434  68.847  1.00  0.00    -0.219 A  
HETATM   15  C   UNL     1     -11.363  12.244  69.182  1.00  0.00    -0.330 A  
HETATM   16  C   UNL     1     -12.292  12.267  70.232  1.00  0.00    -0.267 A  
HETATM   17  C   UNL     1     -12.556  13.439  70.959  1.00  0.00    -0.425 A  
BRANCH  15  18
HETATM   18  C   UNL     1     -11.187  10.991  68.344  1.00  0.00    -0.337 C  
BRANCH  18  19
HETATM   19  C   UNL     1      -9.862  10.922  67.596  1.00  0.00    -0.171 C  
BRANCH  19  20
HETATM   20  S   UNL     1      -8.720   9.789  68.354  1.00  0.00    -0.121 S  
HETATM   21  O   UNL     1      -8.494  10.215  69.720  1.00  0.00    -0.177 OA 
HETATM   22  O   UNL     1      -7.619   9.562  67.444  1.00  0.00    -0.094 OA 
BRANCH  20  23
HETATM   23  C   UNL     1      -9.692   8.296  68.416  1.00  0.00    -0.158 A  
HETATM   24  C   UNL     1     -10.128   7.714  67.221  1.00  0.00    -0.306 A  
HETATM   25  C   UNL     1     -10.922   6.570  67.268  1.00  0.00    -0.475 A  
HETATM   26  C   UNL     1     -11.272   6.011  68.499  1.00  0.00    -0.147 A  
HETATM   27  C   UNL     1     -10.820   6.587  69.688  1.00  0.00    -0.359 A  
HETATM   28  C   UNL     1     -10.023   7.732  69.652  1.00  0.00    -0.190 A  
ENDBRANCH  20  23
ENDBRANCH  19  20
ENDBRANCH  18  19
ENDBRANCH  15  18
ENDBRANCH   7   8
ENDBRANCH   6   7
TORSDOF 6
ENDMDL
MODEL      244
REMARK 921   NORMALIZED FREE ENERGY PREDICTED BY IDOCK:   -4.03 KCAL/MOL
REMARK 922        TOTAL FREE ENERGY PREDICTED BY IDOCK:   -7.02 KCAL/MOL
REMARK 923 INTER-LIGAND FREE ENERGY PREDICTED BY IDOCK:   -5.67 KCAL/MOL
REMARK 924 INTRA-LIGAND FREE ENERGY PREDICTED BY IDOCK:   -1.35 KCAL/MOL
REMARK 927      BINDING AFFINITY PREDICTED BY RF-SCORE:    0.00 PKD
ROOT
HETATM    1  C   UNL     1     -11.778  11.312  69.984  1.00  0.00    -0.346 C  
HETATM    2  N   UNL     1     -11.915  12.377  68.994  1.00  0.00    -0.279 NA 
HETATM    3  C   UNL     1     -12.041  13.685  69.648  1.00  0.00    -0.321 C  
HETATM    4  C   UNL     1     -11.546  14.662  68.604  1.00  0.00    -0.343 C  
HETATM    5  C   UNL     1     -10.382  13.924  67.976  1.00  0.00    -0.245 C  
HETATM    6  C   UNL     1     -10.767  12.440  68.058  1.00  0.00    -0.223 C  
ENDROOT
BRANCH   6   7
HETATM    7  C   UNL     1     -11.164  11.841  66.684  1.00  0.00    -0.383 C  
BRANCH   7   8
HETATM    8  C   UNL     1      -9.997  11.333  65.879  1.00  0.00    -0.277 A  
HETATM    9  C   UNL     1      -9.739  11.579  64.544  1.00  0.00    -0.207 A  
HETATM   10  N   UNL     1      -8.525  11.026  64.226  1.00  0.00    -0.370 NA 
HETATM   11  C   UNL     1      -7.967  10.436  65.336  1.00  0.00    -0.147 A  
HETATM   12  H   UNL     1      -8.097  11.048  63.300  1.00  0.00     0.000 HD 
HETATM   13  C   UNL     1      -8.902  10.551  66.361  1.00  0.00    -0.165 A  
HETATM   14  C   UNL     1      -8.596   9.990  67.613  1.00  0.00    -0.118 A  
HETATM   15  C   UNL     1      -7.339   9.420  67.862  1.00  0.00    -0.083 A  
HETATM   16  C   UNL     1      -6.412   9.359  66.812  1.00  0.00    -0.067 A  
HETATM   17  C   UNL     1      -6.720   9.834  65.526  1.00  0.00    -0.090 A  
BRANCH  15  18
HETATM   18  C   UNL     1      -6.935   9.005  69.264  1.00  0.00    -0.057 C  
BRANCH  18  19
HETATM   19  C   UNL     1      -7.790   9.615  70.367  1.00  0.00    -0.159 C  
BRANCH  19  20
HETATM   20  S   UNL     1      -8.341   8.398  71.541  1.00  0.00    -0.167 S  
HETATM   21  O   UNL     1      -9.326   9.012  72.408  1.00  0.00    -0.288 OA 
HETATM   22  O   UNL     1      -7.185   7.716  72.079  1.00  0.00    -0.065 OA 
BRANCH  20  23
HETATM   23  C   UNL     1      -9.205   7.251  70.483  1.00  0.00    -0.158 A  
HETATM   24  C   UNL     1      -8.576   6.059  70.109  1.00  0.00    -0.135 A  
HETATM   25  C   UNL     1      -9.232   5.181  69.249  1.00  0.00    -0.151 A  
HETATM   26  C   UNL     1     -10.508   5.491  68.773  1.00  0.00    -0.261 A  
HETATM   27  C   UNL     1     -11.137   6.675  69.162  1.00  0.00    -0.332 A  
HETATM   28  C   UNL     1     -10.489   7.561  70.024  1.00  0.00    -0.231 A  
ENDBRANCH  20  23
ENDBRANCH  19  20
ENDBRANCH  18  19
ENDBRANCH  15  18
ENDBRANCH   7   8
ENDBRANCH   6   7
TORSDOF 6
ENDMDL
MODEL      245
REMARK 921   NORMALIZED FREE ENERGY PREDICTED BY IDOCK:   -3.99 KCAL/MOL
REMARK 922        TOTAL FREE ENERGY PREDICTED BY IDOCK:   -6.97 KCAL/MOL
REMARK 923 INTER-LIGAND FREE ENERGY PREDICTED BY IDOCK:   -5.85 KCAL/MOL
REMARK 924 INTRA-LIGAND FREE ENERGY PREDICTED BY IDOCK:   -1.12 KCAL/MOL
REMARK 927      BINDING AFFINITY PREDICTED BY RF-SCORE:    0.00 PKD
ROOT
HETATM    1  C   UNL     1      -9.434   3.200  67.054  1.00  0.00    -0.094 C  
HETATM    2  N   UNL     1      -9.450   4.627  67.364  1.00  0.00    -0.144 NA 
HETATM    3  C   UNL     1     -10.251   5.366  66.380  1.00  0.00    -0.226 C  
HETATM    4  C   UNL     1     -10.694   6.603  67.127  1.00  0.00    -0.440 C  
HETATM    5  C   UNL     1     -10.988   6.073  68.515  1.00  0.00    -0.350 C  
HETATM    6  C   UNL     1     -10.000   4.914  68.711  1.00  0.00    -0.136 C  
ENDROOT
BRANCH   6   7
HETATM    7  C   UNL     1      -8.850   5.258  69.694  1.00  0.00    -0.126 C  
BRANCH   7   8
HETATM    8  C   UNL     1      -7.627   5.832  69.027  1.00  0.00    -0.089 A  
HETATM    9  C   UNL     1      -6.537   5.131  68.551  1.00  0.00    -0.049 A  
HETATM   10  N   UNL     1      -5.695   6.013  67.920  1.00  0.00    -0.011 NA 
HETATM   11  C   UNL     1      -6.225   7.281  67.955  1.00  0.00    -0.039 A  
HETATM   12  H   UNL     1      -4.805   5.763  67.488  1.00  0.00     0.000 HD 
HETATM   13  C   UNL     1      -7.394   7.204  68.705  1.00  0.00    -0.096 A  
HETATM   14  C   UNL     1      -8.124   8.385  68.931  1.00  0.00    -0.114 A  
HETATM   15  C   UNL     1      -7.746   9.594  68.330  1.00  0.00    -0.081 A  
HETATM   16  C   UNL     1      -6.582   9.618  67.551  1.00  0.00    -0.070 A  
HETATM   17  C   UNL     1      -5.785   8.475  67.376  1.00  0.00    -0.039 A  
BRANCH  15  18
HETATM   18  C   UNL     1      -8.644  10.815  68.404  1.00  0.00    -0.141 C  
BRANCH  18  19
HETATM   19  C   UNL     1     -10.024  10.613  67.792  1.00  0.00    -0.167 C  
BRANCH  19  20
HETATM   20  S   UNL     1     -10.999  12.100  67.825  1.00  0.00    -0.249 S  
HETATM   21  O   UNL     1     -10.141  13.199  68.218  1.00  0.00    -0.237 OA 
HETATM   22  O   UNL     1     -12.239  11.827  68.518  1.00  0.00    -0.430 OA 
BRANCH  20  23
HETATM   23  C   UNL     1     -11.379  12.312  66.096  1.00  0.00    -0.353 A  
HETATM   24  C   UNL     1     -10.949  11.348  65.178  1.00  0.00    -0.259 A  
HETATM   25  C   UNL     1     -11.209  11.533  63.822  1.00  0.00    -0.456 A  
HETATM   26  C   UNL     1     -11.896  12.668  63.389  1.00  0.00    -0.594 A  
HETATM   27  C   UNL     1     -12.336  13.620  64.311  1.00  0.00    -0.388 A  
HETATM   28  C   UNL     1     -12.083  13.444  65.673  1.00  0.00    -0.476 A  
ENDBRANCH  20  23
ENDBRANCH  19  20
ENDBRANCH  18  19
ENDBRANCH  15  18
ENDBRANCH   7   8
ENDBRANCH   6   7
TORSDOF 6
ENDMDL
MODEL      246
REMARK 921   NORMALIZED FREE ENERGY PREDICTED BY IDOCK:   -3.99 KCAL/MOL
REMARK 922        TOTAL FREE ENERGY PREDICTED BY IDOCK:   -6.97 KCAL/MOL
REMARK 923 INTER-LIGAND FREE ENERGY PREDICTED BY IDOCK:   -4.99 KCAL/MOL
REMARK 924 INTRA-LIGAND FREE ENERGY PREDICTED BY IDOCK:   -1.98 KCAL/MOL
REMARK 927      BINDING AFFINITY PREDICTED BY RF-SCORE:    0.00 PKD
ROOT
HETATM    1  C   UNL     1     -11.494   6.503  71.270  1.00  0.00    -0.318 C  
HETATM    2  N   UNL     1     -10.548   5.718  72.059  1.00  0.00    -0.218 NA 
HETATM    3  C   UNL     1     -11.240   4.978  73.120  1.00  0.00    -0.335 C  
HETATM    4  C   UNL     1     -10.328   3.805  73.401  1.00  0.00    -0.238 C  
HETATM    5  C   UNL     1      -9.837   3.422  72.021  1.00  0.00    -0.239 C  
HETATM    6  C   UNL     1      -9.790   4.743  71.239  1.00  0.00    -0.187 C  
ENDROOT
BRANCH   6   7
HETATM    7  C   UNL     1      -8.346   5.254  70.999  1.00  0.00    -0.121 C  
BRANCH   7   8
HETATM    8  C   UNL     1      -7.832   5.006  69.605  1.00  0.00    -0.067 A  
HETATM    9  C   UNL     1      -6.950   4.021  69.210  1.00  0.00    -0.046 A  
HETATM   10  N   UNL     1      -6.827   4.069  67.844  1.00  0.00    -0.047 NA 
HETATM   11  C   UNL     1      -7.632   5.059  67.331  1.00  0.00    -0.091 A  
HETATM   12  H   UNL     1      -6.225   3.460  67.289  1.00  0.00     0.000 HD 
HETATM   13  C   UNL     1      -8.212   5.705  68.418  1.00  0.00    -0.103 A  
HETATM   14  C   UNL     1      -9.064   6.796  68.173  1.00  0.00    -0.123 A  
HETATM   15  C   UNL     1      -9.409   7.164  66.864  1.00  0.00    -0.189 A  
HETATM   16  C   UNL     1      -8.830   6.461  65.798  1.00  0.00    -0.111 A  
HETATM   17  C   UNL     1      -7.910   5.422  66.009  1.00  0.00    -0.103 A  
BRANCH  15  18
HETATM   18  C   UNL     1     -10.484   8.202  66.603  1.00  0.00    -0.204 C  
BRANCH  18  19
HETATM   19  C   UNL     1      -9.949   9.606  66.353  1.00  0.00    -0.255 C  
BRANCH  19  20
HETATM   20  S   UNL     1     -10.432  10.747  67.630  1.00  0.00    -0.231 S  
HETATM   21  O   UNL     1     -11.806  10.469  67.994  1.00  0.00    -0.425 OA 
HETATM   22  O   UNL     1     -10.006  12.076  67.249  1.00  0.00    -0.193 OA 
BRANCH  20  23
HETATM   23  C   UNL     1      -9.404  10.215  68.986  1.00  0.00    -0.188 A  
HETATM   24  C   UNL     1      -8.016  10.360  68.890  1.00  0.00    -0.123 A  
HETATM   25  C   UNL     1      -7.208   9.907  69.931  1.00  0.00    -0.129 A  
HETATM   26  C   UNL     1      -7.784   9.320  71.059  1.00  0.00    -0.100 A  
HETATM   27  C   UNL     1      -9.171   9.192  71.157  1.00  0.00    -0.301 A  
HETATM   28  C   UNL     1      -9.989   9.644  70.120  1.00  0.00    -0.309 A  
ENDBRANCH  20  23
ENDBRANCH  19  20
ENDBRANCH  18  19
ENDBRANCH  15  18
ENDBRANCH   7   8
ENDBRANCH   6   7
TORSDOF 6
ENDMDL
MODEL      247
REMARK 921   NORMALIZED FREE ENERGY PREDICTED BY IDOCK:   -3.97 KCAL/MOL
REMARK 922        TOTAL FREE ENERGY PREDICTED BY IDOCK:   -6.93 KCAL/MOL
REMARK 923 INTER-LIGAND FREE ENERGY PREDICTED BY IDOCK:   -6.70 KCAL/MOL
REMARK 924 INTRA-LIGAND FREE ENERGY PREDICTED BY IDOCK:   -0.24 KCAL/MOL
REMARK 927      BINDING AFFINITY PREDICTED BY RF-SCORE:    0.00 PKD
ROOT
HETATM    1  C   UNL     1      -5.711   8.499  70.589  1.00  0.00    -0.028 C  
HETATM    2  N   UNL     1      -6.042   7.816  69.341  1.00  0.00    -0.033 NA 
HETATM    3  C   UNL     1      -6.267   6.384  69.572  1.00  0.00    -0.034 C  
HETATM    4  C   UNL     1      -7.169   5.969  68.432  1.00  0.00    -0.084 C  
HETATM    5  C   UNL     1      -8.100   7.155  68.289  1.00  0.00    -0.124 C  
HETATM    6  C   UNL     1      -7.252   8.371  68.688  1.00  0.00    -0.080 C  
ENDROOT
BRANCH   6   7
HETATM    7  C   UNL     1      -6.849   9.252  67.477  1.00  0.00    -0.077 C  
BRANCH   7   8
HETATM    8  C   UNL     1      -7.927   9.386  66.433  1.00  0.00    -0.108 A  
HETATM    9  C   UNL     1      -8.390   8.398  65.587  1.00  0.00    -0.154 A  
HETATM   10  N   UNL     1      -9.446   8.899  64.869  1.00  0.00    -0.355 NA 
HETATM   11  C   UNL     1      -9.700  10.198  65.245  1.00  0.00    -0.300 A  
HETATM   12  H   UNL     1      -9.968   8.384  64.160  1.00  0.00     0.000 HD 
HETATM   13  C   UNL     1      -8.717  10.546  66.166  1.00  0.00    -0.167 A  
HETATM   14  C   UNL     1      -8.722  11.851  66.689  1.00  0.00    -0.185 A  
HETATM   15  C   UNL     1      -9.749  12.752  66.376  1.00  0.00    -0.261 A  
HETATM   16  C   UNL     1     -10.741  12.347  65.471  1.00  0.00    -0.315 A  
HETATM   17  C   UNL     1     -10.717  11.080  64.866  1.00  0.00    -0.278 A  
BRANCH  15  18
HETATM   18  C   UNL     1      -9.869  14.081  67.097  1.00  0.00    -0.240 C  
BRANCH  18  19
HETATM   19  C   UNL     1     -11.144  14.234  67.916  1.00  0.00    -0.278 C  
BRANCH  19  20
HETATM   20  S   UNL     1     -11.002  15.508  69.149  1.00  0.00    -0.282 S  
HETATM   21  O   UNL     1     -11.591  16.722  68.622  1.00  0.00    -0.104 OA 
HETATM   22  O   UNL     1      -9.656  15.492  69.679  1.00  0.00    -0.274 OA 
BRANCH  20  23
HETATM   23  C   UNL     1     -12.093  14.895  70.419  1.00  0.00    -0.330 A  
HETATM   24  C   UNL     1     -12.169  13.517  70.648  1.00  0.00    -0.434 A  
HETATM   25  C   UNL     1     -13.052  13.032  71.611  1.00  0.00    -0.440 A  
HETATM   26  C   UNL     1     -13.846  13.918  72.341  1.00  0.00    -0.668 A  
HETATM   27  C   UNL     1     -13.755  15.294  72.119  1.00  0.00    -0.598 A  
HETATM   28  C   UNL     1     -12.873  15.790  71.158  1.00  0.00    -0.468 A  
ENDBRANCH  20  23
ENDBRANCH  19  20
ENDBRANCH  18  19
ENDBRANCH  15  18
ENDBRANCH   7   8
ENDBRANCH   6   7
TORSDOF 6
ENDMDL
MODEL      248
REMARK 921   NORMALIZED FREE ENERGY PREDICTED BY IDOCK:   -3.96 KCAL/MOL
REMARK 922        TOTAL FREE ENERGY PREDICTED BY IDOCK:   -6.92 KCAL/MOL
REMARK 923 INTER-LIGAND FREE ENERGY PREDICTED BY IDOCK:   -5.13 KCAL/MOL
REMARK 924 INTRA-LIGAND FREE ENERGY PREDICTED BY IDOCK:   -1.79 KCAL/MOL
REMARK 927      BINDING AFFINITY PREDICTED BY RF-SCORE:    0.00 PKD
ROOT
HETATM    1  C   UNL     1      -5.125  12.279  66.497  1.00  0.00     0.505 C  
HETATM    2  N   UNL     1      -5.824  12.610  67.736  1.00  0.00    -0.110 NA 
HETATM    3  C   UNL     1      -5.372  13.903  68.261  1.00  0.00    -0.111 C  
HETATM    4  C   UNL     1      -6.540  14.386  69.092  1.00  0.00    -0.112 C  
HETATM    5  C   UNL     1      -7.738  13.963  68.269  1.00  0.00    -0.136 C  
HETATM    6  C   UNL     1      -7.295  12.673  67.564  1.00  0.00    -0.151 C  
ENDROOT
BRANCH   6   7
HETATM    7  C   UNL     1      -7.957  11.402  68.156  1.00  0.00    -0.133 C  
BRANCH   7   8
HETATM    8  C   UNL     1      -7.741  10.160  67.332  1.00  0.00    -0.095 A  
HETATM    9  C   UNL     1      -7.112   8.997  67.733  1.00  0.00    -0.079 A  
HETATM   10  N   UNL     1      -7.223   8.073  66.725  1.00  0.00    -0.080 NA 
HETATM   11  C   UNL     1      -7.934   8.602  65.673  1.00  0.00    -0.105 A  
HETATM   12  H   UNL     1      -6.834   7.130  66.751  1.00  0.00     0.000 HD 
HETATM   13  C   UNL     1      -8.204   9.927  66.001  1.00  0.00    -0.119 A  
HETATM   14  C   UNL     1      -8.897  10.719  65.069  1.00  0.00    -0.190 A  
HETATM   15  C   UNL     1      -9.401  10.166  63.882  1.00  0.00    -0.336 A  
HETATM   16  C   UNL     1      -9.138   8.816  63.610  1.00  0.00     0.542 A  
HETATM   17  C   UNL     1      -8.376   8.021  64.480  1.00  0.00    -0.048 A  
BRANCH  15  18
HETATM   18  C   UNL     1     -10.322  10.964  62.980  1.00  0.00    -0.084 C  
BRANCH  18  19
HETATM   19  C   UNL     1     -10.453  12.433  63.362  1.00  0.00    -0.311 C  
BRANCH  19  20
HETATM   20  S   UNL     1     -12.099  12.844  63.897  1.00  0.00    -0.496 S  
HETATM   21  O   UNL     1     -12.948  11.688  63.691  1.00  0.00    -0.442 OA 
HETATM   22  O   UNL     1     -12.449  14.142  63.363  1.00  0.00    -0.797 OA 
BRANCH  20  23
HETATM   23  C   UNL     1     -11.864  13.025  65.655  1.00  0.00    -0.399 A  
HETATM   24  C   UNL     1     -11.703  11.882  66.445  1.00  0.00    -0.232 A  
HETATM   25  C   UNL     1     -11.561  12.019  67.824  1.00  0.00    -0.400 A  
HETATM   26  C   UNL     1     -11.575  13.288  68.406  1.00  0.00    -0.372 A  
HETATM   27  C   UNL     1     -11.720  14.427  67.611  1.00  0.00    -0.421 A  
HETATM   28  C   UNL     1     -11.862  14.301  66.228  1.00  0.00    -0.420 A  
ENDBRANCH  20  23
ENDBRANCH  19  20
ENDBRANCH  18  19
ENDBRANCH  15  18
ENDBRANCH   7   8
ENDBRANCH   6   7
TORSDOF 6
ENDMDL
MODEL      249
REMARK 921   NORMALIZED FREE ENERGY PREDICTED BY IDOCK:   -3.95 KCAL/MOL
REMARK 922        TOTAL FREE ENERGY PREDICTED BY IDOCK:   -6.92 KCAL/MOL
REMARK 923 INTER-LIGAND FREE ENERGY PREDICTED BY IDOCK:   -5.86 KCAL/MOL
REMARK 924 INTRA-LIGAND FREE ENERGY PREDICTED BY IDOCK:   -1.05 KCAL/MOL
REMARK 927      BINDING AFFINITY PREDICTED BY RF-SCORE:    0.00 PKD
ROOT
HETATM    1  C   UNL     1      -7.516  19.959  65.784  1.00  0.00    -0.315 C  
HETATM    2  N   UNL     1      -8.580  19.811  66.773  1.00  0.00    -0.312 NA 
HETATM    3  C   UNL     1      -9.860  20.291  66.239  1.00  0.00    -0.346 C  
HETATM    4  C   UNL     1     -10.895  19.531  67.039  1.00  0.00    -0.542 C  
HETATM    5  C   UNL     1     -10.277  18.156  67.171  1.00  0.00    -0.376 C  
HETATM    6  C   UNL     1      -8.763  18.407  67.211  1.00  0.00    -0.259 C  
ENDROOT
BRANCH   6   7
HETATM    7  C   UNL     1      -8.152  18.204  68.622  1.00  0.00    -0.301 C  
BRANCH   7   8
HETATM    8  C   UNL     1      -7.049  17.179  68.670  1.00  0.00    -0.217 A  
HETATM    9  C   UNL     1      -5.814  17.317  69.272  1.00  0.00    -0.203 A  
HETATM   10  N   UNL     1      -5.151  16.119  69.183  1.00  0.00    -0.109 NA 
HETATM   11  C   UNL     1      -5.939  15.187  68.549  1.00  0.00    -0.097 A  
HETATM   12  H   UNL     1      -4.209  15.945  69.536  1.00  0.00     0.000 HD 
HETATM   13  C   UNL     1      -7.098  15.847  68.155  1.00  0.00    -0.125 A  
HETATM   14  C   UNL     1      -8.071  15.124  67.443  1.00  0.00    -0.209 A  
HETATM   15  C   UNL     1      -7.932  13.746  67.224  1.00  0.00    -0.135 A  
HETATM   16  C   UNL     1      -6.764  13.113  67.672  1.00  0.00    -0.163 A  
HETATM   17  C   UNL     1      -5.735  13.824  68.311  1.00  0.00    -0.109 A  
BRANCH  15  18
HETATM   18  C   UNL     1      -9.070  12.929  66.642  1.00  0.00    -0.181 C  
BRANCH  18  19
HETATM   19  C   UNL     1     -10.073  12.433  67.675  1.00  0.00    -0.198 C  
BRANCH  19  20
HETATM   20  S   UNL     1     -10.591  10.760  67.360  1.00  0.00    -0.260 S  
HETATM   21  O   UNL     1     -10.483  10.510  65.937  1.00  0.00    -0.228 OA 
HETATM   22  O   UNL     1     -11.822  10.513  68.078  1.00  0.00    -0.425 OA 
BRANCH  20  23
HETATM   23  C   UNL     1      -9.298   9.833  68.163  1.00  0.00    -0.128 A  
HETATM   24  C   UNL     1      -8.705  10.347  69.322  1.00  0.00    -0.160 A  
HETATM   25  C   UNL     1      -7.666   9.644  69.927  1.00  0.00    -0.146 A  
HETATM   26  C   UNL     1      -7.229   8.435  69.383  1.00  0.00    -0.059 A  
HETATM   27  C   UNL     1      -7.834   7.918  68.236  1.00  0.00    -0.120 A  
HETATM   28  C   UNL     1      -8.876   8.614  67.621  1.00  0.00    -0.138 A  
ENDBRANCH  20  23
ENDBRANCH  19  20
ENDBRANCH  18  19
ENDBRANCH  15  18
ENDBRANCH   7   8
ENDBRANCH   6   7
TORSDOF 6
ENDMDL
MODEL      250
REMARK 921   NORMALIZED FREE ENERGY PREDICTED BY IDOCK:   -3.95 KCAL/MOL
REMARK 922        TOTAL FREE ENERGY PREDICTED BY IDOCK:   -6.91 KCAL/MOL
REMARK 923 INTER-LIGAND FREE ENERGY PREDICTED BY IDOCK:   -5.46 KCAL/MOL
REMARK 924 INTRA-LIGAND FREE ENERGY PREDICTED BY IDOCK:   -1.46 KCAL/MOL
REMARK 927      BINDING AFFINITY PREDICTED BY RF-SCORE:    0.00 PKD
ROOT
HETATM    1  C   UNL     1      -8.638   6.631  73.596  1.00  0.00    -0.123 C  
HETATM    2  N   UNL     1      -8.254   6.213  72.250  1.00  0.00    -0.110 NA 
HETATM    3  C   UNL     1      -6.838   6.506  71.996  1.00  0.00    -0.068 C  
HETATM    4  C   UNL     1      -6.448   5.511  70.927  1.00  0.00    -0.035 C  
HETATM    5  C   UNL     1      -7.188   4.258  71.345  1.00  0.00    -0.043 C  
HETATM    6  C   UNL     1      -8.472   4.765  72.017  1.00  0.00    -0.119 C  
ENDROOT
BRANCH   6   7
HETATM    7  C   UNL     1      -9.737   4.549  71.146  1.00  0.00    -0.256 C  
BRANCH   7   8
HETATM    8  C   UNL     1      -9.453   3.954  69.792  1.00  0.00    -0.264 A  
HETATM    9  C   UNL     1      -9.386   2.611  69.474  1.00  0.00    -0.114 A  
HETATM   10  N   UNL     1      -9.216   2.494  68.117  1.00  0.00    -0.189 NA 
HETATM   11  C   UNL     1      -9.190   3.739  67.533  1.00  0.00    -0.182 A  
HETATM   12  H   UNL     1      -9.121   1.611  67.614  1.00  0.00     0.000 HD 
HETATM   13  C   UNL     1      -9.263   4.666  68.568  1.00  0.00    -0.173 A  
HETATM   14  C   UNL     1      -9.218   6.034  68.246  1.00  0.00    -0.117 A  
HETATM   15  C   UNL     1      -9.206   6.462  66.911  1.00  0.00    -0.144 A  
HETATM   16  C   UNL     1      -9.172   5.493  65.898  1.00  0.00    -0.158 A  
HETATM   17  C   UNL     1      -9.130   4.120  66.189  1.00  0.00    -0.137 A  
BRANCH  15  18
HETATM   18  C   UNL     1      -9.367   7.929  66.561  1.00  0.00    -0.255 C  
BRANCH  18  19
HETATM   19  C   UNL     1     -10.629   8.571  67.124  1.00  0.00    -0.243 C  
BRANCH  19  20
HETATM   20  S   UNL     1     -10.275  10.043  68.058  1.00  0.00    -0.194 S  
HETATM   21  O   UNL     1     -10.970  11.154  67.439  1.00  0.00    -0.254 OA 
HETATM   22  O   UNL     1      -8.854  10.095  68.321  1.00  0.00    -0.121 OA 
BRANCH  20  23
HETATM   23  C   UNL     1     -11.101   9.691  69.598  1.00  0.00    -0.193 A  
HETATM   24  C   UNL     1     -10.900   8.452  70.214  1.00  0.00    -0.244 A  
HETATM   25  C   UNL     1     -11.577   8.159  71.396  1.00  0.00    -0.314 A  
HETATM   26  C   UNL     1     -12.441   9.100  71.960  1.00  0.00    -0.452 A  
HETATM   27  C   UNL     1     -12.625  10.342  71.349  1.00  0.00    -0.539 A  
HETATM   28  C   UNL     1     -11.952  10.646  70.165  1.00  0.00    -0.417 A  
ENDBRANCH  20  23
ENDBRANCH  19  20
ENDBRANCH  18  19
ENDBRANCH  15  18
ENDBRANCH   7   8
ENDBRANCH   6   7
TORSDOF 6
ENDMDL
MODEL      251
REMARK 921   NORMALIZED FREE ENERGY PREDICTED BY IDOCK:   -3.94 KCAL/MOL
REMARK 922        TOTAL FREE ENERGY PREDICTED BY IDOCK:   -6.90 KCAL/MOL
REMARK 923 INTER-LIGAND FREE ENERGY PREDICTED BY IDOCK:   -5.99 KCAL/MOL
REMARK 924 INTRA-LIGAND FREE ENERGY PREDICTED BY IDOCK:   -0.91 KCAL/MOL
REMARK 927      BINDING AFFINITY PREDICTED BY RF-SCORE:    0.00 PKD
ROOT
HETATM    1  C   UNL     1      -6.877  10.279  66.163  1.00  0.00    -0.115 C  
HETATM    2  N   UNL     1      -6.775  10.248  67.619  1.00  0.00    -0.073 NA 
HETATM    3  C   UNL     1      -5.375  10.126  68.043  1.00  0.00    -0.038 C  
HETATM    4  C   UNL     1      -5.362  10.726  69.431  1.00  0.00    -0.037 C  
HETATM    5  C   UNL     1      -6.306  11.902  69.300  1.00  0.00    -0.105 C  
HETATM    6  C   UNL     1      -7.344  11.460  68.258  1.00  0.00    -0.089 C  
ENDROOT
BRANCH   6   7
HETATM    7  C   UNL     1      -8.727  11.136  68.881  1.00  0.00    -0.086 C  
BRANCH   7   8
HETATM    8  C   UNL     1      -9.895  11.580  68.040  1.00  0.00    -0.192 A  
HETATM    9  C   UNL     1     -10.972  10.812  67.644  1.00  0.00    -0.306 A  
HETATM   10  N   UNL     1     -11.864  11.621  66.986  1.00  0.00    -0.575 NA 
HETATM   11  C   UNL     1     -11.401  12.915  66.960  1.00  0.00    -0.309 A  
HETATM   12  H   UNL     1     -12.744  11.307  66.575  1.00  0.00     0.000 HD 
HETATM   13  C   UNL     1     -10.140  12.899  67.547  1.00  0.00    -0.214 A  
HETATM   14  C   UNL     1      -9.417  14.104  67.616  1.00  0.00    -0.213 A  
HETATM   15  C   UNL     1      -9.990  15.315  67.202  1.00  0.00    -0.233 A  
HETATM   16  C   UNL     1     -11.279  15.291  66.651  1.00  0.00    -0.232 A  
HETATM   17  C   UNL     1     -11.992  14.092  66.490  1.00  0.00    -0.470 A  
BRANCH  15  18
HETATM   18  C   UNL     1      -9.295  16.637  67.467  1.00  0.00    -0.219 C  
BRANCH  18  19
HETATM   19  C   UNL     1      -8.562  16.700  68.800  1.00  0.00    -0.261 C  
BRANCH  19  20
HETATM   20  S   UNL     1      -6.796  16.775  68.593  1.00  0.00    -0.186 S  
HETATM   21  O   UNL     1      -6.406  15.760  67.636  1.00  0.00    -0.137 OA 
HETATM   22  O   UNL     1      -6.180  16.857  69.899  1.00  0.00    -0.227 OA 
BRANCH  20  23
HETATM   23  C   UNL     1      -6.600  18.359  67.799  1.00  0.00    -0.213 A  
HETATM   24  C   UNL     1      -6.565  19.517  68.583  1.00  0.00    -0.318 A  
HETATM   25  C   UNL     1      -6.454  20.759  67.962  1.00  0.00    -0.362 A  
HETATM   26  C   UNL     1      -6.372  20.841  66.571  1.00  0.00    -0.313 A  
HETATM   27  C   UNL     1      -6.391  19.680  65.794  1.00  0.00    -0.233 A  
HETATM   28  C   UNL     1      -6.502  18.431  66.406  1.00  0.00    -0.235 A  
ENDBRANCH  20  23
ENDBRANCH  19  20
ENDBRANCH  18  19
ENDBRANCH  15  18
ENDBRANCH   7   8
ENDBRANCH   6   7
TORSDOF 6
ENDMDL
MODEL      252
REMARK 921   NORMALIZED FREE ENERGY PREDICTED BY IDOCK:   -3.93 KCAL/MOL
REMARK 922        TOTAL FREE ENERGY PREDICTED BY IDOCK:   -6.89 KCAL/MOL
REMARK 923 INTER-LIGAND FREE ENERGY PREDICTED BY IDOCK:   -5.45 KCAL/MOL
REMARK 924 INTRA-LIGAND FREE ENERGY PREDICTED BY IDOCK:   -1.43 KCAL/MOL
REMARK 927      BINDING AFFINITY PREDICTED BY RF-SCORE:    0.00 PKD
ROOT
HETATM    1  C   UNL     1     -10.599  11.132  63.645  1.00  0.00    -0.347 C  
HETATM    2  N   UNL     1     -10.011   9.996  64.351  1.00  0.00    -0.173 NA 
HETATM    3  C   UNL     1      -8.715   9.631  63.766  1.00  0.00    -0.223 C  
HETATM    4  C   UNL     1      -7.984   8.949  64.901  1.00  0.00    -0.129 C  
HETATM    5  C   UNL     1      -8.382   9.776  66.105  1.00  0.00    -0.122 C  
HETATM    6  C   UNL     1      -9.804  10.264  65.794  1.00  0.00    -0.257 C  
ENDROOT
BRANCH   6   7
HETATM    7  C   UNL     1     -10.890   9.540  66.633  1.00  0.00     0.018 C  
BRANCH   7   8
HETATM    8  C   UNL     1     -10.979  10.017  68.059  1.00  0.00    -0.296 A  
HETATM    9  C   UNL     1     -11.343  11.277  68.491  1.00  0.00    -0.276 A  
HETATM   10  N   UNL     1     -11.404  11.266  69.862  1.00  0.00    -0.415 NA 
HETATM   11  C   UNL     1     -11.107  10.011  70.339  1.00  0.00    -0.327 A  
HETATM   12  H   UNL     1     -11.637  12.071  70.443  1.00  0.00     0.000 HD 
HETATM   13  C   UNL     1     -10.766   9.235  69.236  1.00  0.00    -0.211 A  
HETATM   14  C   UNL     1     -10.378   7.900  69.449  1.00  0.00    -0.220 A  
HETATM   15  C   UNL     1     -10.432   7.327  70.728  1.00  0.00    -0.224 A  
HETATM   16  C   UNL     1     -10.817   8.136  71.807  1.00  0.00    -0.317 A  
HETATM   17  C   UNL     1     -11.129   9.495  71.639  1.00  0.00    -0.336 A  
BRANCH  15  18
HETATM   18  C   UNL     1     -10.214   5.840  70.926  1.00  0.00    -0.275 C  
BRANCH  18  19
HETATM   19  C   UNL     1     -10.241   5.028  69.637  1.00  0.00    -0.236 C  
BRANCH  19  20
HETATM   20  S   UNL     1      -8.620   4.477  69.156  1.00  0.00    -0.084 S  
HETATM   21  O   UNL     1      -8.501   3.070  69.479  1.00  0.00    -0.057 OA 
HETATM   22  O   UNL     1      -7.646   5.441  69.619  1.00  0.00    -0.067 OA 
BRANCH  20  23
HETATM   23  C   UNL     1      -8.714   4.609  67.381  1.00  0.00    -0.104 A  
HETATM   24  C   UNL     1      -7.601   5.070  66.669  1.00  0.00    -0.088 A  
HETATM   25  C   UNL     1      -7.687   5.213  65.286  1.00  0.00    -0.087 A  
HETATM   26  C   UNL     1      -8.872   4.894  64.621  1.00  0.00    -0.139 A  
HETATM   27  C   UNL     1      -9.975   4.420  65.334  1.00  0.00    -0.231 A  
HETATM   28  C   UNL     1      -9.900   4.271  66.720  1.00  0.00    -0.230 A  
ENDBRANCH  20  23
ENDBRANCH  19  20
ENDBRANCH  18  19
ENDBRANCH  15  18
ENDBRANCH   7   8
ENDBRANCH   6   7
TORSDOF 6
ENDMDL
MODEL      253
REMARK 921   NORMALIZED FREE ENERGY PREDICTED BY IDOCK:   -3.89 KCAL/MOL
REMARK 922        TOTAL FREE ENERGY PREDICTED BY IDOCK:   -6.83 KCAL/MOL
REMARK 923 INTER-LIGAND FREE ENERGY PREDICTED BY IDOCK:   -5.76 KCAL/MOL
REMARK 924 INTRA-LIGAND FREE ENERGY PREDICTED BY IDOCK:   -1.07 KCAL/MOL
REMARK 927      BINDING AFFINITY PREDICTED BY RF-SCORE:    0.00 PKD
ROOT
HETATM    1  C   UNL     1      -7.085   5.538  67.891  1.00  0.00    -0.071 C  
HETATM    2  N   UNL     1      -8.112   5.547  66.853  1.00  0.00    -0.102 NA 
HETATM    3  C   UNL     1      -7.566   5.077  65.573  1.00  0.00    -0.086 C  
HETATM    4  C   UNL     1      -8.775   4.550  64.834  1.00  0.00    -0.140 C  
HETATM    5  C   UNL     1      -9.574   3.877  65.929  1.00  0.00    -0.185 C  
HETATM    6  C   UNL     1      -9.278   4.696  67.193  1.00  0.00    -0.129 C  
ENDROOT
BRANCH   6   7
HETATM    7  C   UNL     1     -10.473   5.581  67.635  1.00  0.00    -0.256 C  
BRANCH   7   8
HETATM    8  C   UNL     1     -10.195   6.418  68.856  1.00  0.00    -0.215 A  
HETATM    9  C   UNL     1     -10.210   5.997  70.171  1.00  0.00    -0.208 A  
HETATM   10  N   UNL     1      -9.797   7.038  70.965  1.00  0.00    -0.181 NA 
HETATM   11  C   UNL     1      -9.490   8.132  70.190  1.00  0.00    -0.167 A  
HETATM   12  H   UNL     1      -9.728   7.004  71.983  1.00  0.00     0.000 HD 
HETATM   13  C   UNL     1      -9.802   7.791  68.878  1.00  0.00    -0.166 A  
HETATM   14  C   UNL     1      -9.616   8.757  67.873  1.00  0.00    -0.169 A  
HETATM   15  C   UNL     1      -9.032   9.999  68.163  1.00  0.00    -0.122 A  
HETATM   16  C   UNL     1      -8.698  10.286  69.494  1.00  0.00    -0.155 A  
HETATM   17  C   UNL     1      -8.950   9.375  70.533  1.00  0.00    -0.303 A  
BRANCH  15  18
HETATM   18  C   UNL     1      -8.641  10.955  67.053  1.00  0.00    -0.136 C  
BRANCH  18  19
HETATM   19  C   UNL     1      -8.624  12.421  67.469  1.00  0.00    -0.177 C  
BRANCH  19  20
HETATM   20  S   UNL     1     -10.070  13.295  66.914  1.00  0.00    -0.255 S  
HETATM   21  O   UNL     1     -10.944  12.353  66.245  1.00  0.00    -0.267 OA 
HETATM   22  O   UNL     1      -9.653  14.522  66.272  1.00  0.00    -0.286 OA 
BRANCH  20  23
HETATM   23  C   UNL     1     -10.839  13.726  68.464  1.00  0.00    -0.263 A  
HETATM   24  C   UNL     1     -10.568  14.973  69.038  1.00  0.00    -0.245 A  
HETATM   25  C   UNL     1     -11.135  15.295  70.269  1.00  0.00    -0.316 A  
HETATM   26  C   UNL     1     -11.969  14.382  70.916  1.00  0.00    -0.393 A  
HETATM   27  C   UNL     1     -12.249  13.145  70.331  1.00  0.00    -0.389 A  
HETATM   28  C   UNL     1     -11.687  12.812  69.097  1.00  0.00    -0.375 A  
ENDBRANCH  20  23
ENDBRANCH  19  20
ENDBRANCH  18  19
ENDBRANCH  15  18
ENDBRANCH   7   8
ENDBRANCH   6   7
TORSDOF 6
ENDMDL
MODEL      254
REMARK 921   NORMALIZED FREE ENERGY PREDICTED BY IDOCK:   -3.87 KCAL/MOL
REMARK 922        TOTAL FREE ENERGY PREDICTED BY IDOCK:   -6.81 KCAL/MOL
REMARK 923 INTER-LIGAND FREE ENERGY PREDICTED BY IDOCK:   -6.17 KCAL/MOL
REMARK 924 INTRA-LIGAND FREE ENERGY PREDICTED BY IDOCK:   -0.63 KCAL/MOL
REMARK 927      BINDING AFFINITY PREDICTED BY RF-SCORE:    0.00 PKD
ROOT
HETATM    1  C   UNL     1      -6.506  11.516  67.876  1.00  0.00    -0.056 C  
HETATM    2  N   UNL     1      -6.884  10.950  66.584  1.00  0.00    -0.119 NA 
HETATM    3  C   UNL     1      -5.824  10.077  66.066  1.00  0.00    -0.065 C  
HETATM    4  C   UNL     1      -6.554   9.126  65.144  1.00  0.00    -0.072 C  
HETATM    5  C   UNL     1      -7.845   8.859  65.889  1.00  0.00    -0.102 C  
HETATM    6  C   UNL     1      -8.137  10.160  66.649  1.00  0.00    -0.120 C  
ENDROOT
BRANCH   6   7
HETATM    7  C   UNL     1      -9.310  10.969  66.037  1.00  0.00    -0.225 C  
BRANCH   7   8
HETATM    8  C   UNL     1     -10.438  11.235  67.000  1.00  0.00    -0.272 A  
HETATM    9  C   UNL     1     -11.395  10.334  67.426  1.00  0.00     0.126 A  
HETATM   10  N   UNL     1     -12.170  10.942  68.381  1.00  0.00    -0.810 NA 
HETATM   11  C   UNL     1     -11.724  12.223  68.607  1.00  0.00    -0.328 A  
HETATM   12  H   UNL     1     -12.961  10.506  68.855  1.00  0.00     0.000 HD 
HETATM   13  C   UNL     1     -10.692  12.452  67.704  1.00  0.00    -0.248 A  
HETATM   14  C   UNL     1     -10.076  13.716  67.696  1.00  0.00    -0.242 A  
HETATM   15  C   UNL     1     -10.417  14.692  68.643  1.00  0.00    -0.244 A  
HETATM   16  C   UNL     1     -11.438  14.406  69.561  1.00  0.00    -0.333 A  
HETATM   17  C   UNL     1     -12.130  13.184  69.539  1.00  0.00    -0.296 A  
BRANCH  15  18
HETATM   18  C   UNL     1      -9.614  15.973  68.768  1.00  0.00    -0.221 C  
BRANCH  18  19
HETATM   19  C   UNL     1      -9.870  16.981  67.655  1.00  0.00    -0.257 C  
BRANCH  19  20
HETATM   20  S   UNL     1     -10.145  18.622  68.285  1.00  0.00    -0.392 S  
HETATM   21  O   UNL     1     -10.610  18.514  69.653  1.00  0.00     0.454 OA 
HETATM   22  O   UNL     1     -10.880  19.381  67.297  1.00  0.00    -0.484 OA 
BRANCH  20  23
HETATM   23  C   UNL     1      -8.482  19.263  68.337  1.00  0.00    -0.351 A  
HETATM   24  C   UNL     1      -8.156  20.381  67.562  1.00  0.00    -0.331 A  
HETATM   25  C   UNL     1      -6.847  20.859  67.569  1.00  0.00    -0.416 A  
HETATM   26  C   UNL     1      -5.876  20.228  68.348  1.00  0.00    -0.294 A  
HETATM   27  C   UNL     1      -6.211  19.122  69.133  1.00  0.00    -0.298 A  
HETATM   28  C   UNL     1      -7.519  18.636  69.134  1.00  0.00    -0.177 A  
ENDBRANCH  20  23
ENDBRANCH  19  20
ENDBRANCH  18  19
ENDBRANCH  15  18
ENDBRANCH   7   8
ENDBRANCH   6   7
TORSDOF 6
ENDMDL
MODEL      255
REMARK 921   NORMALIZED FREE ENERGY PREDICTED BY IDOCK:   -3.87 KCAL/MOL
REMARK 922        TOTAL FREE ENERGY PREDICTED BY IDOCK:   -6.80 KCAL/MOL
REMARK 923 INTER-LIGAND FREE ENERGY PREDICTED BY IDOCK:   -5.77 KCAL/MOL
REMARK 924 INTRA-LIGAND FREE ENERGY PREDICTED BY IDOCK:   -1.03 KCAL/MOL
REMARK 927      BINDING AFFINITY PREDICTED BY RF-SCORE:    0.00 PKD
ROOT
HETATM    1  C   UNL     1      -9.802   4.377  66.041  1.00  0.00    -0.230 C  
HETATM    2  N   UNL     1      -9.616   5.691  66.650  1.00  0.00    -0.145 NA 
HETATM    3  C   UNL     1     -10.903   6.374  66.826  1.00  0.00    -0.291 C  
HETATM    4  C   UNL     1     -10.653   7.335  67.966  1.00  0.00    -0.247 C  
HETATM    5  C   UNL     1      -9.770   6.532  68.897  1.00  0.00    -0.134 C  
HETATM    6  C   UNL     1      -8.951   5.620  67.974  1.00  0.00    -0.108 C  
ENDROOT
BRANCH   6   7
HETATM    7  C   UNL     1      -7.468   6.057  67.851  1.00  0.00    -0.085 C  
BRANCH   7   8
HETATM    8  C   UNL     1      -7.045   6.394  66.445  1.00  0.00    -0.068 A  
HETATM    9  C   UNL     1      -6.414   5.556  65.546  1.00  0.00    -0.040 A  
HETATM   10  N   UNL     1      -6.303   6.212  64.345  1.00  0.00    -0.030 NA 
HETATM   11  C   UNL     1      -6.871   7.461  64.433  1.00  0.00    -0.054 A  
HETATM   12  H   UNL     1      -5.863   5.828  63.508  1.00  0.00     0.000 HD 
HETATM   13  C   UNL     1      -7.274   7.623  65.755  1.00  0.00    -0.065 A  
HETATM   14  C   UNL     1      -7.861   8.845  66.131  1.00  0.00    -0.102 A  
HETATM   15  C   UNL     1      -8.133   9.839  65.180  1.00  0.00    -0.132 A  
HETATM   16  C   UNL     1      -7.744   9.618  63.851  1.00  0.00    -0.131 A  
HETATM   17  C   UNL     1      -7.080   8.444  63.460  1.00  0.00    -0.090 A  
BRANCH  15  18
HETATM   18  C   UNL     1      -8.949  11.064  65.544  1.00  0.00    -0.208 C  
BRANCH  18  19
HETATM   19  C   UNL     1     -10.319  10.750  66.132  1.00  0.00    -0.239 C  
BRANCH  19  20
HETATM   20  S   UNL     1     -10.826  11.955  67.338  1.00  0.00    -0.257 S  
HETATM   21  O   UNL     1      -9.729  12.167  68.260  1.00  0.00    -0.209 OA 
HETATM   22  O   UNL     1     -12.150  11.611  67.808  1.00  0.00    -0.613 OA 
BRANCH  20  23
HETATM   23  C   UNL     1     -10.969  13.421  66.334  1.00  0.00    -0.289 A  
HETATM   24  C   UNL     1     -11.964  13.483  65.353  1.00  0.00    -0.406 A  
HETATM   25  C   UNL     1     -12.051  14.611  64.539  1.00  0.00    -0.490 A  
HETATM   26  C   UNL     1     -11.156  15.668  64.711  1.00  0.00    -0.426 A  
HETATM   27  C   UNL     1     -10.175  15.608  65.703  1.00  0.00    -0.402 A  
HETATM   28  C   UNL     1     -10.079  14.483  66.524  1.00  0.00    -0.280 A  
ENDBRANCH  20  23
ENDBRANCH  19  20
ENDBRANCH  18  19
ENDBRANCH  15  18
ENDBRANCH   7   8
ENDBRANCH   6   7
TORSDOF 6
ENDMDL
MODEL      256
REMARK 921   NORMALIZED FREE ENERGY PREDICTED BY IDOCK:   -3.86 KCAL/MOL
REMARK 922        TOTAL FREE ENERGY PREDICTED BY IDOCK:   -6.79 KCAL/MOL
REMARK 923 INTER-LIGAND FREE ENERGY PREDICTED BY IDOCK:   -6.27 KCAL/MOL
REMARK 924 INTRA-LIGAND FREE ENERGY PREDICTED BY IDOCK:   -0.53 KCAL/MOL
REMARK 927      BINDING AFFINITY PREDICTED BY RF-SCORE:    0.00 PKD
ROOT
HETATM    1  C   UNL     1      -9.860   7.116  67.590  1.00  0.00    -0.147 C  
HETATM    2  N   UNL     1      -9.119   8.313  67.205  1.00  0.00    -0.136 NA 
HETATM    3  C   UNL     1      -8.645   8.212  65.820  1.00  0.00    -0.154 C  
HETATM    4  C   UNL     1      -8.494   9.651  65.381  1.00  0.00    -0.155 C  
HETATM    5  C   UNL     1      -9.688  10.326  66.021  1.00  0.00    -0.274 C  
HETATM    6  C   UNL     1      -9.928   9.550  67.324  1.00  0.00    -0.189 C  
ENDROOT
BRANCH   6   7
HETATM    7  C   UNL     1      -9.507  10.344  68.588  1.00  0.00    -0.167 C  
BRANCH   7   8
HETATM    8  C   UNL     1     -10.643  11.066  69.263  1.00  0.00    -0.236 A  
HETATM    9  C   UNL     1     -11.580  10.521  70.120  1.00  0.00    -0.326 A  
HETATM   10  N   UNL     1     -12.372  11.534  70.599  1.00  0.00    -0.373 NA 
HETATM   11  C   UNL     1     -11.958  12.741  70.088  1.00  0.00    -0.296 A  
HETATM   12  H   UNL     1     -13.154  11.409  71.242  1.00  0.00     0.000 HD 
HETATM   13  C   UNL     1     -10.928  12.464  69.194  1.00  0.00    -0.206 A  
HETATM   14  C   UNL     1     -10.343  13.534  68.494  1.00  0.00    -0.242 A  
HETATM   15  C   UNL     1     -10.711  14.860  68.762  1.00  0.00    -0.252 A  
HETATM   16  C   UNL     1     -11.727  15.097  69.698  1.00  0.00    -0.353 A  
HETATM   17  C   UNL     1     -12.390  14.045  70.351  1.00  0.00    -0.429 A  
BRANCH  15  18
HETATM   18  C   UNL     1      -9.939  16.020  68.162  1.00  0.00    -0.228 C  
BRANCH  18  19
HETATM   19  C   UNL     1      -8.430  15.928  68.348  1.00  0.00    -0.176 C  
BRANCH  19  20
HETATM   20  S   UNL     1      -7.541  16.785  67.068  1.00  0.00    -0.225 S  
HETATM   21  O   UNL     1      -7.615  15.997  65.855  1.00  0.00     0.510 OA 
HETATM   22  O   UNL     1      -6.272  17.230  67.602  1.00  0.00    -0.141 OA 
BRANCH  20  23
HETATM   23  C   UNL     1      -8.565  18.226  66.830  1.00  0.00    -0.263 A  
HETATM   24  C   UNL     1      -8.228  19.418  67.479  1.00  0.00    -0.321 A  
HETATM   25  C   UNL     1      -9.050  20.533  67.328  1.00  0.00    -0.473 A  
HETATM   26  C   UNL     1     -10.194  20.457  66.531  1.00  0.00    -0.365 A  
HETATM   27  C   UNL     1     -10.516  19.269  65.873  1.00  0.00    -0.534 A  
HETATM   28  C   UNL     1      -9.699  18.146  66.017  1.00  0.00    -0.115 A  
ENDBRANCH  20  23
ENDBRANCH  19  20
ENDBRANCH  18  19
ENDBRANCH  15  18
ENDBRANCH   7   8
ENDBRANCH   6   7
TORSDOF 6
ENDMDL
MODEL      257
REMARK 921   NORMALIZED FREE ENERGY PREDICTED BY IDOCK:   -3.85 KCAL/MOL
REMARK 922        TOTAL FREE ENERGY PREDICTED BY IDOCK:   -6.78 KCAL/MOL
REMARK 923 INTER-LIGAND FREE ENERGY PREDICTED BY IDOCK:   -6.13 KCAL/MOL
REMARK 924 INTRA-LIGAND FREE ENERGY PREDICTED BY IDOCK:   -0.65 KCAL/MOL
REMARK 927      BINDING AFFINITY PREDICTED BY RF-SCORE:    0.00 PKD
ROOT
HETATM    1  C   UNL     1      -6.498   8.510  70.987  1.00  0.00    -0.046 C  
HETATM    2  N   UNL     1      -6.747   7.642  69.839  1.00  0.00    -0.045 NA 
HETATM    3  C   UNL     1      -6.537   6.234  70.194  1.00  0.00    -0.045 C  
HETATM    4  C   UNL     1      -7.395   5.478  69.205  1.00  0.00    -0.077 C  
HETATM    5  C   UNL     1      -8.631   6.347  69.097  1.00  0.00    -0.125 C  
HETATM    6  C   UNL     1      -8.123   7.780  69.305  1.00  0.00    -0.127 C  
ENDROOT
BRANCH   6   7
HETATM    7  C   UNL     1      -8.106   8.612  67.996  1.00  0.00    -0.111 C  
BRANCH   7   8
HETATM    8  C   UNL     1      -9.375   9.384  67.746  1.00  0.00    -0.144 A  
HETATM    9  C   UNL     1     -10.644   8.864  67.578  1.00  0.00    -0.237 A  
HETATM   10  N   UNL     1     -11.532   9.905  67.484  1.00  0.00    -0.374 NA 
HETATM   11  C   UNL     1     -10.871  11.105  67.610  1.00  0.00    -0.247 A  
HETATM   12  H   UNL     1     -12.538   9.804  67.342  1.00  0.00     0.000 HD 
HETATM   13  C   UNL     1      -9.516  10.805  67.700  1.00  0.00    -0.166 A  
HETATM   14  C   UNL     1      -8.600  11.868  67.801  1.00  0.00    -0.154 A  
HETATM   15  C   UNL     1      -9.042  13.194  67.914  1.00  0.00    -0.207 A  
HETATM   16  C   UNL     1     -10.420  13.447  67.857  1.00  0.00    -0.243 A  
HETATM   17  C   UNL     1     -11.354  12.416  67.671  1.00  0.00    -0.371 A  
BRANCH  15  18
HETATM   18  C   UNL     1      -8.071  14.315  68.230  1.00  0.00    -0.143 C  
BRANCH  18  19
HETATM   19  C   UNL     1      -8.664  15.712  68.095  1.00  0.00    -0.168 C  
BRANCH  19  20
HETATM   20  S   UNL     1      -8.246  16.474  66.543  1.00  0.00    -0.324 S  
HETATM   21  O   UNL     1      -9.091  15.904  65.513  1.00  0.00    -0.286 OA 
HETATM   22  O   UNL     1      -6.806  16.496  66.410  1.00  0.00    -0.186 OA 
BRANCH  20  23
HETATM   23  C   UNL     1      -8.793  18.149  66.813  1.00  0.00    -0.264 A  
HETATM   24  C   UNL     1     -10.072  18.528  66.392  1.00  0.00    -0.430 A  
HETATM   25  C   UNL     1     -10.485  19.847  66.565  1.00  0.00    -0.589 A  
HETATM   26  C   UNL     1      -9.629  20.777  67.158  1.00  0.00    -0.465 A  
HETATM   27  C   UNL     1      -8.359  20.390  67.590  1.00  0.00    -0.286 A  
HETATM   28  C   UNL     1      -7.936  19.070  67.423  1.00  0.00    -0.272 A  
ENDBRANCH  20  23
ENDBRANCH  19  20
ENDBRANCH  18  19
ENDBRANCH  15  18
ENDBRANCH   7   8
ENDBRANCH   6   7
TORSDOF 6
ENDMDL
MODEL      258
REMARK 921   NORMALIZED FREE ENERGY PREDICTED BY IDOCK:   -3.85 KCAL/MOL
REMARK 922        TOTAL FREE ENERGY PREDICTED BY IDOCK:   -6.77 KCAL/MOL
REMARK 923 INTER-LIGAND FREE ENERGY PREDICTED BY IDOCK:   -5.84 KCAL/MOL
REMARK 924 INTRA-LIGAND FREE ENERGY PREDICTED BY IDOCK:   -0.93 KCAL/MOL
REMARK 927      BINDING AFFINITY PREDICTED BY RF-SCORE:    0.00 PKD
ROOT
HETATM    1  C   UNL     1     -12.397   6.636  71.231  1.00  0.00    -0.273 C  
HETATM    2  N   UNL     1     -11.659   6.396  72.468  1.00  0.00    -0.256 NA 
HETATM    3  C   UNL     1     -11.875   5.026  72.949  1.00  0.00    -0.039 C  
HETATM    4  C   UNL     1     -10.645   4.734  73.779  1.00  0.00    -0.330 C  
HETATM    5  C   UNL     1      -9.537   5.392  72.984  1.00  0.00    -0.159 C  
HETATM    6  C   UNL     1     -10.199   6.603  72.313  1.00  0.00    -0.187 C  
ENDROOT
BRANCH   6   7
HETATM    7  C   UNL     1      -9.780   7.953  72.952  1.00  0.00    -0.339 C  
BRANCH   7   8
HETATM    8  C   UNL     1      -8.476   8.497  72.431  1.00  0.00    -0.196 A  
HETATM    9  C   UNL     1      -7.258   8.496  73.081  1.00  0.00     0.007 A  
HETATM   10  N   UNL     1      -6.305   8.984  72.222  1.00  0.00    -0.256 NA 
HETATM   11  C   UNL     1      -6.874   9.285  71.006  1.00  0.00    -0.089 A  
HETATM   12  H   UNL     1      -5.318   9.104  72.451  1.00  0.00     0.000 HD 
HETATM   13  C   UNL     1      -8.240   9.059  71.138  1.00  0.00    -0.198 A  
HETATM   14  C   UNL     1      -9.073   9.329  70.038  1.00  0.00    -0.229 A  
HETATM   15  C   UNL     1      -8.535   9.716  68.802  1.00  0.00    -0.123 A  
HETATM   16  C   UNL     1      -7.148   9.895  68.703  1.00  0.00    -0.071 A  
HETATM   17  C   UNL     1      -6.299   9.716  69.807  1.00  0.00    -0.047 A  
BRANCH  15  18
HETATM   18  C   UNL     1      -9.409   9.805  67.565  1.00  0.00    -0.152 C  
BRANCH  18  19
HETATM   19  C   UNL     1      -9.367  11.159  66.868  1.00  0.00    -0.175 C  
BRANCH  19  20
HETATM   20  S   UNL     1     -10.219  12.418  67.792  1.00  0.00    -0.216 S  
HETATM   21  O   UNL     1      -9.249  13.117  68.611  1.00  0.00    -0.109 OA 
HETATM   22  O   UNL     1     -11.415  11.842  68.365  1.00  0.00    -0.250 OA 
BRANCH  20  23
HETATM   23  C   UNL     1     -10.720  13.531  66.493  1.00  0.00    -0.287 A  
HETATM   24  C   UNL     1     -11.833  13.211  65.709  1.00  0.00    -0.442 A  
HETATM   25  C   UNL     1     -12.201  14.059  64.667  1.00  0.00    -0.460 A  
HETATM   26  C   UNL     1     -11.467  15.219  64.415  1.00  0.00    -0.244 A  
HETATM   27  C   UNL     1     -10.366  15.542  65.211  1.00  0.00    -0.416 A  
HETATM   28  C   UNL     1      -9.989  14.700  66.258  1.00  0.00    -0.306 A  
ENDBRANCH  20  23
ENDBRANCH  19  20
ENDBRANCH  18  19
ENDBRANCH  15  18
ENDBRANCH   7   8
ENDBRANCH   6   7
TORSDOF 6
ENDMDL
MODEL      259
REMARK 921   NORMALIZED FREE ENERGY PREDICTED BY IDOCK:   -3.76 KCAL/MOL
REMARK 922        TOTAL FREE ENERGY PREDICTED BY IDOCK:   -6.65 KCAL/MOL
REMARK 923 INTER-LIGAND FREE ENERGY PREDICTED BY IDOCK:   -5.09 KCAL/MOL
REMARK 924 INTRA-LIGAND FREE ENERGY PREDICTED BY IDOCK:   -1.55 KCAL/MOL
REMARK 927      BINDING AFFINITY PREDICTED BY RF-SCORE:    0.00 PKD
ROOT
HETATM    1  C   UNL     1     -10.513  16.965  65.904  1.00  0.00    -0.285 C  
HETATM    2  N   UNL     1     -10.440  15.841  66.833  1.00  0.00    -0.311 NA 
HETATM    3  C   UNL     1     -10.945  16.224  68.157  1.00  0.00    -0.343 C  
HETATM    4  C   UNL     1     -11.396  14.916  68.767  1.00  0.00    -0.304 C  
HETATM    5  C   UNL     1     -12.015  14.191  67.591  1.00  0.00    -0.405 C  
HETATM    6  C   UNL     1     -11.214  14.664  66.370  1.00  0.00    -0.336 C  
ENDROOT
BRANCH   6   7
HETATM    7  C   UNL     1     -10.255  13.578  65.817  1.00  0.00    -0.305 C  
BRANCH   7   8
HETATM    8  C   UNL     1      -9.133  13.218  66.756  1.00  0.00    -0.216 A  
HETATM    9  C   UNL     1      -8.050  14.004  67.094  1.00  0.00    -0.099 A  
HETATM   10  N   UNL     1      -7.323  13.352  68.058  1.00  0.00    -0.112 NA 
HETATM   11  C   UNL     1      -7.923  12.156  68.376  1.00  0.00    -0.152 A  
HETATM   12  H   UNL     1      -6.462  13.703  68.479  1.00  0.00     0.000 HD 
HETATM   13  C   UNL     1      -9.014  12.018  67.522  1.00  0.00    -0.174 A  
HETATM   14  C   UNL     1      -9.790  10.849  67.611  1.00  0.00    -0.192 A  
HETATM   15  C   UNL     1      -9.542   9.890  68.603  1.00  0.00    -0.159 A  
HETATM   16  C   UNL     1      -8.455  10.087  69.467  1.00  0.00    -0.186 A  
HETATM   17  C   UNL     1      -7.610  11.202  69.349  1.00  0.00    -0.013 A  
BRANCH  15  18
HETATM   18  C   UNL     1     -10.501   8.737  68.831  1.00  0.00    -0.217 C  
BRANCH  18  19
HETATM   19  C   UNL     1      -9.820   7.407  69.126  1.00  0.00    -0.168 C  
BRANCH  19  20
HETATM   20  S   UNL     1      -9.586   6.431  67.658  1.00  0.00    -0.123 S  
HETATM   21  O   UNL     1     -10.856   6.335  66.967  1.00  0.00    -0.323 OA 
HETATM   22  O   UNL     1      -8.824   5.251  68.002  1.00  0.00    -0.106 OA 
BRANCH  20  23
HETATM   23  C   UNL     1      -8.533   7.495  66.690  1.00  0.00    -0.130 A  
HETATM   24  C   UNL     1      -9.025   8.048  65.503  1.00  0.00    -0.046 A  
HETATM   25  C   UNL     1      -8.190   8.846  64.724  1.00  0.00    -0.164 A  
HETATM   26  C   UNL     1      -6.878   9.094  65.132  1.00  0.00    -0.077 A  
HETATM   27  C   UNL     1      -6.397   8.552  66.325  1.00  0.00    -0.057 A  
HETATM   28  C   UNL     1      -7.225   7.752  67.114  1.00  0.00    -0.090 A  
ENDBRANCH  20  23
ENDBRANCH  19  20
ENDBRANCH  18  19
ENDBRANCH  15  18
ENDBRANCH   7   8
ENDBRANCH   6   7
TORSDOF 6
ENDMDL
MODEL      260
REMARK 921   NORMALIZED FREE ENERGY PREDICTED BY IDOCK:   -3.75 KCAL/MOL
REMARK 922        TOTAL FREE ENERGY PREDICTED BY IDOCK:   -6.65 KCAL/MOL
REMARK 923 INTER-LIGAND FREE ENERGY PREDICTED BY IDOCK:   -5.71 KCAL/MOL
REMARK 924 INTRA-LIGAND FREE ENERGY PREDICTED BY IDOCK:   -0.93 KCAL/MOL
REMARK 927      BINDING AFFINITY PREDICTED BY RF-SCORE:    0.00 PKD
ROOT
HETATM    1  C   UNL     1      -6.463   6.216  68.072  1.00  0.00    -0.049 C  
HETATM    2  N   UNL     1      -7.443   7.196  67.611  1.00  0.00    -0.099 NA 
HETATM    3  C   UNL     1      -6.933   8.562  67.776  1.00  0.00    -0.075 C  
HETATM    4  C   UNL     1      -7.692   9.362  66.741  1.00  0.00    -0.098 C  
HETATM    5  C   UNL     1      -7.755   8.414  65.562  1.00  0.00    -0.097 C  
HETATM    6  C   UNL     1      -7.809   7.012  66.186  1.00  0.00    -0.102 C  
ENDROOT
BRANCH   6   7
HETATM    7  C   UNL     1      -9.208   6.353  66.074  1.00  0.00    -0.087 C  
BRANCH   7   8
HETATM    8  C   UNL     1      -9.796   5.939  67.398  1.00  0.00    -0.145 A  
HETATM    9  C   UNL     1      -9.798   4.670  67.944  1.00  0.00    -0.119 A  
HETATM   10  N   UNL     1     -10.332   4.741  69.206  1.00  0.00    -0.079 NA 
HETATM   11  C   UNL     1     -10.663   6.041  69.508  1.00  0.00    -0.335 A  
HETATM   12  H   UNL     1     -10.465   3.944  69.830  1.00  0.00     0.000 HD 
HETATM   13  C   UNL     1     -10.405   6.794  68.367  1.00  0.00    -0.214 A  
HETATM   14  C   UNL     1     -10.695   8.170  68.393  1.00  0.00    -0.066 A  
HETATM   15  C   UNL     1     -11.133   8.794  69.569  1.00  0.00     0.006 A  
HETATM   16  C   UNL     1     -11.344   8.003  70.707  1.00  0.00    -0.282 A  
HETATM   17  C   UNL     1     -11.145   6.613  70.689  1.00  0.00    -0.349 A  
BRANCH  15  18
HETATM   18  C   UNL     1     -11.246  10.304  69.655  1.00  0.00    -0.322 C  
BRANCH  18  19
HETATM   19  C   UNL     1     -10.152  11.056  68.906  1.00  0.00    -0.199 C  
BRANCH  19  20
HETATM   20  S   UNL     1     -10.816  12.265  67.783  1.00  0.00    -0.232 S  
HETATM   21  O   UNL     1     -12.128  11.823  67.358  1.00  0.00    -0.595 OA 
HETATM   22  O   UNL     1      -9.792  12.619  66.825  1.00  0.00    -0.224 OA 
BRANCH  20  23
HETATM   23  C   UNL     1     -11.050  13.662  68.867  1.00  0.00    -0.256 A  
HETATM   24  C   UNL     1     -10.064  14.652  68.930  1.00  0.00    -0.234 A  
HETATM   25  C   UNL     1     -10.227  15.722  69.807  1.00  0.00    -0.291 A  
HETATM   26  C   UNL     1     -11.367  15.804  70.608  1.00  0.00    -0.412 A  
HETATM   27  C   UNL     1     -12.355  14.821  70.529  1.00  0.00    -0.398 A  
HETATM   28  C   UNL     1     -12.203  13.745  69.654  1.00  0.00    -0.359 A  
ENDBRANCH  20  23
ENDBRANCH  19  20
ENDBRANCH  18  19
ENDBRANCH  15  18
ENDBRANCH   7   8
ENDBRANCH   6   7
TORSDOF 6
ENDMDL
MODEL      261
REMARK 921   NORMALIZED FREE ENERGY PREDICTED BY IDOCK:   -3.73 KCAL/MOL
REMARK 922        TOTAL FREE ENERGY PREDICTED BY IDOCK:   -6.61 KCAL/MOL
REMARK 923 INTER-LIGAND FREE ENERGY PREDICTED BY IDOCK:   -6.10 KCAL/MOL
REMARK 924 INTRA-LIGAND FREE ENERGY PREDICTED BY IDOCK:   -0.51 KCAL/MOL
REMARK 927      BINDING AFFINITY PREDICTED BY RF-SCORE:    0.00 PKD
ROOT
HETATM    1  C   UNL     1     -13.709  12.140  72.118  1.00  0.00    -0.047 C  
HETATM    2  N   UNL     1     -12.607  11.360  71.562  1.00  0.00    -0.328 NA 
HETATM    3  C   UNL     1     -12.836   9.923  71.750  1.00  0.00    -0.442 C  
HETATM    4  C   UNL     1     -12.032   9.278  70.644  1.00  0.00    -0.206 C  
HETATM    5  C   UNL     1     -12.249  10.218  69.477  1.00  0.00     0.039 C  
HETATM    6  C   UNL     1     -12.405  11.606  70.113  1.00  0.00    -0.219 C  
ENDROOT
BRANCH   6   7
HETATM    7  C   UNL     1     -11.168  12.515  69.894  1.00  0.00     0.088 C  
BRANCH   7   8
HETATM    8  C   UNL     1     -11.475  13.989  69.945  1.00  0.00    -0.272 A  
HETATM    9  C   UNL     1     -12.277  14.638  70.864  1.00  0.00    -0.323 A  
HETATM   10  N   UNL     1     -12.207  15.988  70.626  1.00  0.00    -0.475 NA 
HETATM   11  C   UNL     1     -11.353  16.240  69.577  1.00  0.00    -0.276 A  
HETATM   12  H   UNL     1     -12.714  16.700  71.151  1.00  0.00     0.000 HD 
HETATM   13  C   UNL     1     -10.943  15.003  69.090  1.00  0.00    -0.265 A  
HETATM   14  C   UNL     1     -10.083  14.972  67.978  1.00  0.00    -0.223 A  
HETATM   15  C   UNL     1      -9.564  16.156  67.433  1.00  0.00    -0.229 A  
HETATM   16  C   UNL     1      -9.974  17.380  67.980  1.00  0.00    -0.302 A  
HETATM   17  C   UNL     1     -10.898  17.446  69.036  1.00  0.00     0.057 A  
BRANCH  15  18
HETATM   18  C   UNL     1      -8.480  16.116  66.373  1.00  0.00    -0.369 C  
BRANCH  18  19
HETATM   19  C   UNL     1      -7.759  17.442  66.168  1.00  0.00    -0.276 C  
BRANCH  19  20
HETATM   20  S   UNL     1      -6.055  17.366  66.672  1.00  0.00    -0.218 S  
HETATM   21  O   UNL     1      -5.251  18.031  65.667  1.00  0.00    -0.165 OA 
HETATM   22  O   UNL     1      -5.758  16.017  67.102  1.00  0.00    -0.323 OA 
BRANCH  20  23
HETATM   23  C   UNL     1      -6.067  18.407  68.119  1.00  0.00    -0.183 A  
HETATM   24  C   UNL     1      -5.778  17.847  69.368  1.00  0.00    -0.221 A  
HETATM   25  C   UNL     1      -5.828  18.651  70.505  1.00  0.00    -0.086 A  
HETATM   26  C   UNL     1      -6.158  20.002  70.393  1.00  0.00    -0.384 A  
HETATM   27  C   UNL     1      -6.431  20.560  69.142  1.00  0.00    -0.189 A  
HETATM   28  C   UNL     1      -6.383  19.764  67.996  1.00  0.00    -0.264 A  
ENDBRANCH  20  23
ENDBRANCH  19  20
ENDBRANCH  18  19
ENDBRANCH  15  18
ENDBRANCH   7   8
ENDBRANCH   6   7
TORSDOF 6
ENDMDL
MODEL      262
REMARK 921   NORMALIZED FREE ENERGY PREDICTED BY IDOCK:   -3.70 KCAL/MOL
REMARK 922        TOTAL FREE ENERGY PREDICTED BY IDOCK:   -6.58 KCAL/MOL
REMARK 923 INTER-LIGAND FREE ENERGY PREDICTED BY IDOCK:   -5.64 KCAL/MOL
REMARK 924 INTRA-LIGAND FREE ENERGY PREDICTED BY IDOCK:   -0.93 KCAL/MOL
REMARK 927      BINDING AFFINITY PREDICTED BY RF-SCORE:    0.00 PKD
ROOT
HETATM    1  C   UNL     1     -10.716  10.970  64.707  1.00  0.00    -0.234 C  
HETATM    2  N   UNL     1     -10.837  12.327  65.232  1.00  0.00    -0.284 NA 
HETATM    3  C   UNL     1     -10.823  13.312  64.144  1.00  0.00    -0.343 C  
HETATM    4  C   UNL     1     -11.560  14.501  64.720  1.00  0.00    -0.414 C  
HETATM    5  C   UNL     1     -12.672  13.855  65.518  1.00  0.00    -0.536 C  
HETATM    6  C   UNL     1     -12.079  12.529  66.017  1.00  0.00    -0.321 C  
ENDROOT
BRANCH   6   7
HETATM    7  C   UNL     1     -11.756  12.543  67.534  1.00  0.00    -0.439 C  
BRANCH   7   8
HETATM    8  C   UNL     1     -10.527  13.338  67.890  1.00  0.00    -0.244 A  
HETATM    9  C   UNL     1     -10.473  14.677  68.223  1.00  0.00    -0.236 A  
HETATM   10  N   UNL     1      -9.186  14.984  68.584  1.00  0.00    -0.191 NA 
HETATM   11  C   UNL     1      -8.394  13.861  68.515  1.00  0.00    -0.132 A  
HETATM   12  H   UNL     1      -8.862  15.911  68.863  1.00  0.00     0.000 HD 
HETATM   13  C   UNL     1      -9.194  12.840  68.014  1.00  0.00    -0.208 A  
HETATM   14  C   UNL     1      -8.614  11.575  67.806  1.00  0.00    -0.138 A  
HETATM   15  C   UNL     1      -7.291  11.315  68.192  1.00  0.00    -0.088 A  
HETATM   16  C   UNL     1      -6.532  12.364  68.729  1.00  0.00    -0.084 A  
HETATM   17  C   UNL     1      -7.056  13.660  68.869  1.00  0.00    -0.102 A  
BRANCH  15  18
HETATM   18  C   UNL     1      -6.733   9.905  68.161  1.00  0.00    -0.060 C  
BRANCH  18  19
HETATM   19  C   UNL     1      -7.768   8.818  68.425  1.00  0.00    -0.096 C  
BRANCH  19  20
HETATM   20  S   UNL     1      -7.981   8.500  70.162  1.00  0.00    -0.111 S  
HETATM   21  O   UNL     1      -8.986   9.409  70.673  1.00  0.00    -0.238 OA 
HETATM   22  O   UNL     1      -6.676   8.395  70.778  1.00  0.00    -0.036 OA 
BRANCH  20  23
HETATM   23  C   UNL     1      -8.702   6.869  70.137  1.00  0.00    -0.141 A  
HETATM   24  C   UNL     1      -8.400   5.972  71.167  1.00  0.00    -0.124 A  
HETATM   25  C   UNL     1      -8.930   4.684  71.127  1.00  0.00    -0.162 A  
HETATM   26  C   UNL     1      -9.757   4.299  70.070  1.00  0.00    -0.287 A  
HETATM   27  C   UNL     1     -10.067   5.204  69.053  1.00  0.00    -0.257 A  
HETATM   28  C   UNL     1      -9.543   6.497  69.083  1.00  0.00    -0.137 A  
ENDBRANCH  20  23
ENDBRANCH  19  20
ENDBRANCH  18  19
ENDBRANCH  15  18
ENDBRANCH   7   8
ENDBRANCH   6   7
TORSDOF 6
ENDMDL
MODEL      263
REMARK 921   NORMALIZED FREE ENERGY PREDICTED BY IDOCK:   -3.70 KCAL/MOL
REMARK 922        TOTAL FREE ENERGY PREDICTED BY IDOCK:   -6.57 KCAL/MOL
REMARK 923 INTER-LIGAND FREE ENERGY PREDICTED BY IDOCK:   -5.28 KCAL/MOL
REMARK 924 INTRA-LIGAND FREE ENERGY PREDICTED BY IDOCK:   -1.29 KCAL/MOL
REMARK 927      BINDING AFFINITY PREDICTED BY RF-SCORE:    0.00 PKD
ROOT
HETATM    1  C   UNL     1     -11.265   6.758  67.872  1.00  0.00    -0.079 C  
HETATM    2  N   UNL     1      -9.894   6.652  67.382  1.00  0.00    -0.125 NA 
HETATM    3  C   UNL     1      -9.560   5.259  67.060  1.00  0.00    -0.142 C  
HETATM    4  C   UNL     1      -8.456   5.379  66.033  1.00  0.00    -0.123 C  
HETATM    5  C   UNL     1      -8.900   6.559  65.195  1.00  0.00     0.181 C  
HETATM    6  C   UNL     1      -9.654   7.473  66.171  1.00  0.00     0.014 C  
ENDROOT
BRANCH   6   7
HETATM    7  C   UNL     1      -8.857   8.751  66.542  1.00  0.00    -0.156 C  
BRANCH   7   8
HETATM    8  C   UNL     1      -9.717   9.970  66.748  1.00  0.00    -0.239 A  
HETATM    9  C   UNL     1     -10.069  10.908  65.797  1.00  0.00    -0.252 A  
HETATM   10  N   UNL     1     -10.948  11.795  66.365  1.00  0.00    -0.284 NA 
HETATM   11  C   UNL     1     -11.199  11.443  67.671  1.00  0.00    -0.283 A  
HETATM   12  H   UNL     1     -11.358  12.598  65.888  1.00  0.00     0.000 HD 
HETATM   13  C   UNL     1     -10.384  10.351  67.953  1.00  0.00    -0.227 A  
HETATM   14  C   UNL     1     -10.417   9.809  69.250  1.00  0.00    -0.236 A  
HETATM   15  C   UNL     1     -11.322  10.284  70.210  1.00  0.00    -0.398 A  
HETATM   16  C   UNL     1     -12.151  11.362  69.870  1.00  0.00    -0.404 A  
HETATM   17  C   UNL     1     -12.083  11.980  68.611  1.00  0.00    -0.145 A  
BRANCH  15  18
HETATM   18  C   UNL     1     -11.501   9.568  71.534  1.00  0.00    -0.466 C  
BRANCH  18  19
HETATM   19  C   UNL     1     -11.068   8.107  71.518  1.00  0.00    -0.252 C  
BRANCH  19  20
HETATM   20  S   UNL     1      -9.629   7.821  72.524  1.00  0.00    -0.215 S  
HETATM   21  O   UNL     1     -10.061   7.625  73.892  1.00  0.00    -0.215 OA 
HETATM   22  O   UNL     1      -8.624   8.804  72.184  1.00  0.00    -0.355 OA 
BRANCH  20  23
HETATM   23  C   UNL     1      -9.076   6.242  71.908  1.00  0.00    -0.143 A  
HETATM   24  C   UNL     1      -7.821   5.760  72.293  1.00  0.00    -0.103 A  
HETATM   25  C   UNL     1      -7.369   4.545  71.780  1.00  0.00    -0.072 A  
HETATM   26  C   UNL     1      -8.169   3.818  70.896  1.00  0.00    -0.078 A  
HETATM   27  C   UNL     1      -9.427   4.297  70.528  1.00  0.00    -0.244 A  
HETATM   28  C   UNL     1      -9.890   5.512  71.036  1.00  0.00    -0.238 A  
ENDBRANCH  20  23
ENDBRANCH  19  20
ENDBRANCH  18  19
ENDBRANCH  15  18
ENDBRANCH   7   8
ENDBRANCH   6   7
TORSDOF 6
ENDMDL
MODEL      264
REMARK 921   NORMALIZED FREE ENERGY PREDICTED BY IDOCK:   -3.67 KCAL/MOL
REMARK 922        TOTAL FREE ENERGY PREDICTED BY IDOCK:   -6.53 KCAL/MOL
REMARK 923 INTER-LIGAND FREE ENERGY PREDICTED BY IDOCK:   -4.76 KCAL/MOL
REMARK 924 INTRA-LIGAND FREE ENERGY PREDICTED BY IDOCK:   -1.78 KCAL/MOL
REMARK 927      BINDING AFFINITY PREDICTED BY RF-SCORE:    0.00 PKD
ROOT
HETATM    1  C   UNL     1      -8.237   1.911  71.262  1.00  0.00    -0.046 C  
HETATM    2  N   UNL     1      -9.181   2.713  72.036  1.00  0.00    -0.088 NA 
HETATM    3  C   UNL     1     -10.389   1.941  72.351  1.00  0.00    -0.156 C  
HETATM    4  C   UNL     1     -10.927   2.602  73.600  1.00  0.00    -0.312 C  
HETATM    5  C   UNL     1      -9.670   2.924  74.380  1.00  0.00    -0.137 C  
HETATM    6  C   UNL     1      -8.604   3.203  73.311  1.00  0.00    -0.081 C  
ENDROOT
BRANCH   6   7
HETATM    7  C   UNL     1      -8.245   4.707  73.192  1.00  0.00    -0.100 C  
BRANCH   7   8
HETATM    8  C   UNL     1      -9.427   5.631  73.330  1.00  0.00    -0.143 A  
HETATM    9  C   UNL     1      -9.835   6.292  74.472  1.00  0.00    -0.323 A  
HETATM   10  N   UNL     1     -10.884   7.114  74.147  1.00  0.00    -0.454 NA 
HETATM   11  C   UNL     1     -11.161   7.021  72.803  1.00  0.00    -0.284 A  
HETATM   12  H   UNL     1     -11.386   7.709  74.807  1.00  0.00     0.000 HD 
HETATM   13  C   UNL     1     -10.312   6.046  72.288  1.00  0.00    -0.223 A  
HETATM   14  C   UNL     1     -10.415   5.723  70.924  1.00  0.00    -0.317 A  
HETATM   15  C   UNL     1     -11.274   6.435  70.074  1.00  0.00    -0.475 A  
HETATM   16  C   UNL     1     -12.084   7.436  70.629  1.00  0.00    -0.167 A  
HETATM   17  C   UNL     1     -12.067   7.724  72.003  1.00  0.00    -0.351 A  
BRANCH  15  18
HETATM   18  C   UNL     1     -11.233   6.228  68.572  1.00  0.00    -0.305 C  
BRANCH  18  19
HETATM   19  C   UNL     1     -10.039   5.417  68.086  1.00  0.00    -0.166 C  
BRANCH  19  20
HETATM   20  S   UNL     1      -8.707   6.452  67.522  1.00  0.00    -0.112 S  
HETATM   21  O   UNL     1      -9.067   7.834  67.771  1.00  0.00    -0.134 OA 
HETATM   22  O   UNL     1      -8.296   6.005  66.209  1.00  0.00    -0.114 OA 
BRANCH  20  23
HETATM   23  C   UNL     1      -7.414   6.023  68.672  1.00  0.00    -0.087 A  
HETATM   24  C   UNL     1      -6.625   4.895  68.424  1.00  0.00    -0.049 A  
HETATM   25  C   UNL     1      -5.642   4.534  69.343  1.00  0.00    -0.016 A  
HETATM   26  C   UNL     1      -5.446   5.298  70.495  1.00  0.00    -0.004 A  
HETATM   27  C   UNL     1      -6.226   6.432  70.730  1.00  0.00    -0.039 A  
HETATM   28  C   UNL     1      -7.214   6.803  69.815  1.00  0.00    -0.077 A  
ENDBRANCH  20  23
ENDBRANCH  19  20
ENDBRANCH  18  19
ENDBRANCH  15  18
ENDBRANCH   7   8
ENDBRANCH   6   7
TORSDOF 6
ENDMDL
MODEL      265
REMARK 921   NORMALIZED FREE ENERGY PREDICTED BY IDOCK:   -3.66 KCAL/MOL
REMARK 922        TOTAL FREE ENERGY PREDICTED BY IDOCK:   -6.52 KCAL/MOL
REMARK 923 INTER-LIGAND FREE ENERGY PREDICTED BY IDOCK:   -5.99 KCAL/MOL
REMARK 924 INTRA-LIGAND FREE ENERGY PREDICTED BY IDOCK:   -0.53 KCAL/MOL
REMARK 927      BINDING AFFINITY PREDICTED BY RF-SCORE:    0.00 PKD
ROOT
HETATM    1  C   UNL     1     -10.085  17.275  65.690  1.00  0.00    -0.049 C  
HETATM    2  N   UNL     1      -8.781  17.049  66.307  1.00  0.00    -0.384 NA 
HETATM    3  C   UNL     1      -7.835  18.107  65.932  1.00  0.00    -0.053 C  
HETATM    4  C   UNL     1      -6.831  18.115  67.063  1.00  0.00    -0.207 C  
HETATM    5  C   UNL     1      -7.696  17.883  68.284  1.00  0.00    -0.279 C  
HETATM    6  C   UNL     1      -8.849  16.998  67.787  1.00  0.00    -0.223 C  
ENDROOT
BRANCH   6   7
HETATM    7  C   UNL     1      -8.740  15.531  68.277  1.00  0.00    -0.170 C  
BRANCH   7   8
HETATM    8  C   UNL     1     -10.054  14.797  68.307  1.00  0.00    -0.221 A  
HETATM    9  C   UNL     1     -11.316  15.350  68.203  1.00  0.00    -0.348 A  
HETATM   10  N   UNL     1     -12.235  14.332  68.164  1.00  0.00    -0.580 NA 
HETATM   11  C   UNL     1     -11.597  13.115  68.219  1.00  0.00    -0.335 A  
HETATM   12  H   UNL     1     -13.246  14.459  68.103  1.00  0.00     0.000 HD 
HETATM   13  C   UNL     1     -10.241  13.383  68.383  1.00  0.00    -0.251 A  
HETATM   14  C   UNL     1      -9.355  12.298  68.507  1.00  0.00    -0.101 A  
HETATM   15  C   UNL     1      -9.804  10.977  68.364  1.00  0.00    -0.186 A  
HETATM   16  C   UNL     1     -11.173  10.755  68.163  1.00  0.00    -0.365 A  
HETATM   17  C   UNL     1     -12.096  11.812  68.119  1.00  0.00    -0.040 A  
BRANCH  15  18
HETATM   18  C   UNL     1      -8.822   9.823  68.291  1.00  0.00    -0.119 C  
BRANCH  18  19
HETATM   19  C   UNL     1      -7.933   9.681  69.520  1.00  0.00    -0.125 C  
BRANCH  19  20
HETATM   20  S   UNL     1      -8.773   8.881  70.868  1.00  0.00    -0.225 S  
HETATM   21  O   UNL     1     -10.066   9.511  71.038  1.00  0.00    -0.286 OA 
HETATM   22  O   UNL     1      -7.850   8.744  71.973  1.00  0.00    -0.302 OA 
BRANCH  20  23
HETATM   23  C   UNL     1      -9.058   7.255  70.193  1.00  0.00    -0.148 A  
HETATM   24  C   UNL     1      -7.965   6.417  69.946  1.00  0.00    -0.116 A  
HETATM   25  C   UNL     1      -8.182   5.162  69.380  1.00  0.00    -0.087 A  
HETATM   26  C   UNL     1      -9.479   4.749  69.070  1.00  0.00    -0.213 A  
HETATM   27  C   UNL     1     -10.567   5.584  69.333  1.00  0.00    -0.349 A  
HETATM   28  C   UNL     1     -10.361   6.842  69.901  1.00  0.00    -0.223 A  
ENDBRANCH  20  23
ENDBRANCH  19  20
ENDBRANCH  18  19
ENDBRANCH  15  18
ENDBRANCH   7   8
ENDBRANCH   6   7
TORSDOF 6
ENDMDL
MODEL      266
REMARK 921   NORMALIZED FREE ENERGY PREDICTED BY IDOCK:   -3.65 KCAL/MOL
REMARK 922        TOTAL FREE ENERGY PREDICTED BY IDOCK:   -6.51 KCAL/MOL
REMARK 923 INTER-LIGAND FREE ENERGY PREDICTED BY IDOCK:   -4.90 KCAL/MOL
REMARK 924 INTRA-LIGAND FREE ENERGY PREDICTED BY IDOCK:   -1.61 KCAL/MOL
REMARK 927      BINDING AFFINITY PREDICTED BY RF-SCORE:    0.00 PKD
ROOT
HETATM    1  C   UNL     1      -7.266   7.594  67.029  1.00  0.00    -0.089 C  
HETATM    2  N   UNL     1      -8.377   8.350  67.600  1.00  0.00    -0.129 NA 
HETATM    3  C   UNL     1      -8.058   9.782  67.663  1.00  0.00    -0.113 C  
HETATM    4  C   UNL     1      -9.412  10.457  67.646  1.00  0.00    -0.165 C  
HETATM    5  C   UNL     1     -10.198   9.612  66.666  1.00  0.00    -0.302 C  
HETATM    6  C   UNL     1      -9.633   8.193  66.827  1.00  0.00    -0.217 C  
ENDROOT
BRANCH   6   7
HETATM    7  C   UNL     1     -10.601   7.236  67.570  1.00  0.00    -0.344 C  
BRANCH   7   8
HETATM    8  C   UNL     1     -10.301   5.776  67.355  1.00  0.00    -0.279 A  
HETATM    9  C   UNL     1     -10.116   5.136  66.146  1.00  0.00    -0.207 A  
HETATM   10  N   UNL     1      -9.756   3.835  66.393  1.00  0.00    -0.362 NA 
HETATM   11  C   UNL     1      -9.680   3.613  67.748  1.00  0.00    -0.050 A  
HETATM   12  H   UNL     1      -9.572   3.133  65.675  1.00  0.00     0.000 HD 
HETATM   13  C   UNL     1     -10.088   4.790  68.368  1.00  0.00    -0.111 A  
HETATM   14  C   UNL     1     -10.140   4.824  69.773  1.00  0.00    -0.289 A  
HETATM   15  C   UNL     1      -9.693   3.739  70.539  1.00  0.00    -0.230 A  
HETATM   16  C   UNL     1      -9.254   2.586  69.873  1.00  0.00    -0.195 A  
HETATM   17  C   UNL     1      -9.270   2.489  68.472  1.00  0.00    -0.250 A  
BRANCH  15  18
HETATM   18  C   UNL     1      -9.554   3.852  72.045  1.00  0.00    -0.210 C  
BRANCH  18  19
HETATM   19  C   UNL     1     -10.322   5.016  72.657  1.00  0.00    -0.199 C  
BRANCH  19  20
HETATM   20  S   UNL     1      -9.300   6.009  73.723  1.00  0.00    -0.133 S  
HETATM   21  O   UNL     1      -8.442   5.126  74.485  1.00  0.00    -0.109 OA 
HETATM   22  O   UNL     1     -10.132   6.998  74.372  1.00  0.00    -0.271 OA 
BRANCH  20  23
HETATM   23  C   UNL     1      -8.273   6.857  72.537  1.00  0.00    -0.106 A  
HETATM   24  C   UNL     1      -7.075   6.265  72.124  1.00  0.00    -0.079 A  
HETATM   25  C   UNL     1      -6.250   6.945  71.230  1.00  0.00    -0.037 A  
HETATM   26  C   UNL     1      -6.625   8.202  70.749  1.00  0.00    -0.037 A  
HETATM   27  C   UNL     1      -7.829   8.780  71.153  1.00  0.00    -0.161 A  
HETATM   28  C   UNL     1      -8.663   8.108  72.048  1.00  0.00    -0.221 A  
ENDBRANCH  20  23
ENDBRANCH  19  20
ENDBRANCH  18  19
ENDBRANCH  15  18
ENDBRANCH   7   8
ENDBRANCH   6   7
TORSDOF 6
ENDMDL
MODEL      267
REMARK 921   NORMALIZED FREE ENERGY PREDICTED BY IDOCK:   -3.64 KCAL/MOL
REMARK 922        TOTAL FREE ENERGY PREDICTED BY IDOCK:   -6.50 KCAL/MOL
REMARK 923 INTER-LIGAND FREE ENERGY PREDICTED BY IDOCK:   -4.36 KCAL/MOL
REMARK 924 INTRA-LIGAND FREE ENERGY PREDICTED BY IDOCK:   -2.14 KCAL/MOL
REMARK 927      BINDING AFFINITY PREDICTED BY RF-SCORE:    0.00 PKD
ROOT
HETATM    1  C   UNL     1      -8.811   7.991  73.783  1.00  0.00    -0.247 C  
HETATM    2  N   UNL     1      -8.569   7.394  72.472  1.00  0.00    -0.110 NA 
HETATM    3  C   UNL     1      -7.247   7.774  71.961  1.00  0.00    -0.070 C  
HETATM    4  C   UNL     1      -6.891   6.657  71.006  1.00  0.00    -0.062 C  
HETATM    5  C   UNL     1      -7.414   5.426  71.716  1.00  0.00    -0.092 C  
HETATM    6  C   UNL     1      -8.644   5.913  72.495  1.00  0.00    -0.120 C  
ENDROOT
BRANCH   6   7
HETATM    7  C   UNL     1      -9.982   5.437  71.872  1.00  0.00    -0.233 C  
BRANCH   7   8
HETATM    8  C   UNL     1      -9.922   5.225  70.382  1.00  0.00    -0.303 A  
HETATM    9  C   UNL     1      -9.784   4.021  69.720  1.00  0.00    -0.184 A  
HETATM   10  N   UNL     1      -9.884   4.252  68.371  1.00  0.00    -0.086 NA 
HETATM   11  C   UNL     1     -10.107   5.588  68.135  1.00  0.00    -0.172 A  
HETATM   12  H   UNL     1      -9.804   3.536  67.648  1.00  0.00     0.000 HD 
HETATM   13  C   UNL     1     -10.061   6.225  69.371  1.00  0.00    -0.215 A  
HETATM   14  C   UNL     1     -10.224   7.621  69.411  1.00  0.00    -0.206 A  
HETATM   15  C   UNL     1     -10.531   8.347  68.251  1.00  0.00    -0.214 A  
HETATM   16  C   UNL     1     -10.606   7.659  67.032  1.00  0.00    -0.406 A  
HETATM   17  C   UNL     1     -10.364   6.278  66.946  1.00  0.00    -0.306 A  
BRANCH  15  18
HETATM   18  C   UNL     1     -10.911   9.814  68.327  1.00  0.00    -0.256 C  
BRANCH  18  19
HETATM   19  C   UNL     1     -10.144  10.707  67.360  1.00  0.00    -0.194 C  
BRANCH  19  20
HETATM   20  S   UNL     1      -8.460  10.964  67.873  1.00  0.00    -0.133 S  
HETATM   21  O   UNL     1      -8.388  10.784  69.308  1.00  0.00    -0.140 OA 
HETATM   22  O   UNL     1      -7.960  12.164  67.238  1.00  0.00    -0.160 OA 
BRANCH  20  23
HETATM   23  C   UNL     1      -7.645   9.570  67.118  1.00  0.00    -0.091 A  
HETATM   24  C   UNL     1      -7.663   9.438  65.726  1.00  0.00    -0.099 A  
HETATM   25  C   UNL     1      -7.062   8.327  65.137  1.00  0.00    -0.075 A  
HETATM   26  C   UNL     1      -6.444   7.361  65.934  1.00  0.00    -0.045 A  
HETATM   27  C   UNL     1      -6.415   7.507  67.322  1.00  0.00    -0.061 A  
HETATM   28  C   UNL     1      -7.013   8.616  67.922  1.00  0.00    -0.078 A  
ENDBRANCH  20  23
ENDBRANCH  19  20
ENDBRANCH  18  19
ENDBRANCH  15  18
ENDBRANCH   7   8
ENDBRANCH   6   7
TORSDOF 6
ENDMDL
MODEL      268
REMARK 921   NORMALIZED FREE ENERGY PREDICTED BY IDOCK:   -3.64 KCAL/MOL
REMARK 922        TOTAL FREE ENERGY PREDICTED BY IDOCK:   -6.49 KCAL/MOL
REMARK 923 INTER-LIGAND FREE ENERGY PREDICTED BY IDOCK:   -4.83 KCAL/MOL
REMARK 924 INTRA-LIGAND FREE ENERGY PREDICTED BY IDOCK:   -1.66 KCAL/MOL
REMARK 927      BINDING AFFINITY PREDICTED BY RF-SCORE:    0.00 PKD
ROOT
HETATM    1  C   UNL     1      -7.533   4.814  67.823  1.00  0.00    -0.078 C  
HETATM    2  N   UNL     1      -7.259   6.190  67.416  1.00  0.00    -0.074 NA 
HETATM    3  C   UNL     1      -6.001   6.667  68.002  1.00  0.00    -0.024 C  
HETATM    4  C   UNL     1      -5.547   7.753  67.053  1.00  0.00    -0.032 C  
HETATM    5  C   UNL     1      -5.910   7.189  65.696  1.00  0.00    -0.036 C  
HETATM    6  C   UNL     1      -7.167   6.343  65.944  1.00  0.00    -0.078 C  
ENDROOT
BRANCH   6   7
HETATM    7  C   UNL     1      -8.458   7.002  65.394  1.00  0.00    -0.093 C  
BRANCH   7   8
HETATM    8  C   UNL     1      -9.438   7.411  66.462  1.00  0.00    -0.229 A  
HETATM    9  C   UNL     1     -10.584   6.738  66.838  1.00  0.00    -0.304 A  
HETATM   10  N   UNL     1     -11.134   7.385  67.917  1.00  0.00    -0.491 NA 
HETATM   11  C   UNL     1     -10.355   8.462  68.271  1.00  0.00    -0.199 A  
HETATM   12  H   UNL     1     -11.995   7.106  68.388  1.00  0.00     0.000 HD 
HETATM   13  C   UNL     1      -9.333   8.540  67.331  1.00  0.00    -0.178 A  
HETATM   14  C   UNL     1      -8.403   9.590  67.440  1.00  0.00    -0.125 A  
HETATM   15  C   UNL     1      -8.437  10.477  68.525  1.00  0.00    -0.131 A  
HETATM   16  C   UNL     1      -9.463  10.337  69.471  1.00  0.00    -0.207 A  
HETATM   17  C   UNL     1     -10.456   9.352  69.344  1.00  0.00    -0.231 A  
BRANCH  15  18
HETATM   18  C   UNL     1      -7.318  11.474  68.753  1.00  0.00    -0.115 C  
BRANCH  18  19
HETATM   19  C   UNL     1      -7.093  12.436  67.593  1.00  0.00    -0.133 C  
BRANCH  19  20
HETATM   20  S   UNL     1      -7.811  14.035  67.896  1.00  0.00    -0.179 S  
HETATM   21  O   UNL     1      -7.323  14.953  66.887  1.00  0.00    -0.067 OA 
HETATM   22  O   UNL     1      -7.696  14.335  69.306  1.00  0.00    -0.072 OA 
BRANCH  20  23
HETATM   23  C   UNL     1      -9.531  13.723  67.545  1.00  0.00    -0.220 A  
HETATM   24  C   UNL     1     -10.466  13.804  68.582  1.00  0.00    -0.245 A  
HETATM   25  C   UNL     1     -11.804  13.520  68.318  1.00  0.00    -0.401 A  
HETATM   26  C   UNL     1     -12.203  13.163  67.029  1.00  0.00    -0.271 A  
HETATM   27  C   UNL     1     -11.268  13.099  65.994  1.00  0.00    -0.316 A  
HETATM   28  C   UNL     1      -9.925  13.383  66.247  1.00  0.00    -0.298 A  
ENDBRANCH  20  23
ENDBRANCH  19  20
ENDBRANCH  18  19
ENDBRANCH  15  18
ENDBRANCH   7   8
ENDBRANCH   6   7
TORSDOF 6
ENDMDL
MODEL      269
REMARK 921   NORMALIZED FREE ENERGY PREDICTED BY IDOCK:   -3.64 KCAL/MOL
REMARK 922        TOTAL FREE ENERGY PREDICTED BY IDOCK:   -6.49 KCAL/MOL
REMARK 923 INTER-LIGAND FREE ENERGY PREDICTED BY IDOCK:   -5.58 KCAL/MOL
REMARK 924 INTRA-LIGAND FREE ENERGY PREDICTED BY IDOCK:   -0.90 KCAL/MOL
REMARK 927      BINDING AFFINITY PREDICTED BY RF-SCORE:    0.00 PKD
ROOT
HETATM    1  C   UNL     1      -7.724   8.453  67.137  1.00  0.00    -0.097 C  
HETATM    2  N   UNL     1      -8.450   9.648  66.716  1.00  0.00    -0.126 NA 
HETATM    3  C   UNL     1      -8.751   9.598  65.280  1.00  0.00    -0.160 C  
HETATM    4  C   UNL     1      -9.967  10.485  65.132  1.00  0.00    -0.375 C  
HETATM    5  C   UNL     1     -10.773  10.162  66.372  1.00  0.00    -0.077 C  
HETATM    6  C   UNL     1      -9.728   9.829  67.446  1.00  0.00    -0.163 C  
ENDROOT
BRANCH   6   7
HETATM    7  C   UNL     1      -9.580  10.945  68.513  1.00  0.00    -0.187 C  
BRANCH   7   8
HETATM    8  C   UNL     1     -10.724  11.012  69.490  1.00  0.00    -0.231 A  
HETATM    9  C   UNL     1     -11.762  11.922  69.491  1.00  0.00    -0.345 A  
HETATM   10  N   UNL     1     -12.648  11.571  70.478  1.00  0.00    -0.240 NA 
HETATM   11  C   UNL     1     -12.220  10.429  71.114  1.00  0.00    -0.394 A  
HETATM   12  H   UNL     1     -13.501  12.082  70.707  1.00  0.00     0.000 HD 
HETATM   13  C   UNL     1     -10.984  10.105  70.564  1.00  0.00    -0.380 A  
HETATM   14  C   UNL     1     -10.299   8.985  71.068  1.00  0.00    -0.348 A  
HETATM   15  C   UNL     1     -10.888   8.150  72.028  1.00  0.00    -0.349 A  
HETATM   16  C   UNL     1     -12.152   8.493  72.528  1.00  0.00    -0.395 A  
HETATM   17  C   UNL     1     -12.824   9.651  72.107  1.00  0.00    -0.460 A  
BRANCH  15  18
HETATM   18  C   UNL     1     -10.242   6.834  72.417  1.00  0.00    -0.201 C  
BRANCH  18  19
HETATM   19  C   UNL     1     -10.102   5.843  71.269  1.00  0.00    -0.196 C  
BRANCH  19  20
HETATM   20  S   UNL     1      -9.263   4.354  71.764  1.00  0.00    -0.140 S  
HETATM   21  O   UNL     1     -10.259   3.342  72.049  1.00  0.00    -0.144 OA 
HETATM   22  O   UNL     1      -8.240   4.698  72.726  1.00  0.00    -0.098 OA 
BRANCH  20  23
HETATM   23  C   UNL     1      -8.449   3.888  70.248  1.00  0.00    -0.060 A  
HETATM   24  C   UNL     1      -9.047   4.205  69.024  1.00  0.00    -0.187 A  
HETATM   25  C   UNL     1      -8.433   3.804  67.839  1.00  0.00    -0.106 A  
HETATM   26  C   UNL     1      -7.229   3.099  67.879  1.00  0.00    -0.050 A  
HETATM   27  C   UNL     1      -6.628   2.799  69.102  1.00  0.00    -0.033 A  
HETATM   28  C   UNL     1      -7.234   3.196  70.295  1.00  0.00    -0.040 A  
ENDBRANCH  20  23
ENDBRANCH  19  20
ENDBRANCH  18  19
ENDBRANCH  15  18
ENDBRANCH   7   8
ENDBRANCH   6   7
TORSDOF 6
ENDMDL
MODEL      270
REMARK 921   NORMALIZED FREE ENERGY PREDICTED BY IDOCK:   -3.60 KCAL/MOL
REMARK 922        TOTAL FREE ENERGY PREDICTED BY IDOCK:   -6.44 KCAL/MOL
REMARK 923 INTER-LIGAND FREE ENERGY PREDICTED BY IDOCK:   -4.72 KCAL/MOL
REMARK 924 INTRA-LIGAND FREE ENERGY PREDICTED BY IDOCK:   -1.72 KCAL/MOL
REMARK 927      BINDING AFFINITY PREDICTED BY RF-SCORE:    0.00 PKD
ROOT
HETATM    1  C   UNL     1     -12.222  10.949  69.924  1.00  0.00    -0.336 C  
HETATM    2  N   UNL     1     -11.876  11.259  68.540  1.00  0.00    -0.516 NA 
HETATM    3  C   UNL     1     -11.876  12.709  68.313  1.00  0.00    -0.306 C  
HETATM    4  C   UNL     1     -10.938  12.895  67.141  1.00  0.00    -0.290 C  
HETATM    5  C   UNL     1      -9.842  11.890  67.424  1.00  0.00    -0.192 C  
HETATM    6  C   UNL     1     -10.544  10.735  68.151  1.00  0.00    -0.203 C  
ENDROOT
BRANCH   6   7
HETATM    7  C   UNL     1     -10.705   9.471  67.267  1.00  0.00    -0.269 C  
BRANCH   7   8
HETATM    8  C   UNL     1      -9.401   8.821  66.885  1.00  0.00    -0.213 A  
HETATM    9  C   UNL     1      -8.960   8.533  65.608  1.00  0.00    -0.160 A  
HETATM   10  N   UNL     1      -7.679   8.046  65.690  1.00  0.00    -0.090 NA 
HETATM   11  C   UNL     1      -7.262   8.030  67.000  1.00  0.00    -0.087 A  
HETATM   12  H   UNL     1      -7.118   7.742  64.894  1.00  0.00     0.000 HD 
HETATM   13  C   UNL     1      -8.346   8.440  67.770  1.00  0.00    -0.130 A  
HETATM   14  C   UNL     1      -8.199   8.477  69.168  1.00  0.00    -0.119 A  
HETATM   15  C   UNL     1      -6.962   8.211  69.772  1.00  0.00    -0.052 A  
HETATM   16  C   UNL     1      -5.885   7.838  68.955  1.00  0.00    -0.031 A  
HETATM   17  C   UNL     1      -6.022   7.709  67.563  1.00  0.00    -0.044 A  
BRANCH  15  18
HETATM   18  C   UNL     1      -6.750   8.452  71.254  1.00  0.00    -0.059 C  
BRANCH  18  19
HETATM   19  C   UNL     1      -8.036   8.670  72.041  1.00  0.00    -0.068 C  
BRANCH  19  20
HETATM   20  S   UNL     1      -8.538   7.211  72.927  1.00  0.00    -0.120 S  
HETATM   21  O   UNL     1      -9.633   7.565  73.807  1.00  0.00    -0.274 OA 
HETATM   22  O   UNL     1      -7.357   6.541  73.424  1.00  0.00    -0.085 OA 
BRANCH  20  23
HETATM   23  C   UNL     1      -9.214   6.214  71.611  1.00  0.00    -0.145 A  
HETATM   24  C   UNL     1      -8.423   5.213  71.037  1.00  0.00    -0.122 A  
HETATM   25  C   UNL     1      -8.935   4.462  69.981  1.00  0.00    -0.146 A  
HETATM   26  C   UNL     1     -10.226   4.705  69.509  1.00  0.00    -0.097 A  
HETATM   27  C   UNL     1     -11.016   5.695  70.097  1.00  0.00    -0.303 A  
HETATM   28  C   UNL     1     -10.514   6.453  71.156  1.00  0.00    -0.265 A  
ENDBRANCH  20  23
ENDBRANCH  19  20
ENDBRANCH  18  19
ENDBRANCH  15  18
ENDBRANCH   7   8
ENDBRANCH   6   7
TORSDOF 6
ENDMDL
MODEL      271
REMARK 921   NORMALIZED FREE ENERGY PREDICTED BY IDOCK:   -3.59 KCAL/MOL
REMARK 922        TOTAL FREE ENERGY PREDICTED BY IDOCK:   -6.42 KCAL/MOL
REMARK 923 INTER-LIGAND FREE ENERGY PREDICTED BY IDOCK:   -5.56 KCAL/MOL
REMARK 924 INTRA-LIGAND FREE ENERGY PREDICTED BY IDOCK:   -0.86 KCAL/MOL
REMARK 927      BINDING AFFINITY PREDICTED BY RF-SCORE:    0.00 PKD
ROOT
HETATM    1  C   UNL     1     -10.884  17.729  65.444  1.00  0.00     0.151 C  
HETATM    2  N   UNL     1      -9.832  17.709  66.455  1.00  0.00    -0.306 NA 
HETATM    3  C   UNL     1      -9.263  19.049  66.645  1.00  0.00    -0.329 C  
HETATM    4  C   UNL     1      -8.713  19.014  68.054  1.00  0.00    -0.341 C  
HETATM    5  C   UNL     1      -9.758  18.215  68.804  1.00  0.00    -0.337 C  
HETATM    6  C   UNL     1     -10.312  17.224  67.772  1.00  0.00    -0.356 C  
ENDROOT
BRANCH   6   7
HETATM    7  C   UNL     1      -9.834  15.768  68.012  1.00  0.00    -0.217 C  
BRANCH   7   8
HETATM    8  C   UNL     1     -10.730  14.973  68.925  1.00  0.00    -0.240 A  
HETATM    9  C   UNL     1     -11.725  15.466  69.746  1.00  0.00    -0.333 A  
HETATM   10  N   UNL     1     -12.375  14.406  70.327  1.00  0.00    -0.332 NA 
HETATM   11  C   UNL     1     -11.837  13.220  69.883  1.00  0.00    -0.310 A  
HETATM   12  H   UNL     1     -13.146  14.485  70.991  1.00  0.00     0.000 HD 
HETATM   13  C   UNL     1     -10.761  13.552  69.065  1.00  0.00    -0.180 A  
HETATM   14  C   UNL     1     -10.002  12.510  68.503  1.00  0.00    -0.170 A  
HETATM   15  C   UNL     1     -10.376  11.170  68.672  1.00  0.00    -0.219 A  
HETATM   16  C   UNL     1     -11.490  10.883  69.473  1.00  0.00    -0.372 A  
HETATM   17  C   UNL     1     -12.218  11.896  70.118  1.00  0.00    -0.319 A  
BRANCH  15  18
HETATM   18  C   UNL     1      -9.684  10.063  67.899  1.00  0.00    -0.168 C  
BRANCH  18  19
HETATM   19  C   UNL     1     -10.311   9.762  66.543  1.00  0.00    -0.192 C  
BRANCH  19  20
HETATM   20  S   UNL     1      -9.416  10.520  65.206  1.00  0.00    -0.253 S  
HETATM   21  O   UNL     1      -9.570  11.957  65.309  1.00  0.00    -0.222 OA 
HETATM   22  O   UNL     1      -9.726   9.815  63.982  1.00  0.00    -0.116 OA 
BRANCH  20  23
HETATM   23  C   UNL     1      -7.731  10.133  65.644  1.00  0.00    -0.143 A  
HETATM   24  C   UNL     1      -7.286   8.810  65.547  1.00  0.00    -0.085 A  
HETATM   25  C   UNL     1      -5.983   8.499  65.928  1.00  0.00    -0.048 A  
HETATM   26  C   UNL     1      -5.132   9.502  66.396  1.00  0.00    -0.039 A  
HETATM   27  C   UNL     1      -5.577  10.823  66.476  1.00  0.00    -0.085 A  
HETATM   28  C   UNL     1      -6.880  11.146  66.096  1.00  0.00    -0.004 A  
ENDBRANCH  20  23
ENDBRANCH  19  20
ENDBRANCH  18  19
ENDBRANCH  15  18
ENDBRANCH   7   8
ENDBRANCH   6   7
TORSDOF 6
ENDMDL
MODEL      272
REMARK 921   NORMALIZED FREE ENERGY PREDICTED BY IDOCK:   -3.56 KCAL/MOL
REMARK 922        TOTAL FREE ENERGY PREDICTED BY IDOCK:   -6.38 KCAL/MOL
REMARK 923 INTER-LIGAND FREE ENERGY PREDICTED BY IDOCK:   -5.67 KCAL/MOL
REMARK 924 INTRA-LIGAND FREE ENERGY PREDICTED BY IDOCK:   -0.72 KCAL/MOL
REMARK 927      BINDING AFFINITY PREDICTED BY RF-SCORE:    0.00 PKD
ROOT
HETATM    1  C   UNL     1     -10.893  10.846  64.753  1.00  0.00    -0.083 C  
HETATM    2  N   UNL     1     -10.711  12.215  65.227  1.00  0.00    -0.278 NA 
HETATM    3  C   UNL     1     -10.544  13.141  64.100  1.00  0.00    -0.361 C  
HETATM    4  C   UNL     1     -10.997  14.474  64.654  1.00  0.00    -0.351 C  
HETATM    5  C   UNL     1     -12.181  14.095  65.518  1.00  0.00    -0.443 C  
HETATM    6  C   UNL     1     -11.850  12.693  66.048  1.00  0.00    -0.436 C  
ENDROOT
BRANCH   6   7
HETATM    7  C   UNL     1     -11.465  12.688  67.550  1.00  0.00    -0.397 C  
BRANCH   7   8
HETATM    8  C   UNL     1      -9.994  12.887  67.804  1.00  0.00    -0.230 A  
HETATM    9  C   UNL     1      -9.289  14.071  67.712  1.00  0.00    -0.205 A  
HETATM   10  N   UNL     1      -8.002  13.845  68.129  1.00  0.00    -0.137 NA 
HETATM   11  C   UNL     1      -7.853  12.534  68.517  1.00  0.00    -0.108 A  
HETATM   12  H   UNL     1      -7.262  14.548  68.150  1.00  0.00     0.000 HD 
HETATM   13  C   UNL     1      -9.063  11.901  68.253  1.00  0.00    -0.183 A  
HETATM   14  C   UNL     1      -9.173  10.525  68.525  1.00  0.00    -0.168 A  
HETATM   15  C   UNL     1      -8.128   9.826  69.145  1.00  0.00    -0.107 A  
HETATM   16  C   UNL     1      -6.939  10.513  69.429  1.00  0.00    -0.099 A  
HETATM   17  C   UNL     1      -6.768  11.865  69.091  1.00  0.00    -0.105 A  
BRANCH  15  18
HETATM   18  C   UNL     1      -8.321   8.400  69.626  1.00  0.00    -0.122 C  
BRANCH  18  19
HETATM   19  C   UNL     1      -9.737   7.867  69.446  1.00  0.00    -0.170 C  
BRANCH  19  20
HETATM   20  S   UNL     1     -10.128   6.589  70.620  1.00  0.00    -0.187 S  
HETATM   21  O   UNL     1      -9.725   5.315  70.059  1.00  0.00    -0.165 OA 
HETATM   22  O   UNL     1     -11.471   6.806  71.110  1.00  0.00    -0.280 OA 
BRANCH  20  23
HETATM   23  C   UNL     1      -8.998   6.969  71.945  1.00  0.00    -0.132 A  
HETATM   24  C   UNL     1      -9.388   7.873  72.938  1.00  0.00    -0.309 A  
HETATM   25  C   UNL     1      -8.491   8.203  73.952  1.00  0.00    -0.306 A  
HETATM   26  C   UNL     1      -7.219   7.629  73.975  1.00  0.00    -0.136 A  
HETATM   27  C   UNL     1      -6.840   6.714  72.990  1.00  0.00    -0.075 A  
HETATM   28  C   UNL     1      -7.732   6.376  71.970  1.00  0.00    -0.096 A  
ENDBRANCH  20  23
ENDBRANCH  19  20
ENDBRANCH  18  19
ENDBRANCH  15  18
ENDBRANCH   7   8
ENDBRANCH   6   7
TORSDOF 6
ENDMDL
MODEL      273
REMARK 921   NORMALIZED FREE ENERGY PREDICTED BY IDOCK:   -3.52 KCAL/MOL
REMARK 922        TOTAL FREE ENERGY PREDICTED BY IDOCK:   -6.34 KCAL/MOL
REMARK 923 INTER-LIGAND FREE ENERGY PREDICTED BY IDOCK:   -4.68 KCAL/MOL
REMARK 924 INTRA-LIGAND FREE ENERGY PREDICTED BY IDOCK:   -1.66 KCAL/MOL
REMARK 927      BINDING AFFINITY PREDICTED BY RF-SCORE:    0.00 PKD
ROOT
HETATM    1  C   UNL     1     -11.545  16.968  73.030  1.00  0.00     0.575 C  
HETATM    2  N   UNL     1     -12.268  15.776  72.597  1.00  0.00    -0.423 NA 
HETATM    3  C   UNL     1     -13.602  15.723  73.206  1.00  0.00    -0.408 C  
HETATM    4  C   UNL     1     -14.409  14.882  72.242  1.00  0.00    -0.522 C  
HETATM    5  C   UNL     1     -13.904  15.338  70.890  1.00  0.00    -0.311 C  
HETATM    6  C   UNL     1     -12.433  15.710  71.124  1.00  0.00    -0.448 C  
ENDROOT
BRANCH   6   7
HETATM    7  C   UNL     1     -11.444  14.678  70.522  1.00  0.00    -0.273 C  
BRANCH   7   8
HETATM    8  C   UNL     1     -10.808  15.123  69.231  1.00  0.00    -0.255 A  
HETATM    9  C   UNL     1     -11.272  16.097  68.370  1.00  0.00    -0.358 A  
HETATM   10  N   UNL     1     -10.347  16.273  67.371  1.00  0.00    -0.280 NA 
HETATM   11  C   UNL     1      -9.269  15.443  67.574  1.00  0.00    -0.199 A  
HETATM   12  H   UNL     1     -10.444  16.924  66.592  1.00  0.00     0.000 HD 
HETATM   13  C   UNL     1      -9.569  14.664  68.687  1.00  0.00    -0.219 A  
HETATM   14  C   UNL     1      -8.637  13.693  69.095  1.00  0.00     0.466 A  
HETATM   15  C   UNL     1      -7.390  13.577  68.465  1.00  0.00    -0.114 A  
HETATM   16  C   UNL     1      -7.114  14.409  67.370  1.00  0.00    -0.121 A  
HETATM   17  C   UNL     1      -8.057  15.330  66.886  1.00  0.00    -0.224 A  
BRANCH  15  18
HETATM   18  C   UNL     1      -6.310  12.677  69.033  1.00  0.00    -0.092 C  
BRANCH  18  19
HETATM   19  C   UNL     1      -5.741  11.677  68.034  1.00  0.00    -0.044 C  
BRANCH  19  20
HETATM   20  S   UNL     1      -6.591  10.116  68.086  1.00  0.00    -0.058 S  
HETATM   21  O   UNL     1      -6.753   9.731  69.473  1.00  0.00    -0.047 OA 
HETATM   22  O   UNL     1      -5.983   9.225  67.122  1.00  0.00    -0.048 OA 
BRANCH  20  23
HETATM   23  C   UNL     1      -8.201  10.570  67.467  1.00  0.00    -0.114 A  
HETATM   24  C   UNL     1      -8.323  11.030  66.152  1.00  0.00    -0.163 A  
HETATM   25  C   UNL     1      -9.574  11.424  65.681  1.00  0.00    -0.258 A  
HETATM   26  C   UNL     1     -10.691  11.352  66.515  1.00  0.00    -0.325 A  
HETATM   27  C   UNL     1     -10.565  10.877  67.822  1.00  0.00    -0.255 A  
HETATM   28  C   UNL     1      -9.318  10.479  68.304  1.00  0.00    -0.156 A  
ENDBRANCH  20  23
ENDBRANCH  19  20
ENDBRANCH  18  19
ENDBRANCH  15  18
ENDBRANCH   7   8
ENDBRANCH   6   7
TORSDOF 6
ENDMDL
MODEL      274
REMARK 921   NORMALIZED FREE ENERGY PREDICTED BY IDOCK:   -3.52 KCAL/MOL
REMARK 922        TOTAL FREE ENERGY PREDICTED BY IDOCK:   -6.32 KCAL/MOL
REMARK 923 INTER-LIGAND FREE ENERGY PREDICTED BY IDOCK:   -3.84 KCAL/MOL
REMARK 924 INTRA-LIGAND FREE ENERGY PREDICTED BY IDOCK:   -2.49 KCAL/MOL
REMARK 927      BINDING AFFINITY PREDICTED BY RF-SCORE:    0.00 PKD
ROOT
HETATM    1  C   UNL     1      -7.084   1.575  69.801  1.00  0.00    -0.033 C  
HETATM    2  N   UNL     1      -7.374   2.435  68.657  1.00  0.00    -0.047 NA 
HETATM    3  C   UNL     1      -6.370   2.256  67.601  1.00  0.00    -0.028 C  
HETATM    4  C   UNL     1      -7.096   2.661  66.337  1.00  0.00    -0.053 C  
HETATM    5  C   UNL     1      -8.486   2.101  66.552  1.00  0.00    -0.101 C  
HETATM    6  C   UNL     1      -8.710   2.174  68.069  1.00  0.00    -0.097 C  
ENDROOT
BRANCH   6   7
HETATM    7  C   UNL     1      -9.703   3.292  68.482  1.00  0.00     0.012 C  
BRANCH   7   8
HETATM    8  C   UNL     1      -9.510   4.586  67.737  1.00  0.00    -0.196 A  
HETATM    9  C   UNL     1     -10.253   5.047  66.668  1.00  0.00    -0.263 A  
HETATM   10  N   UNL     1      -9.824   6.312  66.353  1.00  0.00    -0.328 NA 
HETATM   11  C   UNL     1      -8.824   6.701  67.213  1.00  0.00    -0.116 A  
HETATM   12  H   UNL     1     -10.195   6.882  65.592  1.00  0.00     0.000 HD 
HETATM   13  C   UNL     1      -8.561   5.611  68.037  1.00  0.00    -0.101 A  
HETATM   14  C   UNL     1      -7.540   5.729  68.997  1.00  0.00    -0.089 A  
HETATM   15  C   UNL     1      -6.871   6.945  69.196  1.00  0.00    -0.068 A  
HETATM   16  C   UNL     1      -7.194   8.030  68.368  1.00  0.00    -0.089 A  
HETATM   17  C   UNL     1      -8.149   7.919  67.344  1.00  0.00    -0.123 A  
BRANCH  15  18
HETATM   18  C   UNL     1      -5.921   7.131  70.364  1.00  0.00    -0.024 C  
BRANCH  18  19
HETATM   19  C   UNL     1      -6.471   6.646  71.699  1.00  0.00    -0.046 C  
BRANCH  19  20
HETATM   20  S   UNL     1      -7.544   7.844  72.459  1.00  0.00    -0.113 S  
HETATM   21  O   UNL     1      -7.152   9.162  72.004  1.00  0.00    -0.323 OA 
HETATM   22  O   UNL     1      -7.659   7.536  73.868  1.00  0.00    -0.111 OA 
BRANCH  20  23
HETATM   23  C   UNL     1      -9.105   7.458  71.690  1.00  0.00    -0.130 A  
HETATM   24  C   UNL     1      -9.655   6.183  71.860  1.00  0.00    -0.166 A  
HETATM   25  C   UNL     1     -10.854   5.866  71.226  1.00  0.00    -0.333 A  
HETATM   26  C   UNL     1     -11.500   6.817  70.434  1.00  0.00    -0.419 A  
HETATM   27  C   UNL     1     -10.955   8.093  70.280  1.00  0.00    -0.240 A  
HETATM   28  C   UNL     1      -9.754   8.422  70.912  1.00  0.00    -0.212 A  
ENDBRANCH  20  23
ENDBRANCH  19  20
ENDBRANCH  18  19
ENDBRANCH  15  18
ENDBRANCH   7   8
ENDBRANCH   6   7
TORSDOF 6
ENDMDL
MODEL      275
REMARK 921   NORMALIZED FREE ENERGY PREDICTED BY IDOCK:   -3.50 KCAL/MOL
REMARK 922        TOTAL FREE ENERGY PREDICTED BY IDOCK:   -6.30 KCAL/MOL
REMARK 923 INTER-LIGAND FREE ENERGY PREDICTED BY IDOCK:   -5.25 KCAL/MOL
REMARK 924 INTRA-LIGAND FREE ENERGY PREDICTED BY IDOCK:   -1.05 KCAL/MOL
REMARK 927      BINDING AFFINITY PREDICTED BY RF-SCORE:    0.00 PKD
ROOT
HETATM    1  C   UNL     1      -9.136   3.207  68.897  1.00  0.00    -0.148 C  
HETATM    2  N   UNL     1      -9.039   4.657  68.750  1.00  0.00    -0.109 NA 
HETATM    3  C   UNL     1      -8.226   5.010  67.580  1.00  0.00    -0.106 C  
HETATM    4  C   UNL     1      -8.720   6.387  67.196  1.00  0.00    -0.110 C  
HETATM    5  C   UNL     1     -10.212   6.288  67.430  1.00  0.00    -0.223 C  
HETATM    6  C   UNL     1     -10.363   5.307  68.601  1.00  0.00    -0.122 C  
ENDROOT
BRANCH   6   7
HETATM    7  C   UNL     1     -10.768   6.004  69.926  1.00  0.00    -0.393 C  
BRANCH   7   8
HETATM    8  C   UNL     1      -9.601   6.528  70.722  1.00  0.00    -0.190 A  
HETATM    9  C   UNL     1      -8.912   5.865  71.719  1.00  0.00    -0.139 A  
HETATM   10  N   UNL     1      -7.855   6.647  72.111  1.00  0.00    -0.097 NA 
HETATM   11  C   UNL     1      -7.824   7.806  71.372  1.00  0.00    -0.090 A  
HETATM   12  H   UNL     1      -7.188   6.403  72.844  1.00  0.00     0.000 HD 
HETATM   13  C   UNL     1      -8.947   7.786  70.551  1.00  0.00    -0.150 A  
HETATM   14  C   UNL     1      -9.180   8.887  69.708  1.00  0.00    -0.167 A  
HETATM   15  C   UNL     1      -8.252   9.935  69.614  1.00  0.00    -0.178 A  
HETATM   16  C   UNL     1      -7.114   9.896  70.432  1.00  0.00    -0.146 A  
HETATM   17  C   UNL     1      -6.896   8.852  71.346  1.00  0.00    -0.086 A  
BRANCH  15  18
HETATM   18  C   UNL     1      -8.398  11.014  68.558  1.00  0.00    -0.149 C  
BRANCH  18  19
HETATM   19  C   UNL     1      -9.029  10.533  67.257  1.00  0.00    -0.139 C  
BRANCH  19  20
HETATM   20  S   UNL     1     -10.554  11.376  66.898  1.00  0.00    -0.264 S  
HETATM   21  O   UNL     1     -11.536  10.983  67.888  1.00  0.00    -0.483 OA 
HETATM   22  O   UNL     1     -10.824  11.262  65.482  1.00  0.00    -0.253 OA 
BRANCH  20  23
HETATM   23  C   UNL     1     -10.109  13.070  67.232  1.00  0.00    -0.235 A  
HETATM   24  C   UNL     1     -10.336  13.597  68.508  1.00  0.00    -0.244 A  
HETATM   25  C   UNL     1     -10.028  14.933  68.759  1.00  0.00    -0.228 A  
HETATM   26  C   UNL     1      -9.492  15.730  67.745  1.00  0.00    -0.212 A  
HETATM   27  C   UNL     1      -9.253  15.194  66.479  1.00  0.00    -0.318 A  
HETATM   28  C   UNL     1      -9.558  13.857  66.216  1.00  0.00    -0.274 A  
ENDBRANCH  20  23
ENDBRANCH  19  20
ENDBRANCH  18  19
ENDBRANCH  15  18
ENDBRANCH   7   8
ENDBRANCH   6   7
TORSDOF 6
ENDMDL
MODEL      276
REMARK 921   NORMALIZED FREE ENERGY PREDICTED BY IDOCK:   -3.49 KCAL/MOL
REMARK 922        TOTAL FREE ENERGY PREDICTED BY IDOCK:   -6.28 KCAL/MOL
REMARK 923 INTER-LIGAND FREE ENERGY PREDICTED BY IDOCK:   -4.89 KCAL/MOL
REMARK 924 INTRA-LIGAND FREE ENERGY PREDICTED BY IDOCK:   -1.39 KCAL/MOL
REMARK 927      BINDING AFFINITY PREDICTED BY RF-SCORE:    0.00 PKD
ROOT
HETATM    1  C   UNL     1     -12.410  12.599  65.848  1.00  0.00    -0.176 C  
HETATM    2  N   UNL     1     -11.245  13.477  65.909  1.00  0.00    -0.299 NA 
HETATM    3  C   UNL     1     -10.736  13.764  64.562  1.00  0.00    -0.390 C  
HETATM    4  C   UNL     1     -10.021  15.088  64.718  1.00  0.00     0.140 C  
HETATM    5  C   UNL     1     -10.921  15.847  65.670  1.00  0.00    -0.207 C  
HETATM    6  C   UNL     1     -11.537  14.770  66.574  1.00  0.00    -0.301 C  
ENDROOT
BRANCH   6   7
HETATM    7  C   UNL     1     -10.950  14.776  68.010  1.00  0.00    -0.276 C  
BRANCH   7   8
HETATM    8  C   UNL     1     -10.048  15.948  68.296  1.00  0.00    -0.224 A  
HETATM    9  C   UNL     1     -10.425  17.269  68.441  1.00  0.00    -0.381 A  
HETATM   10  N   UNL     1      -9.321  18.000  68.802  1.00  0.00    -0.278 NA 
HETATM   11  C   UNL     1      -8.226  17.176  68.920  1.00  0.00    -0.192 A  
HETATM   12  H   UNL     1      -9.313  19.007  68.961  1.00  0.00     0.000 HD 
HETATM   13  C   UNL     1      -8.640  15.904  68.537  1.00  0.00    -0.190 A  
HETATM   14  C   UNL     1      -7.693  14.865  68.529  1.00  0.00    -0.123 A  
HETATM   15  C   UNL     1      -6.387  15.074  68.995  1.00  0.00    -0.100 A  
HETATM   16  C   UNL     1      -6.022  16.363  69.407  1.00  0.00    -0.165 A  
HETATM   17  C   UNL     1      -6.921  17.441  69.347  1.00  0.00    -0.108 A  
BRANCH  15  18
HETATM   18  C   UNL     1      -5.430  13.912  69.181  1.00  0.00    -0.077 C  
BRANCH  18  19
HETATM   19  C   UNL     1      -6.115  12.562  69.361  1.00  0.00    -0.108 C  
BRANCH  19  20
HETATM   20  S   UNL     1      -6.012  11.556  67.897  1.00  0.00    -0.048 S  
HETATM   21  O   UNL     1      -5.242  10.370  68.213  1.00  0.00    -0.035 OA 
HETATM   22  O   UNL     1      -5.667  12.402  66.776  1.00  0.00    -0.301 OA 
BRANCH  20  23
HETATM   23  C   UNL     1      -7.710  11.051  67.696  1.00  0.00    -0.112 A  
HETATM   24  C   UNL     1      -8.612  11.252  68.745  1.00  0.00    -0.109 A  
HETATM   25  C   UNL     1      -9.929  10.820  68.605  1.00  0.00    -0.189 A  
HETATM   26  C   UNL     1     -10.341  10.200  67.424  1.00  0.00    -0.289 A  
HETATM   27  C   UNL     1      -9.440  10.017  66.373  1.00  0.00    -0.235 A  
HETATM   28  C   UNL     1      -8.118  10.446  66.503  1.00  0.00    -0.122 A  
ENDBRANCH  20  23
ENDBRANCH  19  20
ENDBRANCH  18  19
ENDBRANCH  15  18
ENDBRANCH   7   8
ENDBRANCH   6   7
TORSDOF 6
ENDMDL
MODEL      277
REMARK 921   NORMALIZED FREE ENERGY PREDICTED BY IDOCK:   -3.43 KCAL/MOL
REMARK 922        TOTAL FREE ENERGY PREDICTED BY IDOCK:   -6.20 KCAL/MOL
REMARK 923 INTER-LIGAND FREE ENERGY PREDICTED BY IDOCK:   -5.30 KCAL/MOL
REMARK 924 INTRA-LIGAND FREE ENERGY PREDICTED BY IDOCK:   -0.90 KCAL/MOL
REMARK 927      BINDING AFFINITY PREDICTED BY RF-SCORE:    0.00 PKD
ROOT
HETATM    1  C   UNL     1     -10.707  10.991  64.724  1.00  0.00    -0.234 C  
HETATM    2  N   UNL     1     -10.806  12.323  65.314  1.00  0.00    -0.284 NA 
HETATM    3  C   UNL     1     -10.671  13.362  64.285  1.00  0.00    -0.355 C  
HETATM    4  C   UNL     1     -11.394  14.552  64.873  1.00  0.00    -0.394 C  
HETATM    5  C   UNL     1     -12.588  13.919  65.556  1.00  0.00    -0.560 C  
HETATM    6  C   UNL     1     -12.091  12.543  66.021  1.00  0.00    -0.321 C  
ENDROOT
BRANCH   6   7
HETATM    7  C   UNL     1     -11.877  12.462  67.555  1.00  0.00    -0.354 C  
BRANCH   7   8
HETATM    8  C   UNL     1     -10.806  13.386  68.072  1.00  0.00    -0.264 A  
HETATM    9  C   UNL     1     -10.989  14.624  68.656  1.00  0.00    -0.256 A  
HETATM   10  N   UNL     1      -9.771  15.088  69.085  1.00  0.00    -0.247 NA 
HETATM   11  C   UNL     1      -8.790  14.164  68.812  1.00  0.00    -0.061 A  
HETATM   12  H   UNL     1      -9.616  15.987  69.540  1.00  0.00     0.000 HD 
HETATM   13  C   UNL     1      -9.402  13.127  68.114  1.00  0.00    -0.217 A  
HETATM   14  C   UNL     1      -8.606  12.054  67.675  1.00  0.00    -0.163 A  
HETATM   15  C   UNL     1      -7.249  11.972  68.019  1.00  0.00    -0.096 A  
HETATM   16  C   UNL     1      -6.682  13.021  68.757  1.00  0.00    -0.100 A  
HETATM   17  C   UNL     1      -7.430  14.147  69.137  1.00  0.00    -0.037 A  
BRANCH  15  18
HETATM   18  C   UNL     1      -6.444  10.721  67.726  1.00  0.00    -0.059 C  
BRANCH  18  19
HETATM   19  C   UNL     1      -7.208   9.421  67.945  1.00  0.00    -0.082 C  
BRANCH  19  20
HETATM   20  S   UNL     1      -7.078   8.321  66.553  1.00  0.00    -0.073 S  
HETATM   21  O   UNL     1      -5.875   7.529  66.708  1.00  0.00    -0.036 OA 
HETATM   22  O   UNL     1      -7.336   9.072  65.344  1.00  0.00    -0.084 OA 
BRANCH  20  23
HETATM   23  C   UNL     1      -8.468   7.239  66.827  1.00  0.00    -0.121 A  
HETATM   24  C   UNL     1      -9.725   7.600  66.331  1.00  0.00    -0.197 A  
HETATM   25  C   UNL     1     -10.820   6.776  66.580  1.00  0.00    -0.142 A  
HETATM   26  C   UNL     1     -10.658   5.599  67.313  1.00  0.00    -0.328 A  
HETATM   27  C   UNL     1      -9.398   5.235  67.793  1.00  0.00    -0.130 A  
HETATM   28  C   UNL     1      -8.294   6.053  67.548  1.00  0.00    -0.108 A  
ENDBRANCH  20  23
ENDBRANCH  19  20
ENDBRANCH  18  19
ENDBRANCH  15  18
ENDBRANCH   7   8
ENDBRANCH   6   7
TORSDOF 6
ENDMDL
MODEL      278
REMARK 921   NORMALIZED FREE ENERGY PREDICTED BY IDOCK:   -3.40 KCAL/MOL
REMARK 922        TOTAL FREE ENERGY PREDICTED BY IDOCK:   -6.16 KCAL/MOL
REMARK 923 INTER-LIGAND FREE ENERGY PREDICTED BY IDOCK:   -5.35 KCAL/MOL
REMARK 924 INTRA-LIGAND FREE ENERGY PREDICTED BY IDOCK:   -0.81 KCAL/MOL
REMARK 927      BINDING AFFINITY PREDICTED BY RF-SCORE:    0.00 PKD
ROOT
HETATM    1  C   UNL     1     -11.831   6.203  72.182  1.00  0.00    -0.285 C  
HETATM    2  N   UNL     1     -11.089   5.819  73.380  1.00  0.00    -0.219 NA 
HETATM    3  C   UNL     1     -11.301   4.401  73.694  1.00  0.00    -0.202 C  
HETATM    4  C   UNL     1     -10.068   4.015  74.481  1.00  0.00    -0.234 C  
HETATM    5  C   UNL     1      -8.964   4.765  73.767  1.00  0.00    -0.106 C  
HETATM    6  C   UNL     1      -9.630   6.047  73.247  1.00  0.00    -0.143 C  
ENDROOT
BRANCH   6   7
HETATM    7  C   UNL     1      -9.212   7.312  74.041  1.00  0.00    -0.292 C  
BRANCH   7   8
HETATM    8  C   UNL     1      -7.933   7.942  73.558  1.00  0.00    -0.225 A  
HETATM    9  C   UNL     1      -6.700   7.899  74.180  1.00  0.00    -0.111 A  
HETATM   10  N   UNL     1      -5.779   8.502  73.361  1.00  0.00    -0.086 NA 
HETATM   11  C   UNL     1      -6.382   8.923  72.198  1.00  0.00    -0.026 A  
HETATM   12  H   UNL     1      -4.790   8.621  73.582  1.00  0.00     0.000 HD 
HETATM   13  C   UNL     1      -7.739   8.650  72.332  1.00  0.00    -0.031 A  
HETATM   14  C   UNL     1      -8.603   9.020  71.286  1.00  0.00    -0.221 A  
HETATM   15  C   UNL     1      -8.102   9.554  70.090  1.00  0.00    -0.186 A  
HETATM   16  C   UNL     1      -6.722   9.778  69.983  1.00  0.00    -0.089 A  
HETATM   17  C   UNL     1      -5.844   9.498  71.043  1.00  0.00    -0.069 A  
BRANCH  15  18
HETATM   18  C   UNL     1      -9.005   9.759  68.889  1.00  0.00    -0.144 C  
BRANCH  18  19
HETATM   19  C   UNL     1      -8.339   9.468  67.550  1.00  0.00    -0.125 C  
BRANCH  19  20
HETATM   20  S   UNL     1      -9.391   8.530  66.465  1.00  0.00    -0.220 S  
HETATM   21  O   UNL     1     -10.619   8.226  67.170  1.00  0.00    -0.317 OA 
HETATM   22  O   UNL     1      -8.603   7.490  65.840  1.00  0.00    -0.144 OA 
BRANCH  20  23
HETATM   23  C   UNL     1      -9.780   9.741  65.216  1.00  0.00    -0.300 A  
HETATM   24  C   UNL     1      -9.211   9.619  63.943  1.00  0.00    -0.184 A  
HETATM   25  C   UNL     1      -9.481  10.587  62.979  1.00  0.00    -0.364 A  
HETATM   26  C   UNL     1     -10.315  11.664  63.282  1.00  0.00    -0.444 A  
HETATM   27  C   UNL     1     -10.893  11.773  64.549  1.00  0.00    -0.377 A  
HETATM   28  C   UNL     1     -10.630  10.808  65.522  1.00  0.00    -0.205 A  
ENDBRANCH  20  23
ENDBRANCH  19  20
ENDBRANCH  18  19
ENDBRANCH  15  18
ENDBRANCH   7   8
ENDBRANCH   6   7
TORSDOF 6
ENDMDL
MODEL      279
REMARK 921   NORMALIZED FREE ENERGY PREDICTED BY IDOCK:   -3.34 KCAL/MOL
REMARK 922        TOTAL FREE ENERGY PREDICTED BY IDOCK:   -6.09 KCAL/MOL
REMARK 923 INTER-LIGAND FREE ENERGY PREDICTED BY IDOCK:   -4.94 KCAL/MOL
REMARK 924 INTRA-LIGAND FREE ENERGY PREDICTED BY IDOCK:   -1.15 KCAL/MOL
REMARK 927      BINDING AFFINITY PREDICTED BY RF-SCORE:    0.00 PKD
ROOT
HETATM    1  C   UNL     1      -8.775   4.335  72.802  1.00  0.00    -0.104 C  
HETATM    2  N   UNL     1     -10.012   4.832  72.208  1.00  0.00    -0.172 NA 
HETATM    3  C   UNL     1     -10.846   5.498  73.216  1.00  0.00    -0.293 C  
HETATM    4  C   UNL     1     -11.693   6.457  72.411  1.00  0.00    -0.286 C  
HETATM    5  C   UNL     1     -10.725   6.967  71.364  1.00  0.00    -0.247 C  
HETATM    6  C   UNL     1      -9.772   5.792  71.104  1.00  0.00    -0.169 C  
ENDROOT
BRANCH   6   7
HETATM    7  C   UNL     1     -10.019   5.104  69.735  1.00  0.00    -0.313 C  
BRANCH   7   8
HETATM    8  C   UNL     1      -9.067   5.540  68.652  1.00  0.00    -0.128 A  
HETATM    9  C   UNL     1      -7.993   4.828  68.156  1.00  0.00    -0.085 A  
HETATM   10  N   UNL     1      -7.454   5.530  67.107  1.00  0.00    -0.083 NA 
HETATM   11  C   UNL     1      -8.170   6.683  66.890  1.00  0.00    -0.113 A  
HETATM   12  H   UNL     1      -6.639   5.237  66.566  1.00  0.00     0.000 HD 
HETATM   13  C   UNL     1      -9.136   6.746  67.890  1.00  0.00    -0.114 A  
HETATM   14  C   UNL     1      -9.993   7.861  67.924  1.00  0.00    -0.220 A  
HETATM   15  C   UNL     1      -9.950   8.836  66.917  1.00  0.00    -0.327 A  
HETATM   16  C   UNL     1      -8.986   8.713  65.907  1.00  0.00    -0.245 A  
HETATM   17  C   UNL     1      -8.060   7.657  65.892  1.00  0.00    -0.122 A  
BRANCH  15  18
HETATM   18  C   UNL     1     -11.006   9.922  66.839  1.00  0.00    -0.047 C  
BRANCH  18  19
HETATM   19  C   UNL     1     -10.459  11.301  66.490  1.00  0.00    -0.253 C  
BRANCH  19  20
HETATM   20  S   UNL     1     -10.442  12.393  67.893  1.00  0.00    -0.221 S  
HETATM   21  O   UNL     1     -10.664  11.604  69.088  1.00  0.00    -0.208 OA 
HETATM   22  O   UNL     1     -11.258  13.549  67.591  1.00  0.00    -0.261 OA 
BRANCH  20  23
HETATM   23  C   UNL     1      -8.739  12.920  67.912  1.00  0.00    -0.186 A  
HETATM   24  C   UNL     1      -8.433  14.257  67.638  1.00  0.00    -0.185 A  
HETATM   25  C   UNL     1      -7.100  14.661  67.610  1.00  0.00    -0.203 A  
HETATM   26  C   UNL     1      -6.084  13.738  67.861  1.00  0.00    -0.154 A  
HETATM   27  C   UNL     1      -6.395  12.408  68.150  1.00  0.00    -0.065 A  
HETATM   28  C   UNL     1      -7.727  11.992  68.181  1.00  0.00    -0.135 A  
ENDBRANCH  20  23
ENDBRANCH  19  20
ENDBRANCH  18  19
ENDBRANCH  15  18
ENDBRANCH   7   8
ENDBRANCH   6   7
TORSDOF 6
ENDMDL
MODEL      280
REMARK 921   NORMALIZED FREE ENERGY PREDICTED BY IDOCK:   -3.32 KCAL/MOL
REMARK 922        TOTAL FREE ENERGY PREDICTED BY IDOCK:   -6.06 KCAL/MOL
REMARK 923 INTER-LIGAND FREE ENERGY PREDICTED BY IDOCK:   -5.27 KCAL/MOL
REMARK 924 INTRA-LIGAND FREE ENERGY PREDICTED BY IDOCK:   -0.79 KCAL/MOL
REMARK 927      BINDING AFFINITY PREDICTED BY RF-SCORE:    0.00 PKD
ROOT
HETATM    1  C   UNL     1     -10.605   8.512  71.971  1.00  0.00    -0.338 C  
HETATM    2  N   UNL     1      -9.221   8.676  72.409  1.00  0.00    -0.346 NA 
HETATM    3  C   UNL     1      -8.996   8.000  73.693  1.00  0.00    -0.247 C  
HETATM    4  C   UNL     1      -7.512   7.707  73.693  1.00  0.00    -0.139 C  
HETATM    5  C   UNL     1      -7.245   7.316  72.255  1.00  0.00    -0.068 C  
HETATM    6  C   UNL     1      -8.244   8.140  71.431  1.00  0.00    -0.120 C  
ENDROOT
BRANCH   6   7
HETATM    7  C   UNL     1      -7.574   9.303  70.654  1.00  0.00    -0.161 C  
BRANCH   7   8
HETATM    8  C   UNL     1      -7.758   9.226  69.161  1.00  0.00    -0.078 A  
HETATM    9  C   UNL     1      -7.037   8.450  68.275  1.00  0.00    -0.085 A  
HETATM   10  N   UNL     1      -7.589   8.587  67.026  1.00  0.00    -0.091 NA 
HETATM   11  C   UNL     1      -8.678   9.425  67.080  1.00  0.00    -0.127 A  
HETATM   12  H   UNL     1      -7.243   8.133  66.181  1.00  0.00     0.000 HD 
HETATM   13  C   UNL     1      -8.757   9.893  68.388  1.00  0.00    -0.120 A  
HETATM   14  C   UNL     1      -9.774  10.810  68.711  1.00  0.00    -0.197 A  
HETATM   15  C   UNL     1     -10.752  11.166  67.771  1.00  0.00    -0.267 A  
HETATM   16  C   UNL     1     -10.656  10.640  66.475  1.00  0.00    -0.257 A  
HETATM   17  C   UNL     1      -9.604   9.790  66.097  1.00  0.00    -0.287 A  
BRANCH  15  18
HETATM   18  C   UNL     1     -11.961  11.986  68.176  1.00  0.00    -0.231 C  
BRANCH  18  19
HETATM   19  C   UNL     1     -11.621  13.339  68.789  1.00  0.00    -0.312 C  
BRANCH  19  20
HETATM   20  S   UNL     1     -11.406  14.602  67.554  1.00  0.00    -0.360 S  
HETATM   21  O   UNL     1     -11.863  15.861  68.105  1.00  0.00    -0.231 OA 
HETATM   22  O   UNL     1     -11.907  14.105  66.291  1.00  0.00    -0.377 OA 
BRANCH  20  23
HETATM   23  C   UNL     1      -9.628  14.684  67.439  1.00  0.00    -0.215 A  
HETATM   24  C   UNL     1      -8.906  13.518  67.167  1.00  0.00    -0.231 A  
HETATM   25  C   UNL     1      -7.514  13.572  67.118  1.00  0.00     0.075 A  
HETATM   26  C   UNL     1      -6.853  14.783  67.333  1.00  0.00    -0.101 A  
HETATM   27  C   UNL     1      -7.580  15.947  67.588  1.00  0.00    -0.171 A  
HETATM   28  C   UNL     1      -8.975  15.904  67.639  1.00  0.00    -0.193 A  
ENDBRANCH  20  23
ENDBRANCH  19  20
ENDBRANCH  18  19
ENDBRANCH  15  18
ENDBRANCH   7   8
ENDBRANCH   6   7
TORSDOF 6
ENDMDL
MODEL      281
REMARK 921   NORMALIZED FREE ENERGY PREDICTED BY IDOCK:   -3.32 KCAL/MOL
REMARK 922        TOTAL FREE ENERGY PREDICTED BY IDOCK:   -6.06 KCAL/MOL
REMARK 923 INTER-LIGAND FREE ENERGY PREDICTED BY IDOCK:   -5.42 KCAL/MOL
REMARK 924 INTRA-LIGAND FREE ENERGY PREDICTED BY IDOCK:   -0.64 KCAL/MOL
REMARK 927      BINDING AFFINITY PREDICTED BY RF-SCORE:    0.00 PKD
ROOT
HETATM    1  C   UNL     1      -7.534   8.250  72.376  1.00  0.00    -0.118 C  
HETATM    2  N   UNL     1      -8.706   7.379  72.370  1.00  0.00    -0.118 NA 
HETATM    3  C   UNL     1      -8.934   6.801  73.700  1.00  0.00    -0.141 C  
HETATM    4  C   UNL     1     -10.414   6.491  73.711  1.00  0.00    -0.335 C  
HETATM    5  C   UNL     1     -11.013   7.671  72.977  1.00  0.00    -0.457 C  
HETATM    6  C   UNL     1      -9.942   8.085  71.957  1.00  0.00    -0.213 C  
ENDROOT
BRANCH   6   7
HETATM    7  C   UNL     1     -10.314   7.704  70.500  1.00  0.00    -0.211 C  
BRANCH   7   8
HETATM    8  C   UNL     1     -10.849   8.853  69.686  1.00  0.00    -0.186 A  
HETATM    9  C   UNL     1     -11.644   9.889  70.135  1.00  0.00    -0.218 A  
HETATM   10  N   UNL     1     -11.819  10.781  69.106  1.00  0.00    -0.454 NA 
HETATM   11  C   UNL     1     -11.132  10.358  67.992  1.00  0.00    -0.298 A  
HETATM   12  H   UNL     1     -12.376  11.634  69.161  1.00  0.00     0.000 HD 
HETATM   13  C   UNL     1     -10.581   9.121  68.308  1.00  0.00    -0.223 A  
HETATM   14  C   UNL     1      -9.849   8.441  67.318  1.00  0.00    -0.264 A  
HETATM   15  C   UNL     1      -9.588   9.036  66.076  1.00  0.00    -0.342 A  
HETATM   16  C   UNL     1     -10.131  10.301  65.813  1.00  0.00    -0.325 A  
HETATM   17  C   UNL     1     -10.937  10.969  66.749  1.00  0.00    -0.279 A  
BRANCH  15  18
HETATM   18  C   UNL     1      -8.630   8.395  65.090  1.00  0.00    -0.159 C  
BRANCH  18  19
HETATM   19  C   UNL     1      -8.352   6.921  65.358  1.00  0.00    -0.119 C  
BRANCH  19  20
HETATM   20  S   UNL     1      -7.647   6.102  63.945  1.00  0.00    -0.095 S  
HETATM   21  O   UNL     1      -6.316   5.651  64.297  1.00  0.00    -0.028 OA 
HETATM   22  O   UNL     1      -7.882   6.916  62.773  1.00  0.00    -0.107 OA 
BRANCH  20  23
HETATM   23  C   UNL     1      -8.684   4.658  63.821  1.00  0.00    -0.140 A  
HETATM   24  C   UNL     1      -8.561   3.643  64.776  1.00  0.00    -0.105 A  
HETATM   25  C   UNL     1      -9.341   2.495  64.657  1.00  0.00    -0.136 A  
HETATM   26  C   UNL     1     -10.239   2.366  63.595  1.00  0.00    -0.149 A  
HETATM   27  C   UNL     1     -10.369   3.388  62.654  1.00  0.00    -0.165 A  
HETATM   28  C   UNL     1      -9.593   4.543  62.764  1.00  0.00    -0.032 A  
ENDBRANCH  20  23
ENDBRANCH  19  20
ENDBRANCH  18  19
ENDBRANCH  15  18
ENDBRANCH   7   8
ENDBRANCH   6   7
TORSDOF 6
ENDMDL
MODEL      282
REMARK 921   NORMALIZED FREE ENERGY PREDICTED BY IDOCK:   -3.31 KCAL/MOL
REMARK 922        TOTAL FREE ENERGY PREDICTED BY IDOCK:   -6.05 KCAL/MOL
REMARK 923 INTER-LIGAND FREE ENERGY PREDICTED BY IDOCK:   -5.59 KCAL/MOL
REMARK 924 INTRA-LIGAND FREE ENERGY PREDICTED BY IDOCK:   -0.46 KCAL/MOL
REMARK 927      BINDING AFFINITY PREDICTED BY RF-SCORE:    0.00 PKD
ROOT
HETATM    1  C   UNL     1     -12.111   7.108  70.773  1.00  0.00    -0.288 C  
HETATM    2  N   UNL     1     -10.703   6.881  70.462  1.00  0.00    -0.227 NA 
HETATM    3  C   UNL     1     -10.309   5.507  70.793  1.00  0.00    -0.251 C  
HETATM    4  C   UNL     1      -9.129   5.238  69.886  1.00  0.00    -0.165 C  
HETATM    5  C   UNL     1      -9.534   5.918  68.595  1.00  0.00    -0.137 C  
HETATM    6  C   UNL     1     -10.387   7.117  69.032  1.00  0.00    -0.199 C  
ENDROOT
BRANCH   6   7
HETATM    7  C   UNL     1      -9.654   8.474  68.864  1.00  0.00    -0.160 C  
BRANCH   7   8
HETATM    8  C   UNL     1      -8.763   8.541  67.652  1.00  0.00    -0.136 A  
HETATM    9  C   UNL     1      -7.703   7.707  67.354  1.00  0.00    -0.117 A  
HETATM   10  N   UNL     1      -7.226   8.037  66.110  1.00  0.00    -0.069 NA 
HETATM   11  C   UNL     1      -7.970   9.062  65.574  1.00  0.00    -0.106 A  
HETATM   12  H   UNL     1      -6.435   7.587  65.650  1.00  0.00     0.000 HD 
HETATM   13  C   UNL     1      -8.887   9.442  66.549  1.00  0.00    -0.155 A  
HETATM   14  C   UNL     1      -9.758  10.510  66.270  1.00  0.00    -0.254 A  
HETATM   15  C   UNL     1      -9.779  11.113  65.005  1.00  0.00    -0.298 A  
HETATM   16  C   UNL     1      -8.863  10.674  64.039  1.00  0.00    -0.173 A  
HETATM   17  C   UNL     1      -7.923   9.667  64.314  1.00  0.00    -0.139 A  
BRANCH  15  18
HETATM   18  C   UNL     1     -10.853  12.119  64.638  1.00  0.00    -0.351 C  
BRANCH  18  19
HETATM   19  C   UNL     1     -10.327  13.521  64.359  1.00  0.00    -0.281 C  
BRANCH  19  20
HETATM   20  S   UNL     1     -10.758  14.670  65.647  1.00  0.00    -0.355 S  
HETATM   21  O   UNL     1     -11.666  14.010  66.562  1.00  0.00    -0.355 OA 
HETATM   22  O   UNL     1     -11.089  15.942  65.042  1.00  0.00    -0.396 OA 
BRANCH  20  23
HETATM   23  C   UNL     1      -9.198  14.859  66.489  1.00  0.00    -0.285 A  
HETATM   24  C   UNL     1      -8.331  15.887  66.100  1.00  0.00    -0.085 A  
HETATM   25  C   UNL     1      -7.094  16.010  66.729  1.00  0.00    -0.091 A  
HETATM   26  C   UNL     1      -6.730  15.118  67.739  1.00  0.00    -0.185 A  
HETATM   27  C   UNL     1      -7.605  14.104  68.133  1.00  0.00    -0.136 A  
HETATM   28  C   UNL     1      -8.847  13.972  67.511  1.00  0.00    -0.199 A  
ENDBRANCH  20  23
ENDBRANCH  19  20
ENDBRANCH  18  19
ENDBRANCH  15  18
ENDBRANCH   7   8
ENDBRANCH   6   7
TORSDOF 6
ENDMDL
MODEL      283
REMARK 921   NORMALIZED FREE ENERGY PREDICTED BY IDOCK:   -3.28 KCAL/MOL
REMARK 922        TOTAL FREE ENERGY PREDICTED BY IDOCK:   -6.01 KCAL/MOL
REMARK 923 INTER-LIGAND FREE ENERGY PREDICTED BY IDOCK:   -4.82 KCAL/MOL
REMARK 924 INTRA-LIGAND FREE ENERGY PREDICTED BY IDOCK:   -1.18 KCAL/MOL
REMARK 927      BINDING AFFINITY PREDICTED BY RF-SCORE:    0.00 PKD
ROOT
HETATM    1  C   UNL     1      -6.851  13.304  67.679  1.00  0.00    -0.163 C  
HETATM    2  N   UNL     1      -7.132  14.164  68.825  1.00  0.00    -0.102 NA 
HETATM    3  C   UNL     1      -5.887  14.595  69.473  1.00  0.00    -0.101 C  
HETATM    4  C   UNL     1      -6.263  15.890  70.158  1.00  0.00    -0.058 C  
HETATM    5  C   UNL     1      -7.190  16.545  69.156  1.00  0.00    -0.226 C  
HETATM    6  C   UNL     1      -7.900  15.378  68.455  1.00  0.00    -0.129 C  
ENDROOT
BRANCH   6   7
HETATM    7  C   UNL     1      -9.382  15.224  68.885  1.00  0.00    -0.213 C  
BRANCH   7   8
HETATM    8  C   UNL     1     -10.170  14.267  68.029  1.00  0.00    -0.226 A  
HETATM    9  C   UNL     1     -10.256  14.265  66.650  1.00  0.00    -0.272 A  
HETATM   10  N   UNL     1     -10.983  13.168  66.262  1.00  0.00    -0.278 NA 
HETATM   11  C   UNL     1     -11.361  12.436  67.363  1.00  0.00    -0.321 A  
HETATM   12  H   UNL     1     -11.211  12.930  65.296  1.00  0.00     0.000 HD 
HETATM   13  C   UNL     1     -10.928  13.143  68.480  1.00  0.00    -0.289 A  
HETATM   14  C   UNL     1     -11.221  12.627  69.755  1.00  0.00     0.005 A  
HETATM   15  C   UNL     1     -11.842  11.378  69.904  1.00  0.00    -0.435 A  
HETATM   16  C   UNL     1     -12.228  10.681  68.750  1.00  0.00     0.230 A  
HETATM   17  C   UNL     1     -12.025  11.209  67.464  1.00  0.00     0.297 A  
BRANCH  15  18
HETATM   18  C   UNL     1     -11.970  10.729  71.268  1.00  0.00    -0.286 C  
BRANCH  18  19
HETATM   19  C   UNL     1     -10.932   9.650  71.547  1.00  0.00    -0.196 C  
BRANCH  19  20
HETATM   20  S   UNL     1     -11.614   8.012  71.416  1.00  0.00    -0.274 S  
HETATM   21  O   UNL     1     -13.001   8.125  71.016  1.00  0.00    -0.120 OA 
HETATM   22  O   UNL     1     -11.226   7.254  72.586  1.00  0.00    -0.286 OA 
BRANCH  20  23
HETATM   23  C   UNL     1     -10.709   7.362  70.024  1.00  0.00    -0.246 A  
HETATM   24  C   UNL     1     -10.942   6.046  69.611  1.00  0.00    -0.470 A  
HETATM   25  C   UNL     1     -10.206   5.524  68.549  1.00  0.00    -0.250 A  
HETATM   26  C   UNL     1      -9.251   6.312  67.904  1.00  0.00    -0.116 A  
HETATM   27  C   UNL     1      -9.034   7.630  68.310  1.00  0.00    -0.127 A  
HETATM   28  C   UNL     1      -9.766   8.164  69.372  1.00  0.00    -0.170 A  
ENDBRANCH  20  23
ENDBRANCH  19  20
ENDBRANCH  18  19
ENDBRANCH  15  18
ENDBRANCH   7   8
ENDBRANCH   6   7
TORSDOF 6
ENDMDL
MODEL      284
REMARK 921   NORMALIZED FREE ENERGY PREDICTED BY IDOCK:   -3.23 KCAL/MOL
REMARK 922        TOTAL FREE ENERGY PREDICTED BY IDOCK:   -5.94 KCAL/MOL
REMARK 923 INTER-LIGAND FREE ENERGY PREDICTED BY IDOCK:   -5.07 KCAL/MOL
REMARK 924 INTRA-LIGAND FREE ENERGY PREDICTED BY IDOCK:   -0.87 KCAL/MOL
REMARK 927      BINDING AFFINITY PREDICTED BY RF-SCORE:    0.00 PKD
ROOT
HETATM    1  C   UNL     1      -8.803   7.854  73.741  1.00  0.00    -0.271 C  
HETATM    2  N   UNL     1      -8.415   7.124  72.537  1.00  0.00    -0.111 NA 
HETATM    3  C   UNL     1      -6.974   7.251  72.290  1.00  0.00    -0.063 C  
HETATM    4  C   UNL     1      -6.634   6.020  71.481  1.00  0.00    -0.054 C  
HETATM    5  C   UNL     1      -7.484   4.946  72.126  1.00  0.00    -0.088 C  
HETATM    6  C   UNL     1      -8.742   5.680  72.613  1.00  0.00    -0.123 C  
ENDROOT
BRANCH   6   7
HETATM    7  C   UNL     1      -9.995   5.370  71.753  1.00  0.00    -0.235 C  
BRANCH   7   8
HETATM    8  C   UNL     1      -9.693   5.134  70.296  1.00  0.00    -0.272 A  
HETATM    9  C   UNL     1      -9.616   3.915  69.652  1.00  0.00    -0.189 A  
HETATM   10  N   UNL     1      -9.430   4.142  68.311  1.00  0.00    -0.157 NA 
HETATM   11  C   UNL     1      -9.405   5.494  68.059  1.00  0.00    -0.110 A  
HETATM   12  H   UNL     1      -9.325   3.414  67.604  1.00  0.00     0.000 HD 
HETATM   13  C   UNL     1      -9.493   6.131  69.293  1.00  0.00    -0.147 A  
HETATM   14  C   UNL     1      -9.451   7.537  69.325  1.00  0.00    -0.154 A  
HETATM   15  C   UNL     1      -9.428   8.287  68.140  1.00  0.00    -0.148 A  
HETATM   16  C   UNL     1      -9.378   7.603  66.917  1.00  0.00    -0.203 A  
HETATM   17  C   UNL     1      -9.332   6.201  66.855  1.00  0.00    -0.143 A  
BRANCH  15  18
HETATM   18  C   UNL     1      -9.592   9.794  68.168  1.00  0.00    -0.158 C  
BRANCH  18  19
HETATM   19  C   UNL     1      -9.781  10.376  69.563  1.00  0.00    -0.170 C  
BRANCH  19  20
HETATM   20  S   UNL     1     -11.487  10.369  70.069  1.00  0.00    -0.327 S  
HETATM   21  O   UNL     1     -11.561   9.843  71.417  1.00  0.00    -0.374 OA 
HETATM   22  O   UNL     1     -12.285   9.814  68.999  1.00  0.00     0.577 OA 
BRANCH  20  23
HETATM   23  C   UNL     1     -11.836  12.115  70.159  1.00  0.00    -0.287 A  
HETATM   24  C   UNL     1     -11.302  12.970  69.189  1.00  0.00    -0.328 A  
HETATM   25  C   UNL     1     -11.539  14.340  69.282  1.00  0.00    -0.350 A  
HETATM   26  C   UNL     1     -12.308  14.848  70.330  1.00  0.00    -0.401 A  
HETATM   27  C   UNL     1     -12.851  13.988  71.286  1.00  0.00    -0.430 A  
HETATM   28  C   UNL     1     -12.621  12.614  71.203  1.00  0.00    -0.354 A  
ENDBRANCH  20  23
ENDBRANCH  19  20
ENDBRANCH  18  19
ENDBRANCH  15  18
ENDBRANCH   7   8
ENDBRANCH   6   7
TORSDOF 6
ENDMDL
MODEL      285
REMARK 921   NORMALIZED FREE ENERGY PREDICTED BY IDOCK:   -3.23 KCAL/MOL
REMARK 922        TOTAL FREE ENERGY PREDICTED BY IDOCK:   -5.94 KCAL/MOL
REMARK 923 INTER-LIGAND FREE ENERGY PREDICTED BY IDOCK:   -4.95 KCAL/MOL
REMARK 924 INTRA-LIGAND FREE ENERGY PREDICTED BY IDOCK:   -0.99 KCAL/MOL
REMARK 927      BINDING AFFINITY PREDICTED BY RF-SCORE:    0.00 PKD
ROOT
HETATM    1  C   UNL     1     -10.972  14.706  67.936  1.00  0.00    -0.277 C  
HETATM    2  N   UNL     1     -10.719  13.440  68.618  1.00  0.00    -0.253 NA 
HETATM    3  C   UNL     1     -11.742  13.184  69.640  1.00  0.00    -0.303 C  
HETATM    4  C   UNL     1     -11.743  11.679  69.784  1.00  0.00    -0.425 C  
HETATM    5  C   UNL     1     -11.559  11.203  68.359  1.00  0.00    -0.376 C  
HETATM    6  C   UNL     1     -10.699  12.284  67.690  1.00  0.00    -0.220 C  
ENDROOT
BRANCH   6   7
HETATM    7  C   UNL     1      -9.239  11.826  67.439  1.00  0.00    -0.174 C  
BRANCH   7   8
HETATM    8  C   UNL     1      -9.116  10.669  66.482  1.00  0.00    -0.179 A  
HETATM    9  C   UNL     1      -8.845  10.736  65.130  1.00  0.00    -0.186 A  
HETATM   10  N   UNL     1      -8.710   9.457  64.650  1.00  0.00    -0.191 NA 
HETATM   11  C   UNL     1      -8.868   8.549  65.670  1.00  0.00    -0.173 A  
HETATM   12  H   UNL     1      -8.520   9.215  63.677  1.00  0.00     0.000 HD 
HETATM   13  C   UNL     1      -9.195   9.280  66.808  1.00  0.00    -0.185 A  
HETATM   14  C   UNL     1      -9.450   8.583  68.002  1.00  0.00    -0.154 A  
HETATM   15  C   UNL     1      -9.278   7.193  68.079  1.00  0.00    -0.130 A  
HETATM   16  C   UNL     1      -8.909   6.500  66.917  1.00  0.00    -0.120 A  
HETATM   17  C   UNL     1      -8.731   7.157  65.689  1.00  0.00    -0.088 A  
BRANCH  15  18
HETATM   18  C   UNL     1      -9.350   6.471  69.410  1.00  0.00    -0.143 C  
BRANCH  18  19
HETATM   19  C   UNL     1     -10.608   6.770  70.216  1.00  0.00    -0.215 C  
BRANCH  19  20
HETATM   20  S   UNL     1     -10.254   7.682  71.701  1.00  0.00    -0.186 S  
HETATM   21  O   UNL     1     -10.385   6.784  72.830  1.00  0.00    -0.196 OA 
HETATM   22  O   UNL     1     -10.966   8.940  71.653  1.00  0.00    -0.292 OA 
BRANCH  20  23
HETATM   23  C   UNL     1      -8.518   8.031  71.497  1.00  0.00    -0.121 A  
HETATM   24  C   UNL     1      -7.579   7.049  71.830  1.00  0.00    -0.088 A  
HETATM   25  C   UNL     1      -6.221   7.335  71.710  1.00  0.00    -0.037 A  
HETATM   26  C   UNL     1      -5.806   8.588  71.256  1.00  0.00    -0.038 A  
HETATM   27  C   UNL     1      -6.748   9.559  70.909  1.00  0.00    -0.085 A  
HETATM   28  C   UNL     1      -8.111   9.283  71.025  1.00  0.00    -0.115 A  
ENDBRANCH  20  23
ENDBRANCH  19  20
ENDBRANCH  18  19
ENDBRANCH  15  18
ENDBRANCH   7   8
ENDBRANCH   6   7
TORSDOF 6
ENDMDL
MODEL      286
REMARK 921   NORMALIZED FREE ENERGY PREDICTED BY IDOCK:   -3.23 KCAL/MOL
REMARK 922        TOTAL FREE ENERGY PREDICTED BY IDOCK:   -5.94 KCAL/MOL
REMARK 923 INTER-LIGAND FREE ENERGY PREDICTED BY IDOCK:   -5.82 KCAL/MOL
REMARK 924 INTRA-LIGAND FREE ENERGY PREDICTED BY IDOCK:   -0.11 KCAL/MOL
REMARK 927      BINDING AFFINITY PREDICTED BY RF-SCORE:    0.00 PKD
ROOT
HETATM    1  C   UNL     1     -11.095   8.400  71.762  1.00  0.00    -0.290 C  
HETATM    2  N   UNL     1     -10.228   7.369  71.199  1.00  0.00    -0.194 NA 
HETATM    3  C   UNL     1     -10.697   6.029  71.574  1.00  0.00    -0.255 C  
HETATM    4  C   UNL     1     -10.158   5.136  70.479  1.00  0.00    -0.326 C  
HETATM    5  C   UNL     1     -10.329   5.984  69.237  1.00  0.00    -0.294 C  
HETATM    6  C   UNL     1     -10.151   7.430  69.720  1.00  0.00    -0.193 C  
ENDROOT
BRANCH   6   7
HETATM    7  C   UNL     1      -8.800   8.054  69.281  1.00  0.00    -0.141 C  
BRANCH   7   8
HETATM    8  C   UNL     1      -8.680   8.268  67.795  1.00  0.00    -0.134 A  
HETATM    9  C   UNL     1      -7.951   7.506  66.903  1.00  0.00    -0.115 A  
HETATM   10  N   UNL     1      -8.195   7.969  65.634  1.00  0.00    -0.128 NA 
HETATM   11  C   UNL     1      -9.091   9.012  65.675  1.00  0.00    -0.223 A  
HETATM   12  H   UNL     1      -7.774   7.594  64.784  1.00  0.00     0.000 HD 
HETATM   13  C   UNL     1      -9.349   9.263  67.019  1.00  0.00    -0.183 A  
HETATM   14  C   UNL     1     -10.217  10.320  67.347  1.00  0.00    -0.265 A  
HETATM   15  C   UNL     1     -10.891  11.039  66.350  1.00  0.00    -0.253 A  
HETATM   16  C   UNL     1     -10.629  10.728  65.008  1.00  0.00    -0.243 A  
HETATM   17  C   UNL     1      -9.704   9.735  64.647  1.00  0.00    -0.166 A  
BRANCH  15  18
HETATM   18  C   UNL     1     -11.978  12.035  66.706  1.00  0.00    -0.087 C  
BRANCH  18  19
HETATM   19  C   UNL     1     -11.569  13.057  67.758  1.00  0.00    -0.340 C  
BRANCH  19  20
HETATM   20  S   UNL     1     -11.481  12.348  69.387  1.00  0.00    -0.245 S  
HETATM   21  O   UNL     1     -10.086  12.178  69.737  1.00  0.00     0.863 OA 
HETATM   22  O   UNL     1     -12.417  11.248  69.464  1.00  0.00    -0.224 OA 
BRANCH  20  23
HETATM   23  C   UNL     1     -12.123  13.678  70.387  1.00  0.00    -0.351 A  
HETATM   24  C   UNL     1     -11.854  15.000  70.019  1.00  0.00    -0.360 A  
HETATM   25  C   UNL     1     -12.319  16.040  70.822  1.00  0.00    -0.199 A  
HETATM   26  C   UNL     1     -13.051  15.759  71.977  1.00  0.00    -0.504 A  
HETATM   27  C   UNL     1     -13.330  14.437  72.330  1.00  0.00    -0.546 A  
HETATM   28  C   UNL     1     -12.870  13.388  71.533  1.00  0.00    -0.427 A  
ENDBRANCH  20  23
ENDBRANCH  19  20
ENDBRANCH  18  19
ENDBRANCH  15  18
ENDBRANCH   7   8
ENDBRANCH   6   7
TORSDOF 6
ENDMDL
MODEL      287
REMARK 921   NORMALIZED FREE ENERGY PREDICTED BY IDOCK:   -3.21 KCAL/MOL
REMARK 922        TOTAL FREE ENERGY PREDICTED BY IDOCK:   -5.91 KCAL/MOL
REMARK 923 INTER-LIGAND FREE ENERGY PREDICTED BY IDOCK:   -4.17 KCAL/MOL
REMARK 924 INTRA-LIGAND FREE ENERGY PREDICTED BY IDOCK:   -1.74 KCAL/MOL
REMARK 927      BINDING AFFINITY PREDICTED BY RF-SCORE:    0.00 PKD
ROOT
HETATM    1  C   UNL     1     -12.715  10.732  69.900  1.00  0.00    -0.032 C  
HETATM    2  N   UNL     1     -11.578  10.218  69.141  1.00  0.00    -0.154 NA 
HETATM    3  C   UNL     1     -10.942  11.289  68.363  1.00  0.00    -0.219 C  
HETATM    4  C   UNL     1      -9.520  10.808  68.177  1.00  0.00    -0.161 C  
HETATM    5  C   UNL     1      -9.203  10.167  69.512  1.00  0.00    -0.223 C  
HETATM    6  C   UNL     1     -10.543   9.603  70.006  1.00  0.00    -0.260 C  
ENDROOT
BRANCH   6   7
HETATM    7  C   UNL     1     -10.620   8.057  69.914  1.00  0.00    -0.242 C  
BRANCH   7   8
HETATM    8  C   UNL     1     -11.023   7.387  71.202  1.00  0.00    -0.265 A  
HETATM    9  C   UNL     1     -11.997   7.808  72.086  1.00  0.00    -0.317 A  
HETATM   10  N   UNL     1     -12.127   6.862  73.072  1.00  0.00    -0.112 NA 
HETATM   11  C   UNL     1     -11.268   5.814  72.839  1.00  0.00    -0.276 A  
HETATM   12  H   UNL     1     -12.767   6.928  73.864  1.00  0.00     0.000 HD 
HETATM   13  C   UNL     1     -10.518   6.154  71.718  1.00  0.00    -0.259 A  
HETATM   14  C   UNL     1      -9.525   5.260  71.279  1.00  0.00    -0.197 A  
HETATM   15  C   UNL     1      -9.361   4.007  71.887  1.00  0.00    -0.192 A  
HETATM   16  C   UNL     1     -10.165   3.689  72.991  1.00  0.00    -0.232 A  
HETATM   17  C   UNL     1     -11.107   4.595  73.506  1.00  0.00    -0.412 A  
BRANCH  15  18
HETATM   18  C   UNL     1      -8.438   2.964  71.287  1.00  0.00    -0.094 C  
BRANCH  18  19
HETATM   19  C   UNL     1      -8.532   2.845  69.771  1.00  0.00    -0.057 C  
BRANCH  19  20
HETATM   20  S   UNL     1      -6.985   3.206  68.971  1.00  0.00    -0.045 S  
HETATM   21  O   UNL     1      -7.112   2.882  67.565  1.00  0.00    -0.052 OA 
HETATM   22  O   UNL     1      -5.911   2.666  69.775  1.00  0.00    -0.021 OA 
BRANCH  20  23
HETATM   23  C   UNL     1      -6.925   4.983  69.105  1.00  0.00    -0.055 A  
HETATM   24  C   UNL     1      -6.314   5.564  70.221  1.00  0.00    -0.030 A  
HETATM   25  C   UNL     1      -6.303   6.952  70.348  1.00  0.00    -0.039 A  
HETATM   26  C   UNL     1      -6.890   7.749  69.365  1.00  0.00    -0.044 A  
HETATM   27  C   UNL     1      -7.484   7.164  68.245  1.00  0.00    -0.102 A  
HETATM   28  C   UNL     1      -7.501   5.775  68.107  1.00  0.00    -0.078 A  
ENDBRANCH  20  23
ENDBRANCH  19  20
ENDBRANCH  18  19
ENDBRANCH  15  18
ENDBRANCH   7   8
ENDBRANCH   6   7
TORSDOF 6
ENDMDL
MODEL      288
REMARK 921   NORMALIZED FREE ENERGY PREDICTED BY IDOCK:   -3.18 KCAL/MOL
REMARK 922        TOTAL FREE ENERGY PREDICTED BY IDOCK:   -5.87 KCAL/MOL
REMARK 923 INTER-LIGAND FREE ENERGY PREDICTED BY IDOCK:   -4.97 KCAL/MOL
REMARK 924 INTRA-LIGAND FREE ENERGY PREDICTED BY IDOCK:   -0.90 KCAL/MOL
REMARK 927      BINDING AFFINITY PREDICTED BY RF-SCORE:    0.00 PKD
ROOT
HETATM    1  C   UNL     1     -11.999  11.808  69.377  1.00  0.00    -0.298 C  
HETATM    2  N   UNL     1     -11.666  11.170  68.106  1.00  0.00    -0.547 NA 
HETATM    3  C   UNL     1     -11.468  12.174  67.054  1.00  0.00    -0.350 C  
HETATM    4  C   UNL     1     -10.560  11.485  66.060  1.00  0.00    -0.310 C  
HETATM    5  C   UNL     1      -9.608  10.715  66.951  1.00  0.00    -0.200 C  
HETATM    6  C   UNL     1     -10.439  10.342  68.186  1.00  0.00    -0.190 C  
ENDROOT
BRANCH   6   7
HETATM    7  C   UNL     1     -10.813   8.837  68.232  1.00  0.00    -0.025 C  
BRANCH   7   8
HETATM    8  C   UNL     1     -10.550   8.182  69.563  1.00  0.00    -0.215 A  
HETATM    9  C   UNL     1     -10.756   8.732  70.813  1.00  0.00    -0.228 A  
HETATM   10  N   UNL     1     -10.497   7.772  71.759  1.00  0.00    -0.211 NA 
HETATM   11  C   UNL     1     -10.144   6.591  71.150  1.00  0.00    -0.183 A  
HETATM   12  H   UNL     1     -10.558   7.914  72.767  1.00  0.00     0.000 HD 
HETATM   13  C   UNL     1     -10.099   6.845  69.782  1.00  0.00    -0.196 A  
HETATM   14  C   UNL     1      -9.722   5.800  68.919  1.00  0.00    -0.174 A  
HETATM   15  C   UNL     1      -9.498   4.505  69.407  1.00  0.00    -0.244 A  
HETATM   16  C   UNL     1      -9.592   4.285  70.788  1.00  0.00    -0.256 A  
HETATM   17  C   UNL     1      -9.883   5.325  71.685  1.00  0.00    -0.223 A  
BRANCH  15  18
HETATM   18  C   UNL     1      -9.297   3.339  68.458  1.00  0.00    -0.237 C  
BRANCH  18  19
HETATM   19  C   UNL     1      -9.636   3.649  67.006  1.00  0.00    -0.152 C  
BRANCH  19  20
HETATM   20  S   UNL     1      -8.607   2.750  65.868  1.00  0.00    -0.122 S  
HETATM   21  O   UNL     1      -9.463   2.056  64.928  1.00  0.00    -0.118 OA 
HETATM   22  O   UNL     1      -7.588   2.049  66.618  1.00  0.00    -0.064 OA 
BRANCH  20  23
HETATM   23  C   UNL     1      -7.812   4.079  64.984  1.00  0.00    -0.089 A  
HETATM   24  C   UNL     1      -6.462   3.960  64.639  1.00  0.00    -0.042 A  
HETATM   25  C   UNL     1      -5.829   5.014  63.985  1.00  0.00    -0.017 A  
HETATM   26  C   UNL     1      -6.541   6.174  63.674  1.00  0.00    -0.033 A  
HETATM   27  C   UNL     1      -7.893   6.281  64.006  1.00  0.00    -0.116 A  
HETATM   28  C   UNL     1      -8.537   5.230  64.661  1.00  0.00    -0.125 A  
ENDBRANCH  20  23
ENDBRANCH  19  20
ENDBRANCH  18  19
ENDBRANCH  15  18
ENDBRANCH   7   8
ENDBRANCH   6   7
TORSDOF 6
ENDMDL
MODEL      289
REMARK 921   NORMALIZED FREE ENERGY PREDICTED BY IDOCK:   -3.15 KCAL/MOL
REMARK 922        TOTAL FREE ENERGY PREDICTED BY IDOCK:   -5.83 KCAL/MOL
REMARK 923 INTER-LIGAND FREE ENERGY PREDICTED BY IDOCK:   -4.14 KCAL/MOL
REMARK 924 INTRA-LIGAND FREE ENERGY PREDICTED BY IDOCK:   -1.69 KCAL/MOL
REMARK 927      BINDING AFFINITY PREDICTED BY RF-SCORE:    0.00 PKD
ROOT
HETATM    1  C   UNL     1      -8.812   7.281  74.566  1.00  0.00    -0.157 C  
HETATM    2  N   UNL     1      -8.211   8.231  73.635  1.00  0.00    -0.314 NA 
HETATM    3  C   UNL     1      -6.787   8.427  73.936  1.00  0.00    -0.110 C  
HETATM    4  C   UNL     1      -6.194   8.868  72.616  1.00  0.00     0.003 C  
HETATM    5  C   UNL     1      -6.933   8.011  71.611  1.00  0.00    -0.066 C  
HETATM    6  C   UNL     1      -8.325   7.798  72.221  1.00  0.00    -0.119 C  
ENDROOT
BRANCH   6   7
HETATM    7  C   UNL     1      -9.433   8.612  71.502  1.00  0.00    -0.320 C  
BRANCH   7   8
HETATM    8  C   UNL     1     -10.229   7.811  70.505  1.00  0.00    -0.201 A  
HETATM    9  C   UNL     1     -11.467   7.233  70.705  1.00  0.00    -0.299 A  
HETATM   10  N   UNL     1     -11.891   6.690  69.518  1.00  0.00    -0.632 NA 
HETATM   11  C   UNL     1     -10.960   6.921  68.533  1.00  0.00    -0.136 A  
HETATM   12  H   UNL     1     -12.770   6.189  69.386  1.00  0.00     0.000 HD 
HETATM   13  C   UNL     1      -9.882   7.554  69.143  1.00  0.00    -0.170 A  
HETATM   14  C   UNL     1      -8.760   7.874  68.358  1.00  0.00    -0.131 A  
HETATM   15  C   UNL     1      -8.763   7.659  66.972  1.00  0.00    -0.127 A  
HETATM   16  C   UNL     1      -9.887   7.053  66.392  1.00  0.00    -0.103 A  
HETATM   17  C   UNL     1     -10.987   6.645  67.162  1.00  0.00    -0.478 A  
BRANCH  15  18
HETATM   18  C   UNL     1      -7.644   8.191  66.098  1.00  0.00    -0.089 C  
BRANCH  18  19
HETATM   19  C   UNL     1      -7.327   7.319  64.890  1.00  0.00    -0.080 C  
BRANCH  19  20
HETATM   20  S   UNL     1      -6.102   6.082  65.257  1.00  0.00    -0.030 S  
HETATM   21  O   UNL     1      -5.410   6.470  66.469  1.00  0.00    -0.012 OA 
HETATM   22  O   UNL     1      -5.380   5.771  64.043  1.00  0.00    -0.016 OA 
BRANCH  20  23
HETATM   23  C   UNL     1      -7.126   4.678  65.655  1.00  0.00    -0.067 A  
HETATM   24  C   UNL     1      -7.986   4.160  64.680  1.00  0.00    -0.089 A  
HETATM   25  C   UNL     1      -8.818   3.090  65.002  1.00  0.00    -0.125 A  
HETATM   26  C   UNL     1      -8.784   2.538  66.284  1.00  0.00    -0.126 A  
HETATM   27  C   UNL     1      -7.913   3.049  67.248  1.00  0.00    -0.077 A  
HETATM   28  C   UNL     1      -7.075   4.121  66.936  1.00  0.00    -0.067 A  
ENDBRANCH  20  23
ENDBRANCH  19  20
ENDBRANCH  18  19
ENDBRANCH  15  18
ENDBRANCH   7   8
ENDBRANCH   6   7
TORSDOF 6
ENDMDL
MODEL      290
REMARK 921   NORMALIZED FREE ENERGY PREDICTED BY IDOCK:   -3.12 KCAL/MOL
REMARK 922        TOTAL FREE ENERGY PREDICTED BY IDOCK:   -5.79 KCAL/MOL
REMARK 923 INTER-LIGAND FREE ENERGY PREDICTED BY IDOCK:   -4.48 KCAL/MOL
REMARK 924 INTRA-LIGAND FREE ENERGY PREDICTED BY IDOCK:   -1.32 KCAL/MOL
REMARK 927      BINDING AFFINITY PREDICTED BY RF-SCORE:    0.00 PKD
ROOT
HETATM    1  C   UNL     1      -8.802   7.365  74.351  1.00  0.00    -0.178 C  
HETATM    2  N   UNL     1      -7.898   8.232  73.601  1.00  0.00    -0.280 NA 
HETATM    3  C   UNL     1      -6.517   8.084  74.077  1.00  0.00    -0.110 C  
HETATM    4  C   UNL     1      -5.677   8.490  72.886  1.00  0.00    -0.071 C  
HETATM    5  C   UNL     1      -6.439   7.901  71.718  1.00  0.00    -0.041 C  
HETATM    6  C   UNL     1      -7.913   7.952  72.145  1.00  0.00    -0.119 C  
ENDROOT
BRANCH   6   7
HETATM    7  C   UNL     1      -8.722   9.046  71.400  1.00  0.00    -0.198 C  
BRANCH   7   8
HETATM    8  C   UNL     1      -8.718   8.895  69.901  1.00  0.00    -0.140 A  
HETATM    9  C   UNL     1      -9.398   7.947  69.162  1.00  0.00    -0.154 A  
HETATM   10  N   UNL     1      -9.217   8.223  67.829  1.00  0.00    -0.134 NA 
HETATM   11  C   UNL     1      -8.445   9.351  67.680  1.00  0.00    -0.119 A  
HETATM   12  H   UNL     1      -9.600   7.671  67.061  1.00  0.00     0.000 HD 
HETATM   13  C   UNL     1      -8.061   9.744  68.958  1.00  0.00    -0.101 A  
HETATM   14  C   UNL     1      -7.224  10.866  69.091  1.00  0.00    -0.118 A  
HETATM   15  C   UNL     1      -6.866  11.637  67.976  1.00  0.00    -0.072 A  
HETATM   16  C   UNL     1      -7.306  11.226  66.710  1.00  0.00    -0.146 A  
HETATM   17  C   UNL     1      -8.073  10.062  66.535  1.00  0.00    -0.119 A  
BRANCH  15  18
HETATM   18  C   UNL     1      -6.139  12.957  68.142  1.00  0.00    -0.094 C  
BRANCH  18  19
HETATM   19  C   UNL     1      -6.800  13.915  69.125  1.00  0.00    -0.108 C  
BRANCH  19  20
HETATM   20  S   UNL     1      -7.568  15.295  68.306  1.00  0.00    -0.117 S  
HETATM   21  O   UNL     1      -7.005  15.407  66.976  1.00  0.00    -0.230 OA 
HETATM   22  O   UNL     1      -7.586  16.421  69.215  1.00  0.00    -0.234 OA 
BRANCH  20  23
HETATM   23  C   UNL     1      -9.243  14.713  68.128  1.00  0.00    -0.192 A  
HETATM   24  C   UNL     1      -9.573  13.430  68.579  1.00  0.00    -0.141 A  
HETATM   25  C   UNL     1     -10.872  12.957  68.403  1.00  0.00    -0.276 A  
HETATM   26  C   UNL     1     -11.832  13.762  67.788  1.00  0.00    -0.404 A  
HETATM   27  C   UNL     1     -11.502  15.048  67.354  1.00  0.00    -0.326 A  
HETATM   28  C   UNL     1     -10.204  15.531  67.526  1.00  0.00    -0.254 A  
ENDBRANCH  20  23
ENDBRANCH  19  20
ENDBRANCH  18  19
ENDBRANCH  15  18
ENDBRANCH   7   8
ENDBRANCH   6   7
TORSDOF 6
ENDMDL
MODEL      291
REMARK 921   NORMALIZED FREE ENERGY PREDICTED BY IDOCK:   -3.12 KCAL/MOL
REMARK 922        TOTAL FREE ENERGY PREDICTED BY IDOCK:   -5.79 KCAL/MOL
REMARK 923 INTER-LIGAND FREE ENERGY PREDICTED BY IDOCK:   -4.72 KCAL/MOL
REMARK 924 INTRA-LIGAND FREE ENERGY PREDICTED BY IDOCK:   -1.06 KCAL/MOL
REMARK 927      BINDING AFFINITY PREDICTED BY RF-SCORE:    0.00 PKD
ROOT
HETATM    1  C   UNL     1      -5.551   2.520  68.098  1.00  0.00    -0.018 C  
HETATM    2  N   UNL     1      -6.031   3.745  67.466  1.00  0.00    -0.023 NA 
HETATM    3  C   UNL     1      -5.322   3.996  66.206  1.00  0.00    -0.013 C  
HETATM    4  C   UNL     1      -6.288   4.841  65.406  1.00  0.00    -0.035 C  
HETATM    5  C   UNL     1      -7.630   4.222  65.735  1.00  0.00    -0.086 C  
HETATM    6  C   UNL     1      -7.485   3.708  67.175  1.00  0.00    -0.071 C  
ENDROOT
BRANCH   6   7
HETATM    7  C   UNL     1      -8.258   4.570  68.206  1.00  0.00    -0.090 C  
BRANCH   7   8
HETATM    8  C   UNL     1      -9.259   5.512  67.589  1.00  0.00    -0.112 A  
HETATM    9  C   UNL     1     -10.470   5.176  67.018  1.00  0.00    -0.196 A  
HETATM   10  N   UNL     1     -11.125   6.332  66.674  1.00  0.00    -0.748 NA 
HETATM   11  C   UNL     1     -10.371   7.426  67.030  1.00  0.00    -0.314 A  
HETATM   12  H   UNL     1     -12.038   6.375  66.221  1.00  0.00     0.000 HD 
HETATM   13  C   UNL     1      -9.171   6.937  67.535  1.00  0.00    -0.124 A  
HETATM   14  C   UNL     1      -8.190   7.858  67.944  1.00  0.00    -0.129 A  
HETATM   15  C   UNL     1      -8.449   9.236  67.944  1.00  0.00    -0.117 A  
HETATM   16  C   UNL     1      -9.687   9.684  67.462  1.00  0.00    -0.195 A  
HETATM   17  C   UNL     1     -10.655   8.794  66.968  1.00  0.00    -0.283 A  
BRANCH  15  18
HETATM   18  C   UNL     1      -7.476  10.213  68.576  1.00  0.00    -0.086 C  
BRANCH  18  19
HETATM   19  C   UNL     1      -8.134  11.440  69.194  1.00  0.00     0.082 C  
BRANCH  19  20
HETATM   20  S   UNL     1      -7.766  12.927  68.290  1.00  0.00    -0.142 S  
HETATM   21  O   UNL     1      -6.886  12.587  67.190  1.00  0.00    -0.140 OA 
HETATM   22  O   UNL     1      -7.426  13.970  69.232  1.00  0.00    -0.063 OA 
BRANCH  20  23
HETATM   23  C   UNL     1      -9.360  13.321  67.594  1.00  0.00    -0.212 A  
HETATM   24  C   UNL     1     -10.502  13.205  68.393  1.00  0.00    -0.261 A  
HETATM   25  C   UNL     1     -11.753  13.473  67.840  1.00  0.00    -0.392 A  
HETATM   26  C   UNL     1     -11.858  13.859  66.502  1.00  0.00    -0.440 A  
HETATM   27  C   UNL     1     -10.713  13.988  65.714  1.00  0.00    -0.294 A  
HETATM   28  C   UNL     1      -9.455  13.723  66.258  1.00  0.00    -0.221 A  
ENDBRANCH  20  23
ENDBRANCH  19  20
ENDBRANCH  18  19
ENDBRANCH  15  18
ENDBRANCH   7   8
ENDBRANCH   6   7
TORSDOF 6
ENDMDL
MODEL      292
REMARK 921   NORMALIZED FREE ENERGY PREDICTED BY IDOCK:   -3.08 KCAL/MOL
REMARK 922        TOTAL FREE ENERGY PREDICTED BY IDOCK:   -5.74 KCAL/MOL
REMARK 923 INTER-LIGAND FREE ENERGY PREDICTED BY IDOCK:   -4.49 KCAL/MOL
REMARK 924 INTRA-LIGAND FREE ENERGY PREDICTED BY IDOCK:   -1.26 KCAL/MOL
REMARK 927      BINDING AFFINITY PREDICTED BY RF-SCORE:    0.00 PKD
ROOT
HETATM    1  C   UNL     1      -6.593  13.404  67.542  1.00  0.00    -0.131 C  
HETATM    2  N   UNL     1      -7.392  14.504  68.075  1.00  0.00    -0.122 NA 
HETATM    3  C   UNL     1      -6.538  15.496  68.740  1.00  0.00    -0.108 C  
HETATM    4  C   UNL     1      -7.338  16.777  68.659  1.00  0.00    -0.218 C  
HETATM    5  C   UNL     1      -7.957  16.701  67.279  1.00  0.00    -0.193 C  
HETATM    6  C   UNL     1      -8.175  15.202  67.027  1.00  0.00    -0.228 C  
ENDROOT
BRANCH   6   7
HETATM    7  C   UNL     1      -9.667  14.785  67.109  1.00  0.00    -0.234 C  
BRANCH   7   8
HETATM    8  C   UNL     1     -10.002  13.552  66.311  1.00  0.00    -0.302 A  
HETATM    9  C   UNL     1      -9.974  13.422  64.936  1.00  0.00    -0.136 A  
HETATM   10  N   UNL     1     -10.239  12.113  64.618  1.00  0.00    -0.281 NA 
HETATM   11  C   UNL     1     -10.419  11.374  65.764  1.00  0.00    -0.262 A  
HETATM   12  H   UNL     1     -10.294  11.742  63.669  1.00  0.00     0.000 HD 
HETATM   13  C   UNL     1     -10.349  12.267  66.829  1.00  0.00    -0.238 A  
HETATM   14  C   UNL     1     -10.539  11.772  68.132  1.00  0.00    -0.230 A  
HETATM   15  C   UNL     1     -10.692  10.398  68.368  1.00  0.00    -0.263 A  
HETATM   16  C   UNL     1     -10.719   9.530  67.267  1.00  0.00    -0.269 A  
HETATM   17  C   UNL     1     -10.617  10.003  65.949  1.00  0.00     0.001 A  
BRANCH  15  18
HETATM   18  C   UNL     1     -10.689   9.845  69.780  1.00  0.00    -0.298 C  
BRANCH  18  19
HETATM   19  C   UNL     1      -9.310   9.785  70.424  1.00  0.00    -0.126 C  
BRANCH  19  20
HETATM   20  S   UNL     1      -8.879   8.139  70.942  1.00  0.00    -0.148 S  
HETATM   21  O   UNL     1     -10.055   7.301  70.822  1.00  0.00    -0.190 OA 
HETATM   22  O   UNL     1      -8.135   8.221  72.179  1.00  0.00    -0.124 OA 
BRANCH  20  23
HETATM   23  C   UNL     1      -7.744   7.650  69.657  1.00  0.00    -0.099 A  
HETATM   24  C   UNL     1      -7.134   6.393  69.725  1.00  0.00    -0.072 A  
HETATM   25  C   UNL     1      -6.215   6.026  68.744  1.00  0.00    -0.036 A  
HETATM   26  C   UNL     1      -5.915   6.905  67.702  1.00  0.00    -0.028 A  
HETATM   27  C   UNL     1      -6.538   8.153  67.631  1.00  0.00    -0.058 A  
HETATM   28  C   UNL     1      -7.461   8.530  68.607  1.00  0.00    -0.093 A  
ENDBRANCH  20  23
ENDBRANCH  19  20
ENDBRANCH  18  19
ENDBRANCH  15  18
ENDBRANCH   7   8
ENDBRANCH   6   7
TORSDOF 6
ENDMDL
MODEL      293
REMARK 921   NORMALIZED FREE ENERGY PREDICTED BY IDOCK:   -3.02 KCAL/MOL
REMARK 922        TOTAL FREE ENERGY PREDICTED BY IDOCK:   -5.65 KCAL/MOL
REMARK 923 INTER-LIGAND FREE ENERGY PREDICTED BY IDOCK:   -4.69 KCAL/MOL
REMARK 924 INTRA-LIGAND FREE ENERGY PREDICTED BY IDOCK:   -0.96 KCAL/MOL
REMARK 927      BINDING AFFINITY PREDICTED BY RF-SCORE:    0.00 PKD
ROOT
HETATM    1  C   UNL     1      -8.195   8.336  67.004  1.00  0.00    -0.104 C  
HETATM    2  N   UNL     1      -8.905   9.607  67.114  1.00  0.00    -0.131 NA 
HETATM    3  C   UNL     1      -9.420  10.033  65.806  1.00  0.00    -0.214 C  
HETATM    4  C   UNL     1     -10.591  10.925  66.149  1.00  0.00    -0.270 C  
HETATM    5  C   UNL     1     -11.221  10.217  67.330  1.00  0.00    -0.145 C  
HETATM    6  C   UNL     1     -10.048   9.545  68.058  1.00  0.00    -0.188 C  
ENDROOT
BRANCH   6   7
HETATM    7  C   UNL     1      -9.678  10.248  69.390  1.00  0.00    -0.242 C  
BRANCH   7   8
HETATM    8  C   UNL     1     -10.417   9.713  70.588  1.00  0.00    -0.379 A  
HETATM    9  C   UNL     1     -11.702  10.033  70.981  1.00  0.00    -0.392 A  
HETATM   10  N   UNL     1     -12.037   9.249  72.057  1.00  0.00    -0.359 NA 
HETATM   11  C   UNL     1     -10.999   8.402  72.365  1.00  0.00    -0.355 A  
HETATM   12  H   UNL     1     -12.926   9.289  72.555  1.00  0.00     0.000 HD 
HETATM   13  C   UNL     1      -9.951   8.725  71.509  1.00  0.00    -0.370 A  
HETATM   14  C   UNL     1      -8.739   8.025  71.639  1.00  0.00    -0.169 A  
HETATM   15  C   UNL     1      -8.615   6.954  72.536  1.00  0.00    -0.130 A  
HETATM   16  C   UNL     1      -9.709   6.637  73.353  1.00  0.00    -0.203 A  
HETATM   17  C   UNL     1     -10.905   7.372  73.307  1.00  0.00    -0.417 A  
BRANCH  15  18
HETATM   18  C   UNL     1      -7.383   6.069  72.529  1.00  0.00    -0.090 C  
BRANCH  18  19
HETATM   19  C   UNL     1      -6.965   5.591  71.144  1.00  0.00    -0.065 C  
BRANCH  19  20
HETATM   20  S   UNL     1      -8.017   4.292  70.536  1.00  0.00    -0.059 S  
HETATM   21  O   UNL     1      -9.270   4.881  70.110  1.00  0.00    -0.117 OA 
HETATM   22  O   UNL     1      -7.981   3.190  71.472  1.00  0.00    -0.055 OA 
BRANCH  20  23
HETATM   23  C   UNL     1      -7.140   3.786  69.068  1.00  0.00    -0.046 A  
HETATM   24  C   UNL     1      -6.054   2.912  69.186  1.00  0.00    -0.025 A  
HETATM   25  C   UNL     1      -5.342   2.549  68.045  1.00  0.00    -0.013 A  
HETATM   26  C   UNL     1      -5.717   3.051  66.797  1.00  0.00    -0.022 A  
HETATM   27  C   UNL     1      -6.811   3.910  66.683  1.00  0.00    -0.058 A  
HETATM   28  C   UNL     1      -7.532   4.280  67.819  1.00  0.00    -0.069 A  
ENDBRANCH  20  23
ENDBRANCH  19  20
ENDBRANCH  18  19
ENDBRANCH  15  18
ENDBRANCH   7   8
ENDBRANCH   6   7
TORSDOF 6
ENDMDL
MODEL      294
REMARK 921   NORMALIZED FREE ENERGY PREDICTED BY IDOCK:   -3.00 KCAL/MOL
REMARK 922        TOTAL FREE ENERGY PREDICTED BY IDOCK:   -5.62 KCAL/MOL
REMARK 923 INTER-LIGAND FREE ENERGY PREDICTED BY IDOCK:   -4.66 KCAL/MOL
REMARK 924 INTRA-LIGAND FREE ENERGY PREDICTED BY IDOCK:   -0.96 KCAL/MOL
REMARK 927      BINDING AFFINITY PREDICTED BY RF-SCORE:    0.00 PKD
ROOT
HETATM    1  C   UNL     1     -12.296  10.782  70.234  1.00  0.00    -0.341 C  
HETATM    2  N   UNL     1     -11.913  11.576  69.070  1.00  0.00    -0.338 NA 
HETATM    3  C   UNL     1     -11.653  12.970  69.451  1.00  0.00    -0.299 C  
HETATM    4  C   UNL     1     -10.710  13.470  68.380  1.00  0.00    -0.273 C  
HETATM    5  C   UNL     1      -9.810  12.276  68.139  1.00  0.00    -0.212 C  
HETATM    6  C   UNL     1     -10.703  11.053  68.392  1.00  0.00    -0.203 C  
ENDROOT
BRANCH   6   7
HETATM    7  C   UNL     1     -11.099  10.311  67.089  1.00  0.00    -0.165 C  
BRANCH   7   8
HETATM    8  C   UNL     1     -10.093  10.449  65.977  1.00  0.00    -0.307 A  
HETATM    9  C   UNL     1      -9.987  11.492  65.078  1.00  0.00    -0.263 A  
HETATM   10  N   UNL     1      -8.875  11.286  64.301  1.00  0.00    -0.379 NA 
HETATM   11  C   UNL     1      -8.234  10.133  64.689  1.00  0.00    -0.165 A  
HETATM   12  H   UNL     1      -8.568  11.899  63.545  1.00  0.00     0.000 HD 
HETATM   13  C   UNL     1      -9.017   9.556  65.684  1.00  0.00    -0.224 A  
HETATM   14  C   UNL     1      -8.603   8.331  66.236  1.00  0.00    -0.152 A  
HETATM   15  C   UNL     1      -7.378   7.751  65.873  1.00  0.00    -0.073 A  
HETATM   16  C   UNL     1      -6.602   8.387  64.894  1.00  0.00    -0.067 A  
HETATM   17  C   UNL     1      -7.028   9.566  64.262  1.00  0.00    -0.108 A  
BRANCH  15  18
HETATM   18  C   UNL     1      -6.837   6.545  66.616  1.00  0.00    -0.065 C  
BRANCH  18  19
HETATM   19  C   UNL     1      -7.909   5.580  67.106  1.00  0.00    -0.101 C  
BRANCH  19  20
HETATM   20  S   UNL     1      -7.757   3.972  66.363  1.00  0.00    -0.090 S  
HETATM   21  O   UNL     1      -8.477   3.020  67.184  1.00  0.00    -0.087 OA 
HETATM   22  O   UNL     1      -6.374   3.758  65.998  1.00  0.00    -0.031 OA 
BRANCH  20  23
HETATM   23  C   UNL     1      -8.689   4.189  64.858  1.00  0.00    -0.125 A  
HETATM   24  C   UNL     1     -10.041   3.833  64.834  1.00  0.00    -0.147 A  
HETATM   25  C   UNL     1     -10.761   3.963  63.648  1.00  0.00    -0.179 A  
HETATM   26  C   UNL     1     -10.134   4.450  62.499  1.00  0.00    -0.041 A  
HETATM   27  C   UNL     1      -8.788   4.819  62.533  1.00  0.00    -0.123 A  
HETATM   28  C   UNL     1      -8.058   4.694  63.717  1.00  0.00    -0.101 A  
ENDBRANCH  20  23
ENDBRANCH  19  20
ENDBRANCH  18  19
ENDBRANCH  15  18
ENDBRANCH   7   8
ENDBRANCH   6   7
TORSDOF 6
ENDMDL
MODEL      295
REMARK 921   NORMALIZED FREE ENERGY PREDICTED BY IDOCK:   -2.95 KCAL/MOL
REMARK 922        TOTAL FREE ENERGY PREDICTED BY IDOCK:   -5.56 KCAL/MOL
REMARK 923 INTER-LIGAND FREE ENERGY PREDICTED BY IDOCK:   -5.34 KCAL/MOL
REMARK 924 INTRA-LIGAND FREE ENERGY PREDICTED BY IDOCK:   -0.22 KCAL/MOL
REMARK 927      BINDING AFFINITY PREDICTED BY RF-SCORE:    0.00 PKD
ROOT
HETATM    1  C   UNL     1      -5.761   8.538  70.669  1.00  0.00    -0.028 C  
HETATM    2  N   UNL     1      -6.165   7.775  69.491  1.00  0.00    -0.033 NA 
HETATM    3  C   UNL     1      -6.364   6.360  69.827  1.00  0.00    -0.038 C  
HETATM    4  C   UNL     1      -7.333   5.870  68.775  1.00  0.00    -0.084 C  
HETATM    5  C   UNL     1      -8.280   7.040  68.616  1.00  0.00    -0.122 C  
HETATM    6  C   UNL     1      -7.418   8.283  68.883  1.00  0.00    -0.092 C  
ENDROOT
BRANCH   6   7
HETATM    7  C   UNL     1      -7.100   9.086  67.595  1.00  0.00    -0.076 C  
BRANCH   7   8
HETATM    8  C   UNL     1      -8.302   9.350  66.726  1.00  0.00    -0.123 A  
HETATM    9  C   UNL     1      -9.119   8.408  66.132  1.00  0.00    -0.189 A  
HETATM   10  N   UNL     1     -10.159   9.059  65.518  1.00  0.00    -0.248 NA 
HETATM   11  C   UNL     1     -10.052  10.416  65.717  1.00  0.00    -0.262 A  
HETATM   12  H   UNL     1     -10.904   8.603  64.991  1.00  0.00     0.000 HD 
HETATM   13  C   UNL     1      -8.861  10.625  66.405  1.00  0.00    -0.164 A  
HETATM   14  C   UNL     1      -8.485  11.946  66.708  1.00  0.00    -0.167 A  
HETATM   15  C   UNL     1      -9.335  13.023  66.420  1.00  0.00    -0.189 A  
HETATM   16  C   UNL     1     -10.544  12.763  65.760  1.00  0.00    -0.295 A  
HETATM   17  C   UNL     1     -10.909  11.464  65.368  1.00  0.00    -0.292 A  
BRANCH  15  18
HETATM   18  C   UNL     1      -9.027  14.418  66.930  1.00  0.00    -0.263 C  
BRANCH  18  19
HETATM   19  C   UNL     1     -10.251  15.197  67.395  1.00  0.00    -0.235 C  
BRANCH  19  20
HETATM   20  S   UNL     1      -9.903  16.210  68.816  1.00  0.00    -0.241 S  
HETATM   21  O   UNL     1      -9.019  15.473  69.696  1.00  0.00    -0.266 OA 
HETATM   22  O   UNL     1     -11.144  16.777  69.295  1.00  0.00    -0.260 OA 
BRANCH  20  23
HETATM   23  C   UNL     1      -8.950  17.528  68.085  1.00  0.00    -0.266 A  
HETATM   24  C   UNL     1      -9.596  18.474  67.282  1.00  0.00    -0.305 A  
HETATM   25  C   UNL     1      -8.846  19.481  66.676  1.00  0.00    -0.388 A  
HETATM   26  C   UNL     1      -7.466  19.543  66.878  1.00  0.00    -0.251 A  
HETATM   27  C   UNL     1      -6.830  18.605  67.693  1.00  0.00    -0.210 A  
HETATM   28  C   UNL     1      -7.571  17.593  68.306  1.00  0.00    -0.257 A  
ENDBRANCH  20  23
ENDBRANCH  19  20
ENDBRANCH  18  19
ENDBRANCH  15  18
ENDBRANCH   7   8
ENDBRANCH   6   7
TORSDOF 6
ENDMDL
MODEL      296
REMARK 921   NORMALIZED FREE ENERGY PREDICTED BY IDOCK:   -2.94 KCAL/MOL
REMARK 922        TOTAL FREE ENERGY PREDICTED BY IDOCK:   -5.54 KCAL/MOL
REMARK 923 INTER-LIGAND FREE ENERGY PREDICTED BY IDOCK:   -4.80 KCAL/MOL
REMARK 924 INTRA-LIGAND FREE ENERGY PREDICTED BY IDOCK:   -0.74 KCAL/MOL
REMARK 927      BINDING AFFINITY PREDICTED BY RF-SCORE:    0.00 PKD
ROOT
HETATM    1  C   UNL     1      -9.671   6.940  74.109  1.00  0.00    -0.297 C  
HETATM    2  N   UNL     1      -8.943   6.928  72.843  1.00  0.00    -0.126 NA 
HETATM    3  C   UNL     1      -7.504   7.111  73.065  1.00  0.00    -0.072 C  
HETATM    4  C   UNL     1      -6.864   6.467  71.856  1.00  0.00    -0.068 C  
HETATM    5  C   UNL     1      -7.730   5.247  71.626  1.00  0.00    -0.108 C  
HETATM    6  C   UNL     1      -9.133   5.667  72.086  1.00  0.00    -0.140 C  
ENDROOT
BRANCH   6   7
HETATM    7  C   UNL     1     -10.114   5.895  70.906  1.00  0.00    -0.251 C  
BRANCH   7   8
HETATM    8  C   UNL     1      -9.560   5.495  69.564  1.00  0.00    -0.202 A  
HETATM    9  C   UNL     1      -9.536   4.226  69.021  1.00  0.00    -0.172 A  
HETATM   10  N   UNL     1      -9.048   4.309  67.741  1.00  0.00    -0.122 NA 
HETATM   11  C   UNL     1      -8.770   5.618  67.424  1.00  0.00    -0.107 A  
HETATM   12  H   UNL     1      -8.911   3.515  67.115  1.00  0.00     0.000 HD 
HETATM   13  C   UNL     1      -9.013   6.366  68.572  1.00  0.00    -0.125 A  
HETATM   14  C   UNL     1      -8.769   7.751  68.533  1.00  0.00    -0.128 A  
HETATM   15  C   UNL     1      -8.393   8.385  67.341  1.00  0.00    -0.124 A  
HETATM   16  C   UNL     1      -8.196   7.597  66.197  1.00  0.00    -0.124 A  
HETATM   17  C   UNL     1      -8.349   6.202  66.226  1.00  0.00    -0.124 A  
BRANCH  15  18
HETATM   18  C   UNL     1      -8.333   9.898  67.247  1.00  0.00    -0.121 C  
BRANCH  18  19
HETATM   19  C   UNL     1      -9.666  10.592  67.497  1.00  0.00    -0.166 C  
BRANCH  19  20
HETATM   20  S   UNL     1      -9.608  12.323  67.093  1.00  0.00    -0.205 S  
HETATM   21  O   UNL     1     -10.185  12.504  65.776  1.00  0.00    -0.260 OA 
HETATM   22  O   UNL     1      -8.293  12.831  67.415  1.00  0.00    -0.170 OA 
BRANCH  20  23
HETATM   23  C   UNL     1     -10.757  13.001  68.275  1.00  0.00    -0.245 A  
HETATM   24  C   UNL     1     -10.751  14.378  68.523  1.00  0.00    -0.258 A  
HETATM   25  C   UNL     1     -11.620  14.903  69.477  1.00  0.00    -0.333 A  
HETATM   26  C   UNL     1     -12.490  14.060  70.172  1.00  0.00    -0.380 A  
HETATM   27  C   UNL     1     -12.503  12.689  69.909  1.00  0.00     0.002 A  
HETATM   28  C   UNL     1     -11.637  12.152  68.954  1.00  0.00    -0.377 A  
ENDBRANCH  20  23
ENDBRANCH  19  20
ENDBRANCH  18  19
ENDBRANCH  15  18
ENDBRANCH   7   8
ENDBRANCH   6   7
TORSDOF 6
ENDMDL
MODEL      297
REMARK 921   NORMALIZED FREE ENERGY PREDICTED BY IDOCK:   -2.93 KCAL/MOL
REMARK 922        TOTAL FREE ENERGY PREDICTED BY IDOCK:   -5.53 KCAL/MOL
REMARK 923 INTER-LIGAND FREE ENERGY PREDICTED BY IDOCK:   -4.56 KCAL/MOL
REMARK 924 INTRA-LIGAND FREE ENERGY PREDICTED BY IDOCK:   -0.97 KCAL/MOL
REMARK 927      BINDING AFFINITY PREDICTED BY RF-SCORE:    0.00 PKD
ROOT
HETATM    1  C   UNL     1      -9.475   6.403  74.164  1.00  0.00    -0.199 C  
HETATM    2  N   UNL     1      -8.806   5.568  73.172  1.00  0.00    -0.120 NA 
HETATM    3  C   UNL     1      -7.365   5.490  73.440  1.00  0.00    -0.095 C  
HETATM    4  C   UNL     1      -6.946   4.184  72.803  1.00  0.00    -0.057 C  
HETATM    5  C   UNL     1      -8.109   3.267  73.115  1.00  0.00    -0.073 C  
HETATM    6  C   UNL     1      -9.340   4.185  73.133  1.00  0.00    -0.113 C  
ENDROOT
BRANCH   6   7
HETATM    7  C   UNL     1     -10.252   3.999  71.892  1.00  0.00    -0.160 C  
BRANCH   7   8
HETATM    8  C   UNL     1      -9.535   3.458  70.683  1.00  0.00    -0.243 A  
HETATM    9  C   UNL     1      -9.575   2.163  70.206  1.00  0.00    -0.019 A  
HETATM   10  N   UNL     1      -8.876   2.112  69.026  1.00  0.00    -0.083 NA 
HETATM   11  C   UNL     1      -8.394   3.360  68.707  1.00  0.00    -0.072 A  
HETATM   12  H   UNL     1      -8.734   1.270  68.467  1.00  0.00     0.000 HD 
HETATM   13  C   UNL     1      -8.731   4.200  69.764  1.00  0.00    -0.117 A  
HETATM   14  C   UNL     1      -8.319   5.543  69.709  1.00  0.00    -0.105 A  
HETATM   15  C   UNL     1      -7.677   6.057  68.574  1.00  0.00    -0.095 A  
HETATM   16  C   UNL     1      -7.391   5.184  67.515  1.00  0.00    -0.082 A  
HETATM   17  C   UNL     1      -7.713   3.818  67.575  1.00  0.00    -0.078 A  
BRANCH  15  18
HETATM   18  C   UNL     1      -7.421   7.545  68.429  1.00  0.00    -0.108 C  
BRANCH  18  19
HETATM   19  C   UNL     1      -8.519   8.427  69.008  1.00  0.00    -0.123 C  
BRANCH  19  20
HETATM   20  S   UNL     1      -9.763   8.832  67.802  1.00  0.00    -0.166 S  
HETATM   21  O   UNL     1     -10.611   7.673  67.615  1.00  0.00    -0.241 OA 
HETATM   22  O   UNL     1      -9.126   9.490  66.683  1.00  0.00    -0.142 OA 
BRANCH  20  23
HETATM   23  C   UNL     1     -10.719  10.056  68.679  1.00  0.00    -0.226 A  
HETATM   24  C   UNL     1     -11.056  11.251  68.034  1.00  0.00    -0.325 A  
HETATM   25  C   UNL     1     -11.767  12.225  68.731  1.00  0.00    -0.390 A  
HETATM   26  C   UNL     1     -12.143  12.003  70.057  1.00  0.00    -0.355 A  
HETATM   27  C   UNL     1     -11.818  10.802  70.690  1.00  0.00    -0.460 A  
HETATM   28  C   UNL     1     -11.107   9.819  70.001  1.00  0.00    -0.311 A  
ENDBRANCH  20  23
ENDBRANCH  19  20
ENDBRANCH  18  19
ENDBRANCH  15  18
ENDBRANCH   7   8
ENDBRANCH   6   7
TORSDOF 6
ENDMDL
MODEL      298
REMARK 921   NORMALIZED FREE ENERGY PREDICTED BY IDOCK:   -2.89 KCAL/MOL
REMARK 922        TOTAL FREE ENERGY PREDICTED BY IDOCK:   -5.48 KCAL/MOL
REMARK 923 INTER-LIGAND FREE ENERGY PREDICTED BY IDOCK:   -4.55 KCAL/MOL
REMARK 924 INTRA-LIGAND FREE ENERGY PREDICTED BY IDOCK:   -0.93 KCAL/MOL
REMARK 927      BINDING AFFINITY PREDICTED BY RF-SCORE:    0.00 PKD
ROOT
HETATM    1  C   UNL     1      -8.810   7.987  73.772  1.00  0.00    -0.247 C  
HETATM    2  N   UNL     1      -8.556   7.437  72.444  1.00  0.00    -0.114 NA 
HETATM    3  C   UNL     1      -7.243   7.861  71.944  1.00  0.00    -0.074 C  
HETATM    4  C   UNL     1      -6.863   6.782  70.955  1.00  0.00    -0.058 C  
HETATM    5  C   UNL     1      -7.358   5.519  71.628  1.00  0.00    -0.091 C  
HETATM    6  C   UNL     1      -8.598   5.954  72.421  1.00  0.00    -0.120 C  
ENDROOT
BRANCH   6   7
HETATM    7  C   UNL     1      -9.926   5.468  71.784  1.00  0.00    -0.228 C  
BRANCH   7   8
HETATM    8  C   UNL     1      -9.869   5.324  70.286  1.00  0.00    -0.284 A  
HETATM    9  C   UNL     1      -9.649   4.163  69.572  1.00  0.00    -0.204 A  
HETATM   10  N   UNL     1      -9.783   4.442  68.235  1.00  0.00    -0.135 NA 
HETATM   11  C   UNL     1     -10.109   5.766  68.058  1.00  0.00    -0.161 A  
HETATM   12  H   UNL     1      -9.659   3.765  67.481  1.00  0.00     0.000 HD 
HETATM   13  C   UNL     1     -10.095   6.352  69.320  1.00  0.00    -0.203 A  
HETATM   14  C   UNL     1     -10.362   7.729  69.422  1.00  0.00    -0.219 A  
HETATM   15  C   UNL     1     -10.738   8.478  68.297  1.00  0.00    -0.092 A  
HETATM   16  C   UNL     1     -10.776   7.838  67.050  1.00  0.00    -0.316 A  
HETATM   17  C   UNL     1     -10.432   6.485  66.902  1.00  0.00    -0.347 A  
BRANCH  15  18
HETATM   18  C   UNL     1     -11.225   9.907  68.439  1.00  0.00    -0.134 C  
BRANCH  18  19
HETATM   19  C   UNL     1     -10.545  10.895  67.499  1.00  0.00    -0.230 C  
BRANCH  19  20
HETATM   20  S   UNL     1      -8.881  11.267  68.005  1.00  0.00    -0.154 S  
HETATM   21  O   UNL     1      -7.981  10.878  66.938  1.00  0.00    -0.126 OA 
HETATM   22  O   UNL     1      -8.692  10.797  69.359  1.00  0.00    -0.095 OA 
BRANCH  20  23
HETATM   23  C   UNL     1      -8.915  13.049  68.049  1.00  0.00    -0.199 A  
HETATM   24  C   UNL     1      -9.798  13.695  68.921  1.00  0.00     0.019 A  
HETATM   25  C   UNL     1      -9.856  15.087  68.927  1.00  0.00    -0.233 A  
HETATM   26  C   UNL     1      -9.035  15.826  68.073  1.00  0.00    -0.178 A  
HETATM   27  C   UNL     1      -8.145  15.176  67.216  1.00  0.00    -0.228 A  
HETATM   28  C   UNL     1      -8.078  13.782  67.202  1.00  0.00    -0.094 A  
ENDBRANCH  20  23
ENDBRANCH  19  20
ENDBRANCH  18  19
ENDBRANCH  15  18
ENDBRANCH   7   8
ENDBRANCH   6   7
TORSDOF 6
ENDMDL
MODEL      299
REMARK 921   NORMALIZED FREE ENERGY PREDICTED BY IDOCK:   -2.76 KCAL/MOL
REMARK 922        TOTAL FREE ENERGY PREDICTED BY IDOCK:   -5.30 KCAL/MOL
REMARK 923 INTER-LIGAND FREE ENERGY PREDICTED BY IDOCK:   -5.59 KCAL/MOL
REMARK 924 INTRA-LIGAND FREE ENERGY PREDICTED BY IDOCK:    0.29 KCAL/MOL
REMARK 927      BINDING AFFINITY PREDICTED BY RF-SCORE:    0.00 PKD
ROOT
HETATM    1  C   UNL     1     -12.353  12.850  65.419  1.00  0.00    -0.485 C  
HETATM    2  N   UNL     1     -11.595  11.683  64.977  1.00  0.00    -0.137 NA 
HETATM    3  C   UNL     1     -11.506  11.642  63.512  1.00  0.00    -0.329 C  
HETATM    4  C   UNL     1     -10.252  10.839  63.247  1.00  0.00    -0.243 C  
HETATM    5  C   UNL     1      -9.309  11.318  64.330  1.00  0.00    -0.133 C  
HETATM    6  C   UNL     1     -10.216  11.656  65.521  1.00  0.00    -0.260 C  
ENDROOT
BRANCH   6   7
HETATM    7  C   UNL     1     -10.116  10.620  66.671  1.00  0.00    -0.270 C  
BRANCH   7   8
HETATM    8  C   UNL     1     -10.869  11.014  67.915  1.00  0.00    -0.285 A  
HETATM    9  C   UNL     1     -11.715  12.094  68.066  1.00  0.00    -0.344 A  
HETATM   10  N   UNL     1     -12.281  12.033  69.315  1.00  0.00    -0.159 NA 
HETATM   11  C   UNL     1     -11.836  10.916  69.982  1.00  0.00    -0.347 A  
HETATM   12  H   UNL     1     -12.936  12.717  69.694  1.00  0.00     0.000 HD 
HETATM   13  C   UNL     1     -10.897  10.305  69.156  1.00  0.00    -0.270 A  
HETATM   14  C   UNL     1     -10.251   9.146  69.619  1.00  0.00    -0.211 A  
HETATM   15  C   UNL     1     -10.613   8.554  70.838  1.00  0.00    -0.252 A  
HETATM   16  C   UNL     1     -11.591   9.182  71.622  1.00  0.00    -0.449 A  
HETATM   17  C   UNL     1     -12.194  10.387  71.226  1.00  0.00    -0.491 A  
BRANCH  15  18
HETATM   18  C   UNL     1     -10.067   7.197  71.239  1.00  0.00    -0.196 C  
BRANCH  18  19
HETATM   19  C   UNL     1      -8.953   7.255  72.277  1.00  0.00    -0.131 C  
BRANCH  19  20
HETATM   20  S   UNL     1      -7.366   6.851  71.584  1.00  0.00    -0.085 S  
HETATM   21  O   UNL     1      -6.430   6.653  72.672  1.00  0.00    -0.057 OA 
HETATM   22  O   UNL     1      -7.083   7.771  70.505  1.00  0.00    -0.046 OA 
BRANCH  20  23
HETATM   23  C   UNL     1      -7.691   5.253  70.864  1.00  0.00    -0.093 A  
HETATM   24  C   UNL     1      -7.892   4.152  71.704  1.00  0.00    -0.071 A  
HETATM   25  C   UNL     1      -8.105   2.895  71.142  1.00  0.00    -0.064 A  
HETATM   26  C   UNL     1      -8.123   2.742  69.755  1.00  0.00    -0.056 A  
HETATM   27  C   UNL     1      -7.937   3.846  68.921  1.00  0.00    -0.061 A  
HETATM   28  C   UNL     1      -7.724   5.111  69.473  1.00  0.00    -0.068 A  
ENDBRANCH  20  23
ENDBRANCH  19  20
ENDBRANCH  18  19
ENDBRANCH  15  18
ENDBRANCH   7   8
ENDBRANCH   6   7
TORSDOF 6
ENDMDL
MODEL      300
REMARK 921   NORMALIZED FREE ENERGY PREDICTED BY IDOCK:   -2.70 KCAL/MOL
REMARK 922        TOTAL FREE ENERGY PREDICTED BY IDOCK:   -5.22 KCAL/MOL
REMARK 923 INTER-LIGAND FREE ENERGY PREDICTED BY IDOCK:   -5.01 KCAL/MOL
REMARK 924 INTRA-LIGAND FREE ENERGY PREDICTED BY IDOCK:   -0.20 KCAL/MOL
REMARK 927      BINDING AFFINITY PREDICTED BY RF-SCORE:    0.00 PKD
ROOT
HETATM    1  C   UNL     1     -12.183   6.016  71.746  1.00  0.00     0.117 C  
HETATM    2  N   UNL     1     -10.891   6.502  71.270  1.00  0.00    -0.240 NA 
HETATM    3  C   UNL     1     -10.005   5.383  70.926  1.00  0.00    -0.202 C  
HETATM    4  C   UNL     1      -9.049   5.973  69.914  1.00  0.00    -0.147 C  
HETATM    5  C   UNL     1      -9.943   6.878  69.092  1.00  0.00    -0.166 C  
HETATM    6  C   UNL     1     -11.012   7.374  70.076  1.00  0.00    -0.248 C  
ENDROOT
BRANCH   6   7
HETATM    7  C   UNL     1     -10.822   8.860  70.478  1.00  0.00    -0.276 C  
BRANCH   7   8
HETATM    8  C   UNL     1      -9.383   9.264  70.660  1.00  0.00    -0.329 A  
HETATM    9  C   UNL     1      -8.468   8.707  71.533  1.00  0.00    -0.181 A  
HETATM   10  N   UNL     1      -7.245   9.287  71.310  1.00  0.00    -0.298 NA 
HETATM   11  C   UNL     1      -7.334  10.204  70.288  1.00  0.00    -0.095 A  
HETATM   12  H   UNL     1      -6.392   9.070  71.827  1.00  0.00     0.000 HD 
HETATM   13  C   UNL     1      -8.674  10.259  69.919  1.00  0.00     0.010 A  
HETATM   14  C   UNL     1      -9.053  11.158  68.905  1.00  0.00    -0.098 A  
HETATM   15  C   UNL     1      -8.094  11.906  68.208  1.00  0.00    -0.154 A  
HETATM   16  C   UNL     1      -6.750  11.791  68.588  1.00  0.00    -0.073 A  
HETATM   17  C   UNL     1      -6.350  10.967  69.652  1.00  0.00    -0.100 A  
BRANCH  15  18
HETATM   18  C   UNL     1      -8.476  12.715  66.983  1.00  0.00    -0.150 C  
BRANCH  18  19
HETATM   19  C   UNL     1      -8.050  14.176  67.041  1.00  0.00    -0.017 C  
BRANCH  19  20
HETATM   20  S   UNL     1      -9.429  15.287  66.874  1.00  0.00    -0.247 S  
HETATM   21  O   UNL     1     -10.236  15.197  68.074  1.00  0.00    -0.228 OA 
HETATM   22  O   UNL     1     -10.009  15.110  65.561  1.00  0.00    -0.335 OA 
BRANCH  20  23
HETATM   23  C   UNL     1      -8.613  16.871  66.899  1.00  0.00    -0.214 A  
HETATM   24  C   UNL     1      -9.337  18.008  67.271  1.00  0.00    -0.256 A  
HETATM   25  C   UNL     1      -8.712  19.253  67.251  1.00  0.00    -0.323 A  
HETATM   26  C   UNL     1      -7.373  19.358  66.869  1.00  0.00    -0.232 A  
HETATM   27  C   UNL     1      -6.650  18.218  66.513  1.00  0.00    -0.236 A  
HETATM   28  C   UNL     1      -7.267  16.965  66.531  1.00  0.00    -0.297 A  
ENDBRANCH  20  23
ENDBRANCH  19  20
ENDBRANCH  18  19
ENDBRANCH  15  18
ENDBRANCH   7   8
ENDBRANCH   6   7
TORSDOF 6
ENDMDL
MODEL      301
REMARK 921   NORMALIZED FREE ENERGY PREDICTED BY IDOCK:   -2.64 KCAL/MOL
REMARK 922        TOTAL FREE ENERGY PREDICTED BY IDOCK:   -5.14 KCAL/MOL
REMARK 923 INTER-LIGAND FREE ENERGY PREDICTED BY IDOCK:   -4.58 KCAL/MOL
REMARK 924 INTRA-LIGAND FREE ENERGY PREDICTED BY IDOCK:   -0.56 KCAL/MOL
REMARK 927      BINDING AFFINITY PREDICTED BY RF-SCORE:    0.00 PKD
ROOT
HETATM    1  C   UNL     1     -10.493  16.954  65.912  1.00  0.00    -0.285 C  
HETATM    2  N   UNL     1     -10.360  15.865  66.876  1.00  0.00    -0.286 NA 
HETATM    3  C   UNL     1     -10.920  16.248  68.177  1.00  0.00    -0.343 C  
HETATM    4  C   UNL     1     -11.289  14.928  68.817  1.00  0.00    -0.304 C  
HETATM    5  C   UNL     1     -11.829  14.128  67.651  1.00  0.00    -0.427 C  
HETATM    6  C   UNL     1     -11.038  14.623  66.433  1.00  0.00    -0.334 C  
ENDROOT
BRANCH   6   7
HETATM    7  C   UNL     1      -9.991  13.594  65.931  1.00  0.00    -0.304 C  
BRANCH   7   8
HETATM    8  C   UNL     1      -8.888  13.313  66.918  1.00  0.00    -0.186 A  
HETATM    9  C   UNL     1      -7.933  14.203  67.370  1.00  0.00    -0.184 A  
HETATM   10  N   UNL     1      -7.186  13.583  68.339  1.00  0.00    -0.100 NA 
HETATM   11  C   UNL     1      -7.648  12.305  68.549  1.00  0.00    -0.118 A  
HETATM   12  H   UNL     1      -6.401  14.009  68.834  1.00  0.00     0.000 HD 
HETATM   13  C   UNL     1      -8.662  12.090  67.621  1.00  0.00    -0.166 A  
HETATM   14  C   UNL     1      -9.290  10.832  67.593  1.00  0.00    -0.156 A  
HETATM   15  C   UNL     1      -8.979   9.848  68.543  1.00  0.00    -0.122 A  
HETATM   16  C   UNL     1      -7.977  10.121  69.485  1.00  0.00    -0.170 A  
HETATM   17  C   UNL     1      -7.273  11.336  69.485  1.00  0.00    -0.020 A  
BRANCH  15  18
HETATM   18  C   UNL     1      -9.797   8.575  68.643  1.00  0.00    -0.180 C  
BRANCH  18  19
HETATM   19  C   UNL     1      -8.972   7.322  68.907  1.00  0.00    -0.133 C  
BRANCH  19  20
HETATM   20  S   UNL     1      -8.514   6.489  67.403  1.00  0.00    -0.119 S  
HETATM   21  O   UNL     1      -7.413   7.210  66.799  1.00  0.00    -0.085 OA 
HETATM   22  O   UNL     1      -9.716   6.185  66.658  1.00  0.00    -0.154 OA 
BRANCH  20  23
HETATM   23  C   UNL     1      -7.863   4.954  68.034  1.00  0.00    -0.083 A  
HETATM   24  C   UNL     1      -6.525   4.627  67.791  1.00  0.00    -0.045 A  
HETATM   25  C   UNL     1      -6.025   3.409  68.247  1.00  0.00    -0.027 A  
HETATM   26  C   UNL     1      -6.855   2.529  68.944  1.00  0.00    -0.036 A  
HETATM   27  C   UNL     1      -8.186   2.867  69.198  1.00  0.00    -0.077 A  
HETATM   28  C   UNL     1      -8.696   4.086  68.746  1.00  0.00    -0.131 A  
ENDBRANCH  20  23
ENDBRANCH  19  20
ENDBRANCH  18  19
ENDBRANCH  15  18
ENDBRANCH   7   8
ENDBRANCH   6   7
TORSDOF 6
ENDMDL
MODEL      302
REMARK 921   NORMALIZED FREE ENERGY PREDICTED BY IDOCK:   -2.59 KCAL/MOL
REMARK 922        TOTAL FREE ENERGY PREDICTED BY IDOCK:   -5.07 KCAL/MOL
REMARK 923 INTER-LIGAND FREE ENERGY PREDICTED BY IDOCK:   -4.27 KCAL/MOL
REMARK 924 INTRA-LIGAND FREE ENERGY PREDICTED BY IDOCK:   -0.80 KCAL/MOL
REMARK 927      BINDING AFFINITY PREDICTED BY RF-SCORE:    0.00 PKD
ROOT
HETATM    1  C   UNL     1     -11.199  15.275  68.060  1.00  0.00    -0.326 C  
HETATM    2  N   UNL     1     -10.977  14.076  68.864  1.00  0.00    -0.254 NA 
HETATM    3  C   UNL     1     -12.221  13.641  69.510  1.00  0.00    -0.264 C  
HETATM    4  C   UNL     1     -12.013  12.161  69.739  1.00  0.00    -0.372 C  
HETATM    5  C   UNL     1     -11.288  11.723  68.485  1.00  0.00    -0.328 C  
HETATM    6  C   UNL     1     -10.452  12.941  68.068  1.00  0.00    -0.230 C  
ENDROOT
BRANCH   6   7
HETATM    7  C   UNL     1      -8.936  12.756  68.337  1.00  0.00    -0.120 C  
BRANCH   7   8
HETATM    8  C   UNL     1      -8.325  11.583  67.615  1.00  0.00    -0.135 A  
HETATM    9  C   UNL     1      -7.858  11.561  66.316  1.00  0.00     0.046 A  
HETATM   10  N   UNL     1      -7.282  10.337  66.081  1.00  0.00    -0.114 NA 
HETATM   11  C   UNL     1      -7.345   9.560  67.214  1.00  0.00    -0.087 A  
HETATM   12  H   UNL     1      -6.868  10.046  65.195  1.00  0.00     0.000 HD 
HETATM   13  C   UNL     1      -8.057  10.290  68.160  1.00  0.00    -0.110 A  
HETATM   14  C   UNL     1      -8.301   9.703  69.415  1.00  0.00    -0.145 A  
HETATM   15  C   UNL     1      -7.753   8.456  69.748  1.00  0.00    -0.093 A  
HETATM   16  C   UNL     1      -7.009   7.772  68.777  1.00  0.00    -0.067 A  
HETATM   17  C   UNL     1      -6.819   8.293  67.487  1.00  0.00    -0.070 A  
BRANCH  15  18
HETATM   18  C   UNL     1      -7.841   7.919  71.164  1.00  0.00    -0.086 C  
BRANCH  18  19
HETATM   19  C   UNL     1      -9.077   8.376  71.929  1.00  0.00    -0.221 C  
BRANCH  19  20
HETATM   20  S   UNL     1     -10.017   7.007  72.566  1.00  0.00    -0.174 S  
HETATM   21  O   UNL     1     -10.820   6.464  71.489  1.00  0.00    -0.237 OA 
HETATM   22  O   UNL     1     -10.610   7.398  73.826  1.00  0.00    -0.349 OA 
BRANCH  20  23
HETATM   23  C   UNL     1      -8.728   5.825  72.916  1.00  0.00    -0.124 A  
HETATM   24  C   UNL     1      -8.333   4.928  71.918  1.00  0.00    -0.119 A  
HETATM   25  C   UNL     1      -7.355   3.977  72.203  1.00  0.00    -0.060 A  
HETATM   26  C   UNL     1      -6.775   3.929  73.471  1.00  0.00    -0.047 A  
HETATM   27  C   UNL     1      -7.161   4.837  74.459  1.00  0.00    -0.077 A  
HETATM   28  C   UNL     1      -8.139   5.794  74.184  1.00  0.00    -0.104 A  
ENDBRANCH  20  23
ENDBRANCH  19  20
ENDBRANCH  18  19
ENDBRANCH  15  18
ENDBRANCH   7   8
ENDBRANCH   6   7
TORSDOF 6
ENDMDL
MODEL      303
REMARK 921   NORMALIZED FREE ENERGY PREDICTED BY IDOCK:   -2.54 KCAL/MOL
REMARK 922        TOTAL FREE ENERGY PREDICTED BY IDOCK:   -5.00 KCAL/MOL
REMARK 923 INTER-LIGAND FREE ENERGY PREDICTED BY IDOCK:   -3.80 KCAL/MOL
REMARK 924 INTRA-LIGAND FREE ENERGY PREDICTED BY IDOCK:   -1.20 KCAL/MOL
REMARK 927      BINDING AFFINITY PREDICTED BY RF-SCORE:    0.00 PKD
ROOT
HETATM    1  C   UNL     1      -8.336  19.988  65.794  1.00  0.00    -0.030 C  
HETATM    2  N   UNL     1      -7.536  18.801  66.081  1.00  0.00    -0.284 NA 
HETATM    3  C   UNL     1      -6.423  18.678  65.131  1.00  0.00    -0.166 C  
HETATM    4  C   UNL     1      -5.392  17.866  65.882  1.00  0.00    -0.237 C  
HETATM    5  C   UNL     1      -5.496  18.408  67.292  1.00  0.00    -0.144 C  
HETATM    6  C   UNL     1      -6.970  18.809  67.451  1.00  0.00    -0.205 C  
ENDROOT
BRANCH   6   7
HETATM    7  C   UNL     1      -7.766  17.840  68.364  1.00  0.00    -0.278 C  
BRANCH   7   8
HETATM    8  C   UNL     1      -6.932  16.733  68.955  1.00  0.00    -0.207 A  
HETATM    9  C   UNL     1      -6.072  16.827  70.031  1.00  0.00    -0.139 A  
HETATM   10  N   UNL     1      -5.593  15.573  70.316  1.00  0.00    -0.144 NA 
HETATM   11  C   UNL     1      -6.142  14.650  69.457  1.00  0.00    -0.113 A  
HETATM   12  H   UNL     1      -4.927  15.357  71.058  1.00  0.00     0.000 HD 
HETATM   13  C   UNL     1      -6.923  15.362  68.552  1.00  0.00    -0.113 A  
HETATM   14  C   UNL     1      -7.577  14.654  67.529  1.00  0.00    -0.215 A  
HETATM   15  C   UNL     1      -7.533  13.253  67.477  1.00  0.00    -0.163 A  
HETATM   16  C   UNL     1      -6.764  12.573  68.432  1.00  0.00    -0.081 A  
HETATM   17  C   UNL     1      -6.031  13.257  69.416  1.00  0.00    -0.100 A  
BRANCH  15  18
HETATM   18  C   UNL     1      -8.402  12.481  66.504  1.00  0.00     0.142 C  
BRANCH  18  19
HETATM   19  C   UNL     1      -9.798  12.165  67.027  1.00  0.00    -0.203 C  
BRANCH  19  20
HETATM   20  S   UNL     1     -11.024  12.202  65.739  1.00  0.00    -0.308 S  
HETATM   21  O   UNL     1     -12.263  11.675  66.273  1.00  0.00    -0.150 OA 
HETATM   22  O   UNL     1     -10.439  11.673  64.527  1.00  0.00    -0.270 OA 
BRANCH  20  23
HETATM   23  C   UNL     1     -11.246  13.957  65.514  1.00  0.00    -0.307 A  
HETATM   24  C   UNL     1     -11.665  14.439  64.269  1.00  0.00    -0.328 A  
HETATM   25  C   UNL     1     -11.798  15.813  64.079  1.00  0.00     0.106 A  
HETATM   26  C   UNL     1     -11.522  16.695  65.125  1.00  0.00     0.374 A  
HETATM   27  C   UNL     1     -11.119  16.207  66.370  1.00  0.00     0.085 A  
HETATM   28  C   UNL     1     -10.983  14.833  66.572  1.00  0.00    -0.325 A  
ENDBRANCH  20  23
ENDBRANCH  19  20
ENDBRANCH  18  19
ENDBRANCH  15  18
ENDBRANCH   7   8
ENDBRANCH   6   7
TORSDOF 6
ENDMDL
MODEL      304
REMARK 921   NORMALIZED FREE ENERGY PREDICTED BY IDOCK:   -2.33 KCAL/MOL
REMARK 922        TOTAL FREE ENERGY PREDICTED BY IDOCK:   -4.72 KCAL/MOL
REMARK 923 INTER-LIGAND FREE ENERGY PREDICTED BY IDOCK:   -4.15 KCAL/MOL
REMARK 924 INTRA-LIGAND FREE ENERGY PREDICTED BY IDOCK:   -0.57 KCAL/MOL
REMARK 927      BINDING AFFINITY PREDICTED BY RF-SCORE:    0.00 PKD
ROOT
HETATM    1  C   UNL     1     -11.478  16.579  72.487  1.00  0.00     0.165 C  
HETATM    2  N   UNL     1     -12.241  15.339  72.373  1.00  0.00    -0.353 NA 
HETATM    3  C   UNL     1     -13.587  15.499  72.937  1.00  0.00    -0.544 C  
HETATM    4  C   UNL     1     -14.410  14.455  72.217  1.00  0.00    -0.522 C  
HETATM    5  C   UNL     1     -13.864  14.509  70.806  1.00  0.00     0.116 C  
HETATM    6  C   UNL     1     -12.384  14.881  70.970  1.00  0.00    -0.324 C  
ENDROOT
BRANCH   6   7
HETATM    7  C   UNL     1     -11.427  13.691  70.697  1.00  0.00     0.248 C  
BRANCH   7   8
HETATM    8  C   UNL     1     -11.235  13.384  69.235  1.00  0.00    -0.275 A  
HETATM    9  C   UNL     1     -11.815  14.039  68.166  1.00  0.00    -0.367 A  
HETATM   10  N   UNL     1     -11.295  13.524  67.006  1.00  0.00    -0.312 NA 
HETATM   11  C   UNL     1     -10.364  12.554  67.294  1.00  0.00    -0.220 A  
HETATM   12  H   UNL     1     -11.561  13.818  66.065  1.00  0.00     0.000 HD 
HETATM   13  C   UNL     1     -10.364  12.399  68.676  1.00  0.00    -0.198 A  
HETATM   14  C   UNL     1      -9.517  11.429  69.242  1.00  0.00     0.258 A  
HETATM   15  C   UNL     1      -8.615  10.706  68.448  1.00  0.00    -0.134 A  
HETATM   16  C   UNL     1      -8.622  10.921  67.062  1.00  0.00    -0.136 A  
HETATM   17  C   UNL     1      -9.515  11.821  66.458  1.00  0.00    -0.225 A  
BRANCH  15  18
HETATM   18  C   UNL     1      -7.562   9.815  69.078  1.00  0.00    -0.082 C  
BRANCH  18  19
HETATM   19  C   UNL     1      -7.634   8.357  68.641  1.00  0.00    -0.102 C  
BRANCH  19  20
HETATM   20  S   UNL     1      -8.978   7.488  69.417  1.00  0.00    -0.138 S  
HETATM   21  O   UNL     1     -10.191   7.769  68.677  1.00  0.00    -0.192 OA 
HETATM   22  O   UNL     1      -8.901   7.697  70.846  1.00  0.00    -0.143 OA 
BRANCH  20  23
HETATM   23  C   UNL     1      -8.536   5.792  69.092  1.00  0.00    -0.110 A  
HETATM   24  C   UNL     1      -7.265   5.334  69.456  1.00  0.00    -0.061 A  
HETATM   25  C   UNL     1      -6.904   4.020  69.165  1.00  0.00    -0.046 A  
HETATM   26  C   UNL     1      -7.806   3.172  68.522  1.00  0.00    -0.060 A  
HETATM   27  C   UNL     1      -9.079   3.629  68.174  1.00  0.00    -0.197 A  
HETATM   28  C   UNL     1      -9.452   4.943  68.462  1.00  0.00    -0.194 A  
ENDBRANCH  20  23
ENDBRANCH  19  20
ENDBRANCH  18  19
ENDBRANCH  15  18
ENDBRANCH   7   8
ENDBRANCH   6   7
TORSDOF 6
ENDMDL
MODEL      305
REMARK 921   NORMALIZED FREE ENERGY PREDICTED BY IDOCK:   -2.24 KCAL/MOL
REMARK 922        TOTAL FREE ENERGY PREDICTED BY IDOCK:   -4.60 KCAL/MOL
REMARK 923 INTER-LIGAND FREE ENERGY PREDICTED BY IDOCK:   -4.32 KCAL/MOL
REMARK 924 INTRA-LIGAND FREE ENERGY PREDICTED BY IDOCK:   -0.29 KCAL/MOL
REMARK 927      BINDING AFFINITY PREDICTED BY RF-SCORE:    0.00 PKD
ROOT
HETATM    1  C   UNL     1     -12.440  10.710  70.159  1.00  0.00    -0.270 C  
HETATM    2  N   UNL     1     -11.975  11.472  69.003  1.00  0.00    -0.338 NA 
HETATM    3  C   UNL     1     -11.667  12.857  69.379  1.00  0.00    -0.321 C  
HETATM    4  C   UNL     1     -10.659  13.300  68.342  1.00  0.00    -0.263 C  
HETATM    5  C   UNL     1      -9.806  12.064  68.150  1.00  0.00    -0.201 C  
HETATM    6  C   UNL     1     -10.763  10.885  68.381  1.00  0.00    -0.203 C  
ENDROOT
BRANCH   6   7
HETATM    7  C   UNL     1     -11.141  10.146  67.070  1.00  0.00    -0.061 C  
BRANCH   7   8
HETATM    8  C   UNL     1     -10.197  10.410  65.927  1.00  0.00    -0.302 A  
HETATM    9  C   UNL     1     -10.082  11.576  65.197  1.00  0.00    -0.268 A  
HETATM   10  N   UNL     1      -9.034  11.441  64.322  1.00  0.00    -0.391 NA 
HETATM   11  C   UNL     1      -8.441  10.210  64.479  1.00  0.00    -0.177 A  
HETATM   12  H   UNL     1      -8.737  12.151  63.652  1.00  0.00     0.000 HD 
HETATM   13  C   UNL     1      -9.196   9.522  65.423  1.00  0.00    -0.306 A  
HETATM   14  C   UNL     1      -8.825   8.205  65.747  1.00  0.00    -0.173 A  
HETATM   15  C   UNL     1      -7.662   7.630  65.215  1.00  0.00    -0.110 A  
HETATM   16  C   UNL     1      -6.909   8.374  64.295  1.00  0.00    -0.066 A  
HETATM   17  C   UNL     1      -7.300   9.660  63.887  1.00  0.00    -0.120 A  
BRANCH  15  18
HETATM   18  C   UNL     1      -7.150   6.295  65.720  1.00  0.00    -0.069 C  
BRANCH  18  19
HETATM   19  C   UNL     1      -8.148   5.529  66.580  1.00  0.00    -0.105 C  
BRANCH  19  20
HETATM   20  S   UNL     1      -8.086   3.776  66.281  1.00  0.00    -0.101 S  
HETATM   21  O   UNL     1      -6.999   3.508  65.361  1.00  0.00    -0.055 OA 
HETATM   22  O   UNL     1      -9.428   3.303  66.021  1.00  0.00    -0.153 OA 
BRANCH  20  23
HETATM   23  C   UNL     1      -7.593   3.162  67.880  1.00  0.00    -0.057 A  
HETATM   24  C   UNL     1      -6.542   2.243  67.966  1.00  0.00    -0.029 A  
HETATM   25  C   UNL     1      -6.183   1.730  69.211  1.00  0.00    -0.025 A  
HETATM   26  C   UNL     1      -6.865   2.138  70.359  1.00  0.00    -0.033 A  
HETATM   27  C   UNL     1      -7.903   3.068  70.269  1.00  0.00    -0.047 A  
HETATM   28  C   UNL     1      -8.270   3.588  69.027  1.00  0.00    -0.075 A  
ENDBRANCH  20  23
ENDBRANCH  19  20
ENDBRANCH  18  19
ENDBRANCH  15  18
ENDBRANCH   7   8
ENDBRANCH   6   7
TORSDOF 6
ENDMDL
MODEL      306
REMARK 921   NORMALIZED FREE ENERGY PREDICTED BY IDOCK:   -2.20 KCAL/MOL
REMARK 922        TOTAL FREE ENERGY PREDICTED BY IDOCK:   -4.54 KCAL/MOL
REMARK 923 INTER-LIGAND FREE ENERGY PREDICTED BY IDOCK:   -3.67 KCAL/MOL
REMARK 924 INTRA-LIGAND FREE ENERGY PREDICTED BY IDOCK:   -0.87 KCAL/MOL
REMARK 927      BINDING AFFINITY PREDICTED BY RF-SCORE:    0.00 PKD
ROOT
HETATM    1  C   UNL     1     -11.091  16.665  72.831  1.00  0.00     1.794 C  
HETATM    2  N   UNL     1     -12.000  15.544  72.613  1.00  0.00    -0.419 NA 
HETATM    3  C   UNL     1     -13.309  15.805  73.224  1.00  0.00    -0.549 C  
HETATM    4  C   UNL     1     -14.262  14.946  72.423  1.00  0.00    -0.494 C  
HETATM    5  C   UNL     1     -13.733  15.081  71.012  1.00  0.00    -0.417 C  
HETATM    6  C   UNL     1     -12.216  15.254  71.174  1.00  0.00    -0.350 C  
ENDROOT
BRANCH   6   7
HETATM    7  C   UNL     1     -11.415  13.993  70.758  1.00  0.00     0.084 C  
BRANCH   7   8
HETATM    8  C   UNL     1     -11.333  13.785  69.268  1.00  0.00    -0.325 A  
HETATM    9  C   UNL     1     -11.571  14.725  68.285  1.00  0.00    -0.323 A  
HETATM   10  N   UNL     1     -11.282  14.164  67.067  1.00  0.00    -0.307 NA 
HETATM   11  C   UNL     1     -10.836  12.874  67.234  1.00  0.00    -0.255 A  
HETATM   12  H   UNL     1     -11.384  14.635  66.168  1.00  0.00     0.000 HD 
HETATM   13  C   UNL     1     -10.929  12.592  68.593  1.00  0.00    -0.292 A  
HETATM   14  C   UNL     1     -10.566  11.309  69.038  1.00  0.00    -0.241 A  
HETATM   15  C   UNL     1     -10.021  10.365  68.155  1.00  0.00    -0.170 A  
HETATM   16  C   UNL     1      -9.909  10.704  66.799  1.00  0.00    -0.240 A  
HETATM   17  C   UNL     1     -10.343  11.947  66.310  1.00  0.00    -0.259 A  
BRANCH  15  18
HETATM   18  C   UNL     1      -9.438   9.062  68.668  1.00  0.00    -0.149 C  
BRANCH  18  19
HETATM   19  C   UNL     1      -9.204   8.014  67.587  1.00  0.00    -0.133 C  
BRANCH  19  20
HETATM   20  S   UNL     1      -7.587   7.282  67.700  1.00  0.00    -0.112 S  
HETATM   21  O   UNL     1      -7.715   5.857  67.476  1.00  0.00    -0.095 OA 
HETATM   22  O   UNL     1      -6.922   7.805  68.873  1.00  0.00    -0.062 OA 
BRANCH  20  23
HETATM   23  C   UNL     1      -6.785   7.976  66.266  1.00  0.00    -0.054 A  
HETATM   24  C   UNL     1      -6.467   7.142  65.189  1.00  0.00    -0.040 A  
HETATM   25  C   UNL     1      -5.803   7.674  64.086  1.00  0.00    -0.048 A  
HETATM   26  C   UNL     1      -5.466   9.029  64.058  1.00  0.00    -0.061 A  
HETATM   27  C   UNL     1      -5.800   9.860  65.129  1.00  0.00    -0.088 A  
HETATM   28  C   UNL     1      -6.466   9.338  66.239  1.00  0.00    -0.066 A  
ENDBRANCH  20  23
ENDBRANCH  19  20
ENDBRANCH  18  19
ENDBRANCH  15  18
ENDBRANCH   7   8
ENDBRANCH   6   7
TORSDOF 6
ENDMDL
MODEL      307
REMARK 921   NORMALIZED FREE ENERGY PREDICTED BY IDOCK:   -2.11 KCAL/MOL
REMARK 922        TOTAL FREE ENERGY PREDICTED BY IDOCK:   -4.43 KCAL/MOL
REMARK 923 INTER-LIGAND FREE ENERGY PREDICTED BY IDOCK:   -4.58 KCAL/MOL
REMARK 924 INTRA-LIGAND FREE ENERGY PREDICTED BY IDOCK:    0.15 KCAL/MOL
REMARK 927      BINDING AFFINITY PREDICTED BY RF-SCORE:    0.00 PKD
ROOT
HETATM    1  C   UNL     1     -10.977  14.743  67.936  1.00  0.00    -0.278 C  
HETATM    2  N   UNL     1     -10.747  13.505  68.675  1.00  0.00    -0.250 NA 
HETATM    3  C   UNL     1     -11.855  13.235  69.599  1.00  0.00    -0.327 C  
HETATM    4  C   UNL     1     -11.816  11.734  69.785  1.00  0.00    -0.420 C  
HETATM    5  C   UNL     1     -11.476  11.231  68.399  1.00  0.00    -0.377 C  
HETATM    6  C   UNL     1     -10.593  12.328  67.786  1.00  0.00    -0.219 C  
ENDROOT
BRANCH   6   7
HETATM    7  C   UNL     1      -9.100  11.921  67.692  1.00  0.00    -0.179 C  
BRANCH   7   8
HETATM    8  C   UNL     1      -8.848  10.710  66.833  1.00  0.00    -0.143 A  
HETATM    9  C   UNL     1      -8.289  10.691  65.570  1.00  0.00    -0.158 A  
HETATM   10  N   UNL     1      -8.136   9.383  65.183  1.00  0.00    -0.121 NA 
HETATM   11  C   UNL     1      -8.566   8.540  66.180  1.00  0.00    -0.138 A  
HETATM   12  H   UNL     1      -7.757   9.080  64.285  1.00  0.00     0.000 HD 
HETATM   13  C   UNL     1      -9.083   9.347  67.189  1.00  0.00    -0.148 A  
HETATM   14  C   UNL     1      -9.633   8.728  68.326  1.00  0.00    -0.160 A  
HETATM   15  C   UNL     1      -9.569   7.337  68.494  1.00  0.00    -0.140 A  
HETATM   16  C   UNL     1      -9.005   6.565  67.469  1.00  0.00    -0.110 A  
HETATM   17  C   UNL     1      -8.525   7.146  66.284  1.00  0.00    -0.138 A  
BRANCH  15  18
HETATM   18  C   UNL     1      -9.971   6.691  69.806  1.00  0.00    -0.189 C  
BRANCH  18  19
HETATM   19  C   UNL     1      -9.134   7.130  71.000  1.00  0.00    -0.151 C  
BRANCH  19  20
HETATM   20  S   UNL     1      -7.961   5.887  71.493  1.00  0.00    -0.115 S  
HETATM   21  O   UNL     1      -8.494   5.189  72.645  1.00  0.00    -0.116 OA 
HETATM   22  O   UNL     1      -6.641   6.477  71.513  1.00  0.00    -0.052 OA 
BRANCH  20  23
HETATM   23  C   UNL     1      -8.034   4.765  70.110  1.00  0.00    -0.068 A  
HETATM   24  C   UNL     1      -9.077   3.836  70.036  1.00  0.00    -0.193 A  
HETATM   25  C   UNL     1      -9.112   2.931  68.978  1.00  0.00    -0.206 A  
HETATM   26  C   UNL     1      -8.117   2.959  67.999  1.00  0.00    -0.076 A  
HETATM   27  C   UNL     1      -7.087   3.898  68.069  1.00  0.00    -0.055 A  
HETATM   28  C   UNL     1      -7.042   4.811  69.125  1.00  0.00    -0.052 A  
ENDBRANCH  20  23
ENDBRANCH  19  20
ENDBRANCH  18  19
ENDBRANCH  15  18
ENDBRANCH   7   8
ENDBRANCH   6   7
TORSDOF 6
ENDMDL
MODEL      308
REMARK 921   NORMALIZED FREE ENERGY PREDICTED BY IDOCK:   -2.09 KCAL/MOL
REMARK 922        TOTAL FREE ENERGY PREDICTED BY IDOCK:   -4.40 KCAL/MOL
REMARK 923 INTER-LIGAND FREE ENERGY PREDICTED BY IDOCK:   -3.28 KCAL/MOL
REMARK 924 INTRA-LIGAND FREE ENERGY PREDICTED BY IDOCK:   -1.12 KCAL/MOL
REMARK 927      BINDING AFFINITY PREDICTED BY RF-SCORE:    0.00 PKD
ROOT
HETATM    1  C   UNL     1     -13.072  10.583  70.233  1.00  0.00     0.034 C  
HETATM    2  N   UNL     1     -12.137  10.988  69.187  1.00  0.00    -0.434 NA 
HETATM    3  C   UNL     1     -11.732  12.388  69.360  1.00  0.00    -0.322 C  
HETATM    4  C   UNL     1     -10.385  12.465  68.677  1.00  0.00    -0.198 C  
HETATM    5  C   UNL     1      -9.742  11.146  69.051  1.00  0.00    -0.113 C  
HETATM    6  C   UNL     1     -10.910  10.156  69.162  1.00  0.00    -0.226 C  
ENDROOT
BRANCH   6   7
HETATM    7  C   UNL     1     -10.969   9.153  67.980  1.00  0.00    -0.032 C  
BRANCH   7   8
HETATM    8  C   UNL     1      -9.846   9.310  66.989  1.00  0.00    -0.257 A  
HETATM    9  C   UNL     1      -9.854  10.077  65.840  1.00  0.00    -0.264 A  
HETATM   10  N   UNL     1      -8.602  10.034  65.279  1.00  0.00    -0.146 NA 
HETATM   11  C   UNL     1      -7.763   9.267  66.053  1.00  0.00    -0.096 A  
HETATM   12  H   UNL     1      -8.333  10.503  64.413  1.00  0.00     0.000 HD 
HETATM   13  C   UNL     1      -8.537   8.746  67.085  1.00  0.00    -0.119 A  
HETATM   14  C   UNL     1      -7.924   7.884  68.012  1.00  0.00    -0.128 A  
HETATM   15  C   UNL     1      -6.545   7.636  67.966  1.00  0.00    -0.055 A  
HETATM   16  C   UNL     1      -5.795   8.213  66.931  1.00  0.00    -0.048 A  
HETATM   17  C   UNL     1      -6.393   9.009  65.940  1.00  0.00    -0.056 A  
BRANCH  15  18
HETATM   18  C   UNL     1      -5.851   6.879  69.082  1.00  0.00    -0.019 C  
BRANCH  18  19
HETATM   19  C   UNL     1      -6.798   6.301  70.127  1.00  0.00    -0.054 C  
BRANCH  19  20
HETATM   20  S   UNL     1      -6.548   4.557  70.370  1.00  0.00    -0.036 S  
HETATM   21  O   UNL     1      -7.198   4.171  71.606  1.00  0.00    -0.050 OA 
HETATM   22  O   UNL     1      -5.156   4.249  70.122  1.00  0.00     0.000 OA 
BRANCH  20  23
HETATM   23  C   UNL     1      -7.503   3.873  69.029  1.00  0.00    -0.054 A  
HETATM   24  C   UNL     1      -6.839   3.318  67.930  1.00  0.00    -0.049 A  
HETATM   25  C   UNL     1      -7.583   2.821  66.862  1.00  0.00    -0.071 A  
HETATM   26  C   UNL     1      -8.978   2.873  66.897  1.00  0.00    -0.176 A  
HETATM   27  C   UNL     1      -9.636   3.413  68.004  1.00  0.00    -0.160 A  
HETATM   28  C   UNL     1      -8.900   3.913  69.079  1.00  0.00    -0.151 A  
ENDBRANCH  20  23
ENDBRANCH  19  20
ENDBRANCH  18  19
ENDBRANCH  15  18
ENDBRANCH   7   8
ENDBRANCH   6   7
TORSDOF 6
ENDMDL
MODEL      309
REMARK 921   NORMALIZED FREE ENERGY PREDICTED BY IDOCK:   -1.96 KCAL/MOL
REMARK 922        TOTAL FREE ENERGY PREDICTED BY IDOCK:   -4.22 KCAL/MOL
REMARK 923 INTER-LIGAND FREE ENERGY PREDICTED BY IDOCK:   -3.35 KCAL/MOL
REMARK 924 INTRA-LIGAND FREE ENERGY PREDICTED BY IDOCK:   -0.87 KCAL/MOL
REMARK 927      BINDING AFFINITY PREDICTED BY RF-SCORE:    0.00 PKD
ROOT
HETATM    1  C   UNL     1     -11.497  16.213  65.130  1.00  0.00     0.107 C  
HETATM    2  N   UNL     1     -10.899  15.301  66.101  1.00  0.00    -0.320 NA 
HETATM    3  C   UNL     1     -11.414  15.563  67.450  1.00  0.00    -0.140 C  
HETATM    4  C   UNL     1     -11.241  14.243  68.168  1.00  0.00    -0.295 C  
HETATM    5  C   UNL     1     -11.596  13.229  67.102  1.00  0.00    -0.402 C  
HETATM    6  C   UNL     1     -11.155  13.875  65.781  1.00  0.00    -0.294 C  
ENDROOT
BRANCH   6   7
HETATM    7  C   UNL     1      -9.880  13.225  65.184  1.00  0.00    -0.078 C  
BRANCH   7   8
HETATM    8  C   UNL     1      -8.791  12.975  66.195  1.00  0.00     0.294 A  
HETATM    9  C   UNL     1      -7.845  13.879  66.636  1.00  0.00     0.783 A  
HETATM   10  N   UNL     1      -7.110  13.289  67.633  1.00  0.00    -0.148 NA 
HETATM   11  C   UNL     1      -7.573  12.015  67.871  1.00  0.00    -0.124 A  
HETATM   12  H   UNL     1      -6.334  13.730  68.127  1.00  0.00     0.000 HD 
HETATM   13  C   UNL     1      -8.572  11.772  66.934  1.00  0.00    -0.177 A  
HETATM   14  C   UNL     1      -9.196  10.512  66.932  1.00  0.00    -0.173 A  
HETATM   15  C   UNL     1      -8.897   9.556  67.913  1.00  0.00    -0.119 A  
HETATM   16  C   UNL     1      -7.910   9.857  68.862  1.00  0.00    -0.091 A  
HETATM   17  C   UNL     1      -7.209  11.074  68.839  1.00  0.00    -0.103 A  
BRANCH  15  18
HETATM   18  C   UNL     1      -9.713   8.283  68.036  1.00  0.00    -0.187 C  
BRANCH  18  19
HETATM   19  C   UNL     1      -9.193   7.307  69.084  1.00  0.00    -0.139 C  
BRANCH  19  20
HETATM   20  S   UNL     1     -10.463   6.805  70.224  1.00  0.00    -0.216 S  
HETATM   21  O   UNL     1     -10.885   5.464  69.876  1.00  0.00    -0.298 OA 
HETATM   22  O   UNL     1     -11.416   7.884  70.360  1.00  0.00    -0.246 OA 
BRANCH  20  23
HETATM   23  C   UNL     1      -9.545   6.695  71.749  1.00  0.00    -0.158 A  
HETATM   24  C   UNL     1      -9.509   5.479  72.439  1.00  0.00    -0.160 A  
HETATM   25  C   UNL     1      -8.826   5.402  73.652  1.00  0.00    -0.125 A  
HETATM   26  C   UNL     1      -8.182   6.529  74.165  1.00  0.00    -0.132 A  
HETATM   27  C   UNL     1      -8.208   7.736  73.464  1.00  0.00    -0.232 A  
HETATM   28  C   UNL     1      -8.888   7.824  72.248  1.00  0.00    -0.180 A  
ENDBRANCH  20  23
ENDBRANCH  19  20
ENDBRANCH  18  19
ENDBRANCH  15  18
ENDBRANCH   7   8
ENDBRANCH   6   7
TORSDOF 6
ENDMDL
MODEL      310
REMARK 921   NORMALIZED FREE ENERGY PREDICTED BY IDOCK:   -1.85 KCAL/MOL
REMARK 922        TOTAL FREE ENERGY PREDICTED BY IDOCK:   -4.08 KCAL/MOL
REMARK 923 INTER-LIGAND FREE ENERGY PREDICTED BY IDOCK:   -2.91 KCAL/MOL
REMARK 924 INTRA-LIGAND FREE ENERGY PREDICTED BY IDOCK:   -1.16 KCAL/MOL
REMARK 927      BINDING AFFINITY PREDICTED BY RF-SCORE:    0.00 PKD
ROOT
HETATM    1  C   UNL     1      -8.713   4.326  74.106  1.00  0.00    -0.096 C  
HETATM    2  N   UNL     1      -9.906   4.127  73.288  1.00  0.00    -0.125 NA 
HETATM    3  C   UNL     1     -11.124   4.346  74.078  1.00  0.00    -0.102 C  
HETATM    4  C   UNL     1     -12.162   4.731  73.048  1.00  0.00     0.254 C  
HETATM    5  C   UNL     1     -11.378   5.602  72.089  1.00  0.00    -0.277 C  
HETATM    6  C   UNL     1      -9.953   5.032  72.114  1.00  0.00    -0.183 C  
ENDROOT
BRANCH   6   7
HETATM    7  C   UNL     1      -9.589   4.253  70.824  1.00  0.00    -0.256 C  
BRANCH   7   8
HETATM    8  C   UNL     1      -8.130   4.324  70.457  1.00  0.00    -0.066 A  
HETATM    9  C   UNL     1      -7.089   3.642  71.056  1.00  0.00    -0.033 A  
HETATM   10  N   UNL     1      -5.938   3.902  70.355  1.00  0.00    -0.017 NA 
HETATM   11  C   UNL     1      -6.208   4.729  69.290  1.00  0.00    -0.030 A  
HETATM   12  H   UNL     1      -5.016   3.534  70.590  1.00  0.00     0.000 HD 
HETATM   13  C   UNL     1      -7.556   5.064  69.378  1.00  0.00    -0.061 A  
HETATM   14  C   UNL     1      -8.091   5.942  68.419  1.00  0.00    -0.109 A  
HETATM   15  C   UNL     1      -7.319   6.389  67.337  1.00  0.00    -0.087 A  
HETATM   16  C   UNL     1      -5.975   5.995  67.267  1.00  0.00    -0.018 A  
HETATM   17  C   UNL     1      -5.388   5.188  68.255  1.00  0.00    -0.011 A  
BRANCH  15  18
HETATM   18  C   UNL     1      -7.950   7.164  66.196  1.00  0.00    -0.112 C  
BRANCH  18  19
HETATM   19  C   UNL     1      -7.977   8.673  66.405  1.00  0.00    -0.099 C  
BRANCH  19  20
HETATM   20  S   UNL     1      -9.397   9.196  67.339  1.00  0.00    -0.136 S  
HETATM   21  O   UNL     1     -10.485   8.278  67.069  1.00  0.00    -0.310 OA 
HETATM   22  O   UNL     1      -9.559  10.624  67.176  1.00  0.00    -0.161 OA 
BRANCH  20  23
HETATM   23  C   UNL     1      -8.851   8.898  69.010  1.00  0.00    -0.136 A  
HETATM   24  C   UNL     1      -9.738   8.325  69.927  1.00  0.00    -0.180 A  
HETATM   25  C   UNL     1      -9.326   8.130  71.244  1.00  0.00    -0.195 A  
HETATM   26  C   UNL     1      -8.038   8.499  71.637  1.00  0.00    -0.195 A  
HETATM   27  C   UNL     1      -7.152   9.056  70.713  1.00  0.00    -0.092 A  
HETATM   28  C   UNL     1      -7.554   9.255  69.391  1.00  0.00    -0.080 A  
ENDBRANCH  20  23
ENDBRANCH  19  20
ENDBRANCH  18  19
ENDBRANCH  15  18
ENDBRANCH   7   8
ENDBRANCH   6   7
TORSDOF 6
ENDMDL
MODEL      311
REMARK 921   NORMALIZED FREE ENERGY PREDICTED BY IDOCK:   -1.81 KCAL/MOL
REMARK 922        TOTAL FREE ENERGY PREDICTED BY IDOCK:   -4.02 KCAL/MOL
REMARK 923 INTER-LIGAND FREE ENERGY PREDICTED BY IDOCK:   -4.77 KCAL/MOL
REMARK 924 INTRA-LIGAND FREE ENERGY PREDICTED BY IDOCK:    0.75 KCAL/MOL
REMARK 927      BINDING AFFINITY PREDICTED BY RF-SCORE:    0.00 PKD
ROOT
HETATM    1  C   UNL     1     -11.001  14.779  67.917  1.00  0.00    -0.278 C  
HETATM    2  N   UNL     1     -10.758  13.451  68.473  1.00  0.00    -0.257 NA 
HETATM    3  C   UNL     1     -11.921  12.982  69.235  1.00  0.00    -0.278 C  
HETATM    4  C   UNL     1     -11.803  11.475  69.189  1.00  0.00    -0.406 C  
HETATM    5  C   UNL     1     -11.315  11.218  67.779  1.00  0.00    -0.354 C  
HETATM    6  C   UNL     1     -10.455  12.441  67.430  1.00  0.00    -0.215 C  
ENDROOT
BRANCH   6   7
HETATM    7  C   UNL     1      -8.936  12.128  67.414  1.00  0.00    -0.180 C  
BRANCH   7   8
HETATM    8  C   UNL     1      -8.554  10.997  66.495  1.00  0.00    -0.165 A  
HETATM    9  C   UNL     1      -7.631  11.038  65.469  1.00  0.00     0.177 A  
HETATM   10  N   UNL     1      -7.500   9.774  64.951  1.00  0.00    -0.122 NA 
HETATM   11  C   UNL     1      -8.308   8.896  65.636  1.00  0.00    -0.139 A  
HETATM   12  H   UNL     1      -6.892   9.522  64.172  1.00  0.00     0.000 HD 
HETATM   13  C   UNL     1      -9.029   9.651  66.555  1.00  0.00    -0.171 A  
HETATM   14  C   UNL     1      -9.969   8.995  67.370  1.00  0.00    -0.266 A  
HETATM   15  C   UNL     1     -10.106   7.600  67.337  1.00  0.00    -0.287 A  
HETATM   16  C   UNL     1      -9.331   6.874  66.421  1.00  0.00    -0.183 A  
HETATM   17  C   UNL     1      -8.445   7.508  65.535  1.00  0.00    -0.129 A  
BRANCH  15  18
HETATM   18  C   UNL     1     -10.964   6.876  68.356  1.00  0.00    -0.198 C  
BRANCH  18  19
HETATM   19  C   UNL     1     -10.230   6.501  69.637  1.00  0.00    -0.187 C  
BRANCH  19  20
HETATM   20  S   UNL     1      -9.227   5.046  69.436  1.00  0.00    -0.117 S  
HETATM   21  O   UNL     1      -7.875   5.463  69.128  1.00  0.00    -0.087 OA 
HETATM   22  O   UNL     1      -9.936   4.107  68.596  1.00  0.00    -0.069 OA 
BRANCH  20  23
HETATM   23  C   UNL     1      -9.218   4.392  71.095  1.00  0.00    -0.138 A  
HETATM   24  C   UNL     1      -9.416   3.021  71.290  1.00  0.00    -0.220 A  
HETATM   25  C   UNL     1      -9.451   2.514  72.588  1.00  0.00    -0.150 A  
HETATM   26  C   UNL     1      -9.282   3.370  73.678  1.00  0.00    -0.103 A  
HETATM   27  C   UNL     1      -9.069   4.735  73.476  1.00  0.00    -0.113 A  
HETATM   28  C   UNL     1      -9.032   5.253  72.181  1.00  0.00    -0.138 A  
ENDBRANCH  20  23
ENDBRANCH  19  20
ENDBRANCH  18  19
ENDBRANCH  15  18
ENDBRANCH   7   8
ENDBRANCH   6   7
TORSDOF 6
ENDMDL
MODEL      312
REMARK 921   NORMALIZED FREE ENERGY PREDICTED BY IDOCK:   -1.81 KCAL/MOL
REMARK 922        TOTAL FREE ENERGY PREDICTED BY IDOCK:   -4.02 KCAL/MOL
REMARK 923 INTER-LIGAND FREE ENERGY PREDICTED BY IDOCK:   -2.91 KCAL/MOL
REMARK 924 INTRA-LIGAND FREE ENERGY PREDICTED BY IDOCK:   -1.11 KCAL/MOL
REMARK 927      BINDING AFFINITY PREDICTED BY RF-SCORE:    0.00 PKD
ROOT
HETATM    1  C   UNL     1      -6.496   8.999  71.664  1.00  0.00    -0.053 C  
HETATM    2  N   UNL     1      -7.784   8.312  71.714  1.00  0.00    -0.102 NA 
HETATM    3  C   UNL     1      -8.103   7.900  73.086  1.00  0.00    -0.162 C  
HETATM    4  C   UNL     1      -9.613   7.813  73.098  1.00  0.00    -0.337 C  
HETATM    5  C   UNL     1     -10.026   8.996  72.248  1.00  0.00     0.016 C  
HETATM    6  C   UNL     1      -8.900   9.152  71.216  1.00  0.00    -0.112 C  
ENDROOT
BRANCH   6   7
HETATM    7  C   UNL     1      -9.316   8.696  69.793  1.00  0.00    -0.165 C  
BRANCH   7   8
HETATM    8  C   UNL     1      -8.724   9.530  68.687  1.00  0.00    -0.127 A  
HETATM    9  C   UNL     1      -8.180  10.795  68.801  1.00  0.00    -0.145 A  
HETATM   10  N   UNL     1      -7.655  11.154  67.585  1.00  0.00    -0.102 NA 
HETATM   11  C   UNL     1      -7.826  10.137  66.676  1.00  0.00    -0.110 A  
HETATM   12  H   UNL     1      -7.203  12.047  67.385  1.00  0.00     0.000 HD 
HETATM   13  C   UNL     1      -8.556   9.144  67.322  1.00  0.00    -0.118 A  
HETATM   14  C   UNL     1      -8.906   7.991  66.596  1.00  0.00    -0.166 A  
HETATM   15  C   UNL     1      -8.444   7.793  65.287  1.00  0.00    -0.099 A  
HETATM   16  C   UNL     1      -7.679   8.803  64.688  1.00  0.00    -0.119 A  
HETATM   17  C   UNL     1      -7.384  10.003  65.356  1.00  0.00    -0.139 A  
BRANCH  15  18
HETATM   18  C   UNL     1      -8.645   6.465  64.582  1.00  0.00     0.173 C  
BRANCH  18  19
HETATM   19  C   UNL     1      -7.451   5.524  64.670  1.00  0.00    -0.067 C  
BRANCH  19  20
HETATM   20  S   UNL     1      -7.942   3.814  64.689  1.00  0.00    -0.086 S  
HETATM   21  O   UNL     1      -6.805   3.008  64.296  1.00  0.00    -0.035 OA 
HETATM   22  O   UNL     1      -9.220   3.692  64.023  1.00  0.00    -0.119 OA 
BRANCH  20  23
HETATM   23  C   UNL     1      -8.210   3.543  66.431  1.00  0.00    -0.100 A  
HETATM   24  C   UNL     1      -8.721   2.314  66.861  1.00  0.00    -0.135 A  
HETATM   25  C   UNL     1      -8.970   2.115  68.217  1.00  0.00    -0.183 A  
HETATM   26  C   UNL     1      -8.704   3.133  69.135  1.00  0.00    -0.136 A  
HETATM   27  C   UNL     1      -8.179   4.352  68.702  1.00  0.00    -0.083 A  
HETATM   28  C   UNL     1      -7.925   4.562  67.345  1.00  0.00    -0.100 A  
ENDBRANCH  20  23
ENDBRANCH  19  20
ENDBRANCH  18  19
ENDBRANCH  15  18
ENDBRANCH   7   8
ENDBRANCH   6   7
TORSDOF 6
ENDMDL
MODEL      313
REMARK 921   NORMALIZED FREE ENERGY PREDICTED BY IDOCK:   -1.75 KCAL/MOL
REMARK 922        TOTAL FREE ENERGY PREDICTED BY IDOCK:   -3.94 KCAL/MOL
REMARK 923 INTER-LIGAND FREE ENERGY PREDICTED BY IDOCK:   -3.26 KCAL/MOL
REMARK 924 INTRA-LIGAND FREE ENERGY PREDICTED BY IDOCK:   -0.67 KCAL/MOL
REMARK 927      BINDING AFFINITY PREDICTED BY RF-SCORE:    0.00 PKD
ROOT
HETATM    1  C   UNL     1      -6.496   9.000  71.658  1.00  0.00    -0.053 C  
HETATM    2  N   UNL     1      -7.668   8.131  71.704  1.00  0.00    -0.084 NA 
HETATM    3  C   UNL     1      -8.036   7.821  73.091  1.00  0.00    -0.125 C  
HETATM    4  C   UNL     1      -9.512   7.502  73.014  1.00  0.00    -0.255 C  
HETATM    5  C   UNL     1     -10.023   8.511  72.007  1.00  0.00    -0.383 C  
HETATM    6  C   UNL     1      -8.851   8.730  71.040  1.00  0.00    -0.211 C  
ENDROOT
BRANCH   6   7
HETATM    7  C   UNL     1      -9.077   8.069  69.655  1.00  0.00    -0.152 C  
BRANCH   7   8
HETATM    8  C   UNL     1      -8.779   8.975  68.489  1.00  0.00    -0.133 A  
HETATM    9  C   UNL     1      -8.914  10.349  68.451  1.00  0.00    -0.137 A  
HETATM   10  N   UNL     1      -8.435  10.799  67.246  1.00  0.00    -0.124 NA 
HETATM   11  C   UNL     1      -7.968   9.744  66.498  1.00  0.00    -0.112 A  
HETATM   12  H   UNL     1      -8.428  11.775  66.948  1.00  0.00     0.000 HD 
HETATM   13  C   UNL     1      -8.240   8.589  67.224  1.00  0.00    -0.108 A  
HETATM   14  C   UNL     1      -7.893   7.347  66.662  1.00  0.00    -0.109 A  
HETATM   15  C   UNL     1      -7.195   7.273  65.448  1.00  0.00    -0.066 A  
HETATM   16  C   UNL     1      -6.907   8.465  64.768  1.00  0.00    -0.072 A  
HETATM   17  C   UNL     1      -7.315   9.715  65.261  1.00  0.00    -0.113 A  
BRANCH  15  18
HETATM   18  C   UNL     1      -6.640   5.953  64.947  1.00  0.00    -0.042 C  
BRANCH  18  19
HETATM   19  C   UNL     1      -6.898   4.774  65.877  1.00  0.00    -0.061 C  
BRANCH  19  20
HETATM   20  S   UNL     1      -6.756   3.212  65.038  1.00  0.00    -0.041 S  
HETATM   21  O   UNL     1      -6.506   2.184  66.027  1.00  0.00    -0.023 OA 
HETATM   22  O   UNL     1      -5.893   3.380  63.889  1.00  0.00    -0.013 OA 
BRANCH  20  23
HETATM   23  C   UNL     1      -8.420   2.981  64.439  1.00  0.00    -0.093 A  
HETATM   24  C   UNL     1      -8.857   1.693  64.114  1.00  0.00    -0.089 A  
HETATM   25  C   UNL     1     -10.142   1.515  63.606  1.00  0.00    -0.129 A  
HETATM   26  C   UNL     1     -10.983   2.616  63.431  1.00  0.00    -0.168 A  
HETATM   27  C   UNL     1     -10.547   3.897  63.772  1.00  0.00    -0.220 A  
HETATM   28  C   UNL     1      -9.262   4.086  64.282  1.00  0.00    -0.147 A  
ENDBRANCH  20  23
ENDBRANCH  19  20
ENDBRANCH  18  19
ENDBRANCH  15  18
ENDBRANCH   7   8
ENDBRANCH   6   7
TORSDOF 6
ENDMDL
MODEL      314
REMARK 921   NORMALIZED FREE ENERGY PREDICTED BY IDOCK:   -0.94 KCAL/MOL
REMARK 922        TOTAL FREE ENERGY PREDICTED BY IDOCK:   -2.85 KCAL/MOL
REMARK 923 INTER-LIGAND FREE ENERGY PREDICTED BY IDOCK:   -2.97 KCAL/MOL
REMARK 924 INTRA-LIGAND FREE ENERGY PREDICTED BY IDOCK:    0.12 KCAL/MOL
REMARK 927      BINDING AFFINITY PREDICTED BY RF-SCORE:    0.00 PKD
ROOT
HETATM    1  C   UNL     1      -8.048   8.264  66.900  1.00  0.00    -0.103 C  
HETATM    2  N   UNL     1      -8.749   9.151  67.824  1.00  0.00    -0.121 NA 
HETATM    3  C   UNL     1      -9.391  10.256  67.103  1.00  0.00    -0.153 C  
HETATM    4  C   UNL     1     -10.526  10.673  68.012  1.00  0.00    -0.228 C  
HETATM    5  C   UNL     1     -11.033   9.351  68.547  1.00  0.00    -0.076 C  
HETATM    6  C   UNL     1      -9.791   8.450  68.612  1.00  0.00    -0.170 C  
ENDROOT
BRANCH   6   7
HETATM    7  C   UNL     1      -9.294   8.207  70.061  1.00  0.00    -0.159 C  
BRANCH   7   8
HETATM    8  C   UNL     1      -9.918   7.011  70.729  1.00  0.00    -0.197 A  
HETATM    9  C   UNL     1     -11.211   6.904  71.201  1.00  0.00    -0.274 A  
HETATM   10  N   UNL     1     -11.411   5.618  71.637  1.00  0.00    -0.150 NA 
HETATM   11  C   UNL     1     -10.274   4.870  71.440  1.00  0.00    -0.187 A  
HETATM   12  H   UNL     1     -12.277   5.269  72.048  1.00  0.00     0.000 HD 
HETATM   13  C   UNL     1      -9.307   5.737  70.943  1.00  0.00    -0.185 A  
HETATM   14  C   UNL     1      -8.021   5.229  70.685  1.00  0.00    -0.103 A  
HETATM   15  C   UNL     1      -7.743   3.861  70.823  1.00  0.00    -0.051 A  
HETATM   16  C   UNL     1      -8.759   3.016  71.291  1.00  0.00    -0.121 A  
HETATM   17  C   UNL     1     -10.028   3.507  71.638  1.00  0.00    -0.190 A  
BRANCH  15  18
HETATM   18  C   UNL     1      -6.424   3.282  70.350  1.00  0.00    -0.032 C  
BRANCH  18  19
HETATM   19  C   UNL     1      -6.254   3.273  68.836  1.00  0.00    -0.029 C  
BRANCH  19  20
HETATM   20  S   UNL     1      -7.752   2.817  67.993  1.00  0.00    -0.055 S  
HETATM   21  O   UNL     1      -8.687   3.919  68.096  1.00  0.00    -0.094 OA 
HETATM   22  O   UNL     1      -8.120   1.477  68.395  1.00  0.00    -0.052 OA 
BRANCH  20  23
HETATM   23  C   UNL     1      -7.198   2.744  66.300  1.00  0.00    -0.066 A  
HETATM   24  C   UNL     1      -6.530   1.601  65.848  1.00  0.00    -0.023 A  
HETATM   25  C   UNL     1      -6.060   1.559  64.537  1.00  0.00    -0.013 A  
HETATM   26  C   UNL     1      -6.261   2.647  63.686  1.00  0.00    -0.014 A  
HETATM   27  C   UNL     1      -6.942   3.779  64.139  1.00  0.00    -0.046 A  
HETATM   28  C   UNL     1      -7.418   3.832  65.450  1.00  0.00    -0.077 A  
ENDBRANCH  20  23
ENDBRANCH  19  20
ENDBRANCH  18  19
ENDBRANCH  15  18
ENDBRANCH   7   8
ENDBRANCH   6   7
TORSDOF 6
ENDMDL
MODEL      315
REMARK 921   NORMALIZED FREE ENERGY PREDICTED BY IDOCK:    0.61 KCAL/MOL
REMARK 922        TOTAL FREE ENERGY PREDICTED BY IDOCK:   -0.74 KCAL/MOL
REMARK 923 INTER-LIGAND FREE ENERGY PREDICTED BY IDOCK:   -3.94 KCAL/MOL
REMARK 924 INTRA-LIGAND FREE ENERGY PREDICTED BY IDOCK:    3.20 KCAL/MOL
REMARK 927      BINDING AFFINITY PREDICTED BY RF-SCORE:    0.00 PKD
ROOT
HETATM    1  C   UNL     1     -10.402  20.045  68.698  1.00  0.00    -0.244 C  
HETATM    2  N   UNL     1      -9.268  19.359  68.084  1.00  0.00    -0.325 NA 
HETATM    3  C   UNL     1      -9.664  18.722  66.822  1.00  0.00    -0.329 C  
HETATM    4  C   UNL     1      -8.374  18.635  66.038  1.00  0.00    -0.070 C  
HETATM    5  C   UNL     1      -7.689  19.944  66.368  1.00  0.00    -0.323 C  
HETATM    6  C   UNL     1      -8.133  20.271  67.801  1.00  0.00    -0.230 C  
ENDROOT
BRANCH   6   7
HETATM    7  C   UNL     1      -7.007  20.062  68.847  1.00  0.00    -0.293 C  
BRANCH   7   8
HETATM    8  C   UNL     1      -6.495  18.648  68.920  1.00  0.00    -0.261 A  
HETATM    9  C   UNL     1      -5.177  18.240  68.882  1.00  0.00    -0.176 A  
HETATM   10  N   UNL     1      -5.134  16.883  69.087  1.00  0.00    -0.129 NA 
HETATM   11  C   UNL     1      -6.405  16.394  69.281  1.00  0.00    -0.186 A  
HETATM   12  H   UNL     1      -4.284  16.320  69.094  1.00  0.00     0.000 HD 
HETATM   13  C   UNL     1      -7.276  17.466  69.108  1.00  0.00    -0.175 A  
HETATM   14  C   UNL     1      -8.658  17.230  69.216  1.00  0.00     0.183 A  
HETATM   15  C   UNL     1      -9.149  15.972  69.593  1.00  0.00     0.037 A  
HETATM   16  C   UNL     1      -8.233  14.929  69.795  1.00  0.00     0.141 A  
HETATM   17  C   UNL     1      -6.853  15.111  69.611  1.00  0.00    -0.188 A  
BRANCH  15  18
HETATM   18  C   UNL     1     -10.618  15.772  69.912  1.00  0.00    -0.332 C  
BRANCH  18  19
HETATM   19  C   UNL     1     -11.182  14.436  69.443  1.00  0.00    -0.281 C  
BRANCH  19  20
HETATM   20  S   UNL     1     -12.647  13.973  70.341  1.00  0.00    -0.262 S  
HETATM   21  O   UNL     1     -12.540  12.573  70.697  1.00  0.00    -0.258 OA 
HETATM   22  O   UNL     1     -13.802  14.486  69.639  1.00  0.00     1.959 OA 
BRANCH  20  23
HETATM   23  C   UNL     1     -12.457  14.919  71.840  1.00  0.00    -0.333 A  
HETATM   24  C   UNL     1     -12.859  14.360  73.057  1.00  0.00    -0.521 A  
HETATM   25  C   UNL     1     -12.749  15.114  74.224  1.00  0.00    -0.290 A  
HETATM   26  C   UNL     1     -12.237  16.411  74.174  1.00  0.00    -0.537 A  
HETATM   27  C   UNL     1     -11.823  16.959  72.958  1.00  0.00     0.036 A  
HETATM   28  C   UNL     1     -11.927  16.212  71.783  1.00  0.00    -0.560 A  
ENDBRANCH  20  23
ENDBRANCH  19  20
ENDBRANCH  18  19
ENDBRANCH  15  18
ENDBRANCH   7   8
ENDBRANCH   6   7
TORSDOF 6
ENDMDL
MODEL      316
REMARK 921   NORMALIZED FREE ENERGY PREDICTED BY IDOCK:    1.81 KCAL/MOL
REMARK 922        TOTAL FREE ENERGY PREDICTED BY IDOCK:    0.87 KCAL/MOL
REMARK 923 INTER-LIGAND FREE ENERGY PREDICTED BY IDOCK:    0.62 KCAL/MOL
REMARK 924 INTRA-LIGAND FREE ENERGY PREDICTED BY IDOCK:    0.25 KCAL/MOL
REMARK 927      BINDING AFFINITY PREDICTED BY RF-SCORE:    0.00 PKD
ROOT
HETATM    1  C   UNL     1     -13.875  10.771  70.483  1.00  0.00     1.477 C  
HETATM    2  N   UNL     1     -12.988  11.454  69.546  1.00  0.00     0.288 NA 
HETATM    3  C   UNL     1     -13.002  12.904  69.773  1.00  0.00     0.973 C  
HETATM    4  C   UNL     1     -11.666  13.369  69.238  1.00  0.00    -0.383 C  
HETATM    5  C   UNL     1     -10.727  12.262  69.667  1.00  0.00     0.350 C  
HETATM    6  C   UNL     1     -11.583  10.988  69.645  1.00  0.00    -0.318 C  
ENDROOT
BRANCH   6   7
HETATM    7  C   UNL     1     -11.245  10.052  68.456  1.00  0.00    -0.180 C  
BRANCH   7   8
HETATM    8  C   UNL     1     -10.509  10.733  67.332  1.00  0.00    -0.268 A  
HETATM    9  C   UNL     1     -10.863  11.909  66.701  1.00  0.00    -0.276 A  
HETATM   10  N   UNL     1      -9.872  12.241  65.811  1.00  0.00    -0.251 NA 
HETATM   11  C   UNL     1      -8.860  11.311  65.862  1.00  0.00    -0.169 A  
HETATM   12  H   UNL     1      -9.884  13.059  65.201  1.00  0.00     0.000 HD 
HETATM   13  C   UNL     1      -9.271  10.322  66.750  1.00  0.00    -0.180 A  
HETATM   14  C   UNL     1      -8.426   9.218  66.961  1.00  0.00    -0.124 A  
HETATM   15  C   UNL     1      -7.153   9.160  66.375  1.00  0.00    -0.084 A  
HETATM   16  C   UNL     1      -6.764  10.197  65.516  1.00  0.00    -0.122 A  
HETATM   17  C   UNL     1      -7.619  11.271  65.218  1.00  0.00     0.617 A  
BRANCH  15  18
HETATM   18  C   UNL     1      -6.164   8.077  66.764  1.00  0.00    -0.054 C  
BRANCH  18  19
HETATM   19  C   UNL     1      -6.643   7.170  67.890  1.00  0.00    -0.053 C  
BRANCH  19  20
HETATM   20  S   UNL     1      -6.597   5.451  67.434  1.00  0.00    -0.055 S  
HETATM   21  O   UNL     1      -6.485   4.661  68.643  1.00  0.00    -0.035 OA 
HETATM   22  O   UNL     1      -5.669   5.287  66.337  1.00  0.00    -0.016 OA 
BRANCH  20  23
HETATM   23  C   UNL     1      -8.244   5.212  66.792  1.00  0.00    -0.108 A  
HETATM   24  C   UNL     1      -8.618   3.949  66.322  1.00  0.00    -0.112 A  
HETATM   25  C   UNL     1      -9.890   3.771  65.782  1.00  0.00    -0.095 A  
HETATM   26  C   UNL     1     -10.780   4.844  65.719  1.00  0.00    -0.194 A  
HETATM   27  C   UNL     1     -10.407   6.099  66.205  1.00  0.00     0.133 A  
HETATM   28  C   UNL     1      -9.136   6.288  66.748  1.00  0.00    -0.141 A  
ENDBRANCH  20  23
ENDBRANCH  19  20
ENDBRANCH  18  19
ENDBRANCH  15  18
ENDBRANCH   7   8
ENDBRANCH   6   7
TORSDOF 6
ENDMDL
MODEL      317
REMARK 921   NORMALIZED FREE ENERGY PREDICTED BY IDOCK:    3.41 KCAL/MOL
REMARK 922        TOTAL FREE ENERGY PREDICTED BY IDOCK:    3.04 KCAL/MOL
REMARK 923 INTER-LIGAND FREE ENERGY PREDICTED BY IDOCK:    3.16 KCAL/MOL
REMARK 924 INTRA-LIGAND FREE ENERGY PREDICTED BY IDOCK:   -0.12 KCAL/MOL
REMARK 927      BINDING AFFINITY PREDICTED BY RF-SCORE:    0.00 PKD
ROOT
HETATM    1  C   UNL     1     -14.122  10.916  70.493  1.00  0.00     2.607 C  
HETATM    2  N   UNL     1     -13.094  11.711  69.828  1.00  0.00     0.651 NA 
HETATM    3  C   UNL     1     -13.306  13.144  70.065  1.00  0.00     1.448 C  
HETATM    4  C   UNL     1     -11.929  13.747  69.902  1.00  0.00    -0.412 C  
HETATM    5  C   UNL     1     -11.029  12.713  70.543  1.00  0.00     1.797 C  
HETATM    6  C   UNL     1     -11.724  11.369  70.281  1.00  0.00    -0.306 C  
ENDROOT
BRANCH   6   7
HETATM    7  C   UNL     1     -11.003  10.514  69.206  1.00  0.00    -0.291 C  
BRANCH   7   8
HETATM    8  C   UNL     1     -10.164  11.318  68.248  1.00  0.00    -0.198 A  
HETATM    9  C   UNL     1     -10.516  12.499  67.626  1.00  0.00    -0.217 A  
HETATM   10  N   UNL     1      -9.432  12.961  66.922  1.00  0.00    -0.231 NA 
HETATM   11  C   UNL     1      -8.363  12.112  67.089  1.00  0.00    -0.183 A  
HETATM   12  H   UNL     1      -9.421  13.810  66.357  1.00  0.00     0.000 HD 
HETATM   13  C   UNL     1      -8.819  11.042  67.852  1.00  0.00    -0.134 A  
HETATM   14  C   UNL     1      -7.924   9.996  68.142  1.00  0.00    -0.100 A  
HETATM   15  C   UNL     1      -6.576  10.073  67.764  1.00  0.00    -0.067 A  
HETATM   16  C   UNL     1      -6.150  11.189  67.029  1.00  0.00    -0.092 A  
HETATM   17  C   UNL     1      -7.039  12.208  66.650  1.00  0.00     0.226 A  
BRANCH  15  18
HETATM   18  C   UNL     1      -5.569   9.050  68.254  1.00  0.00    -0.038 C  
BRANCH  18  19
HETATM   19  C   UNL     1      -6.039   8.236  69.453  1.00  0.00    -0.037 C  
BRANCH  19  20
HETATM   20  S   UNL     1      -6.308   6.527  69.041  1.00  0.00    -0.036 S  
HETATM   21  O   UNL     1      -5.466   5.714  69.895  1.00  0.00    -0.004 OA 
HETATM   22  O   UNL     1      -6.280   6.387  67.602  1.00  0.00    -0.029 OA 
BRANCH  20  23
HETATM   23  C   UNL     1      -7.992   6.295  69.577  1.00  0.00    -0.108 A  
HETATM   24  C   UNL     1      -8.558   5.017  69.522  1.00  0.00    -0.102 A  
HETATM   25  C   UNL     1      -9.887   4.841  69.902  1.00  0.00    -0.291 A  
HETATM   26  C   UNL     1     -10.640   5.933  70.338  1.00  0.00    -0.353 A  
HETATM   27  C   UNL     1     -10.066   7.204  70.405  1.00  0.00    -0.199 A  
HETATM   28  C   UNL     1      -8.735   7.391  70.029  1.00  0.00    -0.140 A  
ENDBRANCH  20  23
ENDBRANCH  19  20
ENDBRANCH  18  19
ENDBRANCH  15  18
ENDBRANCH   7   8
ENDBRANCH   6   7
TORSDOF 6
ENDMDL
MODEL      318
REMARK 921   NORMALIZED FREE ENERGY PREDICTED BY IDOCK:    4.53 KCAL/MOL
REMARK 922        TOTAL FREE ENERGY PREDICTED BY IDOCK:    4.55 KCAL/MOL
REMARK 923 INTER-LIGAND FREE ENERGY PREDICTED BY IDOCK:   -3.61 KCAL/MOL
REMARK 924 INTRA-LIGAND FREE ENERGY PREDICTED BY IDOCK:    8.16 KCAL/MOL
REMARK 927      BINDING AFFINITY PREDICTED BY RF-SCORE:    0.00 PKD
ROOT
HETATM    1  C   UNL     1      -8.671  20.609  66.024  1.00  0.00     0.419 C  
HETATM    2  N   UNL     1      -8.231  19.282  66.445  1.00  0.00    -0.309 NA 
HETATM    3  C   UNL     1      -7.231  19.378  67.516  1.00  0.00    -0.219 C  
HETATM    4  C   UNL     1      -7.352  18.058  68.244  1.00  0.00    -0.259 C  
HETATM    5  C   UNL     1      -8.844  17.804  68.239  1.00  0.00    -0.277 C  
HETATM    6  C   UNL     1      -9.346  18.436  66.933  1.00  0.00    -0.290 C  
ENDROOT
BRANCH   6   7
HETATM    7  C   UNL     1      -9.728  17.384  65.859  1.00  0.00    -0.087 C  
BRANCH   7   8
HETATM    8  C   UNL     1     -10.304  16.113  66.426  1.00  0.00    -0.321 A  
HETATM    9  C   UNL     1     -11.632  15.734  66.434  1.00  0.00     0.410 A  
HETATM   10  N   UNL     1     -11.719  14.463  66.943  1.00  0.00    -0.389 NA 
HETATM   11  C   UNL     1     -10.465  13.989  67.251  1.00  0.00    -0.268 A  
HETATM   12  H   UNL     1     -12.588  13.944  67.074  1.00  0.00     0.000 HD 
HETATM   13  C   UNL     1      -9.574  15.029  67.005  1.00  0.00    -0.233 A  
HETATM   14  C   UNL     1      -8.210  14.821  67.275  1.00  0.00    -0.237 A  
HETATM   15  C   UNL     1      -7.737  13.565  67.682  1.00  0.00    -0.180 A  
HETATM   16  C   UNL     1      -8.666  12.533  67.881  1.00  0.00    -0.180 A  
HETATM   17  C   UNL     1     -10.044  12.734  67.702  1.00  0.00    -0.220 A  
BRANCH  15  18
HETATM   18  C   UNL     1      -6.250  13.283  67.773  1.00  0.00    -0.159 C  
BRANCH  18  19
HETATM   19  C   UNL     1      -5.907  11.826  68.057  1.00  0.00    -0.046 C  
BRANCH  19  20
HETATM   20  S   UNL     1      -7.102  11.048  69.120  1.00  0.00    -0.125 S  
HETATM   21  O   UNL     1      -8.311  11.846  69.108  1.00  0.00     0.160 OA 
HETATM   22  O   UNL     1      -6.452  10.682  70.359  1.00  0.00    -0.182 OA 
BRANCH  20  23
HETATM   23  C   UNL     1      -7.447   9.546  68.223  1.00  0.00    -0.078 A  
HETATM   24  C   UNL     1      -6.553   8.474  68.315  1.00  0.00    -0.061 A  
HETATM   25  C   UNL     1      -6.800   7.315  67.582  1.00  0.00    -0.074 A  
HETATM   26  C   UNL     1      -7.933   7.227  66.771  1.00  0.00    -0.118 A  
HETATM   27  C   UNL     1      -8.830   8.294  66.696  1.00  0.00    -0.166 A  
HETATM   28  C   UNL     1      -8.593   9.460  67.427  1.00  0.00    -0.125 A  
ENDBRANCH  20  23
ENDBRANCH  19  20
ENDBRANCH  18  19
ENDBRANCH  15  18
ENDBRANCH   7   8
ENDBRANCH   6   7
TORSDOF 6
ENDMDL
MODEL      319
REMARK 921   NORMALIZED FREE ENERGY PREDICTED BY IDOCK:    5.51 KCAL/MOL
REMARK 922        TOTAL FREE ENERGY PREDICTED BY IDOCK:    5.87 KCAL/MOL
REMARK 923 INTER-LIGAND FREE ENERGY PREDICTED BY IDOCK:    5.58 KCAL/MOL
REMARK 924 INTRA-LIGAND FREE ENERGY PREDICTED BY IDOCK:    0.29 KCAL/MOL
REMARK 927      BINDING AFFINITY PREDICTED BY RF-SCORE:    0.00 PKD
ROOT
HETATM    1  C   UNL     1     -11.036  18.637  65.012  1.00  0.00     1.388 C  
HETATM    2  N   UNL     1     -10.026  17.620  64.736  1.00  0.00     1.514 NA 
HETATM    3  C   UNL     1      -8.721  18.017  65.280  1.00  0.00     2.017 C  
HETATM    4  C   UNL     1      -8.001  16.704  65.493  1.00  0.00     1.475 C  
HETATM    5  C   UNL     1      -9.101  15.793  65.997  1.00  0.00    -0.361 C  
HETATM    6  C   UNL     1     -10.376  16.296  65.305  1.00  0.00    -0.219 C  
ENDROOT
BRANCH   6   7
HETATM    7  C   UNL     1     -10.871  15.346  64.183  1.00  0.00     0.638 C  
BRANCH   7   8
HETATM    8  C   UNL     1     -11.523  14.087  64.691  1.00  0.00    -0.389 A  
HETATM    9  C   UNL     1     -12.118  13.097  63.934  1.00  0.00    -0.470 A  
HETATM   10  N   UNL     1     -12.490  12.074  64.770  1.00  0.00    -0.366 NA 
HETATM   11  C   UNL     1     -12.129  12.366  66.064  1.00  0.00    -0.254 A  
HETATM   12  H   UNL     1     -12.965  11.221  64.473  1.00  0.00     0.000 HD 
HETATM   13  C   UNL     1     -11.591  13.649  66.049  1.00  0.00    -0.358 A  
HETATM   14  C   UNL     1     -11.170  14.213  67.267  1.00  0.00    -0.330 A  
HETATM   15  C   UNL     1     -11.192  13.468  68.454  1.00  0.00    -0.309 A  
HETATM   16  C   UNL     1     -11.708  12.165  68.417  1.00  0.00    -0.388 A  
HETATM   17  C   UNL     1     -12.214  11.603  67.233  1.00  0.00     0.704 A  
BRANCH  15  18
HETATM   18  C   UNL     1     -10.549  14.000  69.721  1.00  0.00     0.264 C  
BRANCH  18  19
HETATM   19  C   UNL     1      -9.750  15.282  69.524  1.00  0.00    -0.219 C  
BRANCH  19  20
HETATM   20  S   UNL     1     -10.701  16.734  69.913  1.00  0.00     0.048 S  
HETATM   21  O   UNL     1     -11.270  17.249  68.684  1.00  0.00    -0.097 OA 
HETATM   22  O   UNL     1      -9.922  17.576  70.794  1.00  0.00     2.150 OA 
BRANCH  20  23
HETATM   23  C   UNL     1     -12.036  16.037  70.867  1.00  0.00    -0.339 A  
HETATM   24  C   UNL     1     -13.339  16.089  70.360  1.00  0.00     1.279 A  
HETATM   25  C   UNL     1     -14.389  15.582  71.122  1.00  0.00    -0.128 A  
HETATM   26  C   UNL     1     -14.137  15.023  72.376  1.00  0.00    -0.574 A  
HETATM   27  C   UNL     1     -12.833  14.959  72.871  1.00  0.00    -0.548 A  
HETATM   28  C   UNL     1     -11.773  15.463  72.115  1.00  0.00    -0.551 A  
ENDBRANCH  20  23
ENDBRANCH  19  20
ENDBRANCH  18  19
ENDBRANCH  15  18
ENDBRANCH   7   8
ENDBRANCH   6   7
TORSDOF 6
ENDMDL
MODEL      320
REMARK 921   NORMALIZED FREE ENERGY PREDICTED BY IDOCK:    6.00 KCAL/MOL
REMARK 922        TOTAL FREE ENERGY PREDICTED BY IDOCK:    6.53 KCAL/MOL
REMARK 923 INTER-LIGAND FREE ENERGY PREDICTED BY IDOCK:   -4.55 KCAL/MOL
REMARK 924 INTRA-LIGAND FREE ENERGY PREDICTED BY IDOCK:   11.08 KCAL/MOL
REMARK 927      BINDING AFFINITY PREDICTED BY RF-SCORE:    0.00 PKD
ROOT
HETATM    1  C   UNL     1      -8.152  19.263  67.212  1.00  0.00    -0.265 C  
HETATM    2  N   UNL     1      -7.796  17.858  67.393  1.00  0.00    -0.207 NA 
HETATM    3  C   UNL     1      -6.770  17.709  68.432  1.00  0.00    -0.203 C  
HETATM    4  C   UNL     1      -6.967  16.297  68.936  1.00  0.00    -0.170 C  
HETATM    5  C   UNL     1      -8.473  16.145  68.937  1.00  0.00    -0.241 C  
HETATM    6  C   UNL     1      -8.958  17.017  67.770  1.00  0.00    -0.224 C  
ENDROOT
BRANCH   6   7
HETATM    7  C   UNL     1      -9.435  16.187  66.551  1.00  0.00    -0.289 C  
BRANCH   7   8
HETATM    8  C   UNL     1     -10.053  14.863  66.917  1.00  0.00    -0.242 A  
HETATM    9  C   UNL     1     -11.399  14.552  66.932  1.00  0.00    -0.348 A  
HETATM   10  N   UNL     1     -11.534  13.216  67.214  1.00  0.00    -0.313 NA 
HETATM   11  C   UNL     1     -10.295  12.637  67.364  1.00  0.00    -0.220 A  
HETATM   12  H   UNL     1     -12.423  12.724  67.299  1.00  0.00     0.000 HD 
HETATM   13  C   UNL     1      -9.360  13.661  67.256  1.00  0.00    -0.233 A  
HETATM   14  C   UNL     1      -7.999  13.344  67.411  1.00  0.00    -0.170 A  
HETATM   15  C   UNL     1      -7.579  12.015  67.565  1.00  0.00    -0.147 A  
HETATM   16  C   UNL     1      -8.554  11.009  67.630  1.00  0.00    -0.125 A  
HETATM   17  C   UNL     1      -9.926  11.303  67.564  1.00  0.00    -0.203 A  
BRANCH  15  18
HETATM   18  C   UNL     1      -6.107  11.652  67.523  1.00  0.00    -0.079 C  
BRANCH  18  19
HETATM   19  C   UNL     1      -5.836  10.157  67.413  1.00  0.00    -0.053 C  
BRANCH  19  20
HETATM   20  S   UNL     1      -7.220   9.180  67.954  1.00  0.00    -0.080 S  
HETATM   21  O   UNL     1      -8.397  10.025  67.969  1.00  0.00    -0.115 OA 
HETATM   22  O   UNL     1      -6.824   8.419  69.119  1.00  0.00    -0.053 OA 
BRANCH  20  23
HETATM   23  C   UNL     1      -7.401   8.040  66.596  1.00  0.00    -0.088 A  
HETATM   24  C   UNL     1      -6.923   8.401  65.331  1.00  0.00    -0.074 A  
HETATM   25  C   UNL     1      -7.101   7.529  64.259  1.00  0.00    -0.063 A  
HETATM   26  C   UNL     1      -7.744   6.305  64.452  1.00  0.00    -0.107 A  
HETATM   27  C   UNL     1      -8.204   5.943  65.719  1.00  0.00    -0.130 A  
HETATM   28  C   UNL     1      -8.031   6.808  66.800  1.00  0.00    -0.108 A  
ENDBRANCH  20  23
ENDBRANCH  19  20
ENDBRANCH  18  19
ENDBRANCH  15  18
ENDBRANCH   7   8
ENDBRANCH   6   7
TORSDOF 6
ENDMDL
MODEL      321
REMARK 921   NORMALIZED FREE ENERGY PREDICTED BY IDOCK:   12.03 KCAL/MOL
REMARK 922        TOTAL FREE ENERGY PREDICTED BY IDOCK:   14.67 KCAL/MOL
REMARK 923 INTER-LIGAND FREE ENERGY PREDICTED BY IDOCK:    1.43 KCAL/MOL
REMARK 924 INTRA-LIGAND FREE ENERGY PREDICTED BY IDOCK:   13.24 KCAL/MOL
REMARK 927      BINDING AFFINITY PREDICTED BY RF-SCORE:    0.00 PKD
ROOT
HETATM    1  C   UNL     1      -7.745   7.515  66.051  1.00  0.00    -0.094 C  
HETATM    2  N   UNL     1      -8.103   8.429  67.132  1.00  0.00    -0.104 NA 
HETATM    3  C   UNL     1      -8.506   9.736  66.600  1.00  0.00    -0.124 C  
HETATM    4  C   UNL     1      -9.403  10.306  67.675  1.00  0.00    -0.158 C  
HETATM    5  C   UNL     1     -10.180   9.094  68.144  1.00  0.00    -0.249 C  
HETATM    6  C   UNL     1      -9.211   7.915  67.973  1.00  0.00    -0.131 C  
ENDROOT
BRANCH   6   7
HETATM    7  C   UNL     1      -8.657   7.386  69.322  1.00  0.00    -0.137 C  
BRANCH   7   8
HETATM    8  C   UNL     1      -9.429   6.221  69.885  1.00  0.00    -0.162 A  
HETATM    9  C   UNL     1     -10.485   6.278  70.773  1.00  0.00    -0.222 A  
HETATM   10  N   UNL     1     -10.975   5.008  70.947  1.00  0.00     0.135 NA 
HETATM   11  C   UNL     1     -10.271   4.118  70.170  1.00  0.00     0.281 A  
HETATM   12  H   UNL     1     -11.750   4.760  71.563  1.00  0.00     0.000 HD 
HETATM   13  C   UNL     1      -9.255   4.842  69.556  1.00  0.00    -0.171 A  
HETATM   14  C   UNL     1      -8.352   4.156  68.723  1.00  0.00    -0.093 A  
HETATM   15  C   UNL     1      -8.529   2.796  68.431  1.00  0.00    -0.097 A  
HETATM   16  C   UNL     1      -9.590   2.113  69.042  1.00  0.00    -0.066 A  
HETATM   17  C   UNL     1     -10.457   2.750  69.945  1.00  0.00     2.153 A  
BRANCH  15  18
HETATM   18  C   UNL     1      -7.684   2.109  67.376  1.00  0.00    -0.061 C  
BRANCH  18  19
HETATM   19  C   UNL     1      -7.801   2.721  65.986  1.00  0.00    -0.081 C  
BRANCH  19  20
HETATM   20  S   UNL     1      -9.328   3.608  65.768  1.00  0.00    -0.155 S  
HETATM   21  O   UNL     1      -9.777   4.068  67.066  1.00  0.00    -0.209 OA 
HETATM   22  O   UNL     1     -10.191   2.838  64.900  1.00  0.00     0.184 OA 
BRANCH  20  23
HETATM   23  C   UNL     1      -8.778   5.039  64.857  1.00  0.00    -0.150 A  
HETATM   24  C   UNL     1      -9.388   5.349  63.637  1.00  0.00     0.640 A  
HETATM   25  C   UNL     1      -8.932   6.443  62.904  1.00  0.00     0.775 A  
HETATM   26  C   UNL     1      -7.880   7.222  63.390  1.00  0.00    -0.110 A  
HETATM   27  C   UNL     1      -7.285   6.917  64.616  1.00  0.00    -0.076 A  
HETATM   28  C   UNL     1      -7.735   5.824  65.359  1.00  0.00    -0.091 A  
ENDBRANCH  20  23
ENDBRANCH  19  20
ENDBRANCH  18  19
ENDBRANCH  15  18
ENDBRANCH   7   8
ENDBRANCH   6   7
TORSDOF 6
ENDMDL
