MODEL        1
REMARK 921   NORMALIZED FREE ENERGY PREDICTED BY IDOCK:   -8.84 KCAL/MOL
REMARK 922        TOTAL FREE ENERGY PREDICTED BY IDOCK:  -14.61 KCAL/MOL
REMARK 923 INTER-LIGAND FREE ENERGY PREDICTED BY IDOCK:  -12.98 KCAL/MOL
REMARK 924 INTRA-LIGAND FREE ENERGY PREDICTED BY IDOCK:   -1.63 KCAL/MOL
REMARK 927      BINDING AFFINITY PREDICTED BY RF-SCORE:    0.00 PKD
ROOT
HETATM    1  C   UNL     1     -10.442  11.051  66.335  1.00  0.00    -0.312 C  
HETATM    2  C   UNL     1      -9.961  12.225  65.482  1.00  0.00    -0.264 C  
HETATM    3  C   UNL     1      -9.429  13.363  66.346  1.00  0.00    -0.219 C  
HETATM    4  N   UNL     1     -10.568  14.262  66.560  1.00  0.00    -0.283 NA 
HETATM    5  C   UNL     1     -11.169  15.395  64.473  1.00  0.00    -0.310 C  
HETATM    6  C   UNL     1     -11.480  14.176  65.362  1.00  0.00    -0.325 C  
HETATM    7  C   UNL     1     -11.081  12.852  64.654  1.00  0.00    -0.352 C  
HETATM    8  C   UNL     1     -13.002  14.147  65.534  1.00  0.00    -0.303 C  
ENDROOT
BRANCH   4   9
HETATM    9  C   UNL     1     -10.940  14.627  67.842  1.00  0.00    -0.277 A  
HETATM   10  N   UNL     1     -11.483  13.611  68.590  1.00  0.00    -0.283 NA 
HETATM   11  C   UNL     1     -11.856  13.757  69.893  1.00  0.00    -0.327 A  
HETATM   12  C   UNL     1     -11.702  14.964  70.533  1.00  0.00    -0.344 A  
HETATM   13  C   UNL     1     -10.775  15.900  68.436  1.00  0.00    -0.281 A  
HETATM   14  C   UNL     1     -11.154  16.025  69.800  1.00  0.00    -0.337 A  
BRANCH  11  15
HETATM   15  N   UNL     1     -12.401  12.616  70.603  1.00  0.00    -0.342 NA 
HETATM   16  C   UNL     1     -13.240  12.676  71.708  1.00  0.00    -0.359 A  
HETATM   17  C   UNL     1     -13.512  11.390  72.095  1.00  0.00    -0.203 A  
HETATM   18  N   UNL     1     -12.157  11.306  70.251  1.00  0.00    -0.349 NA 
HETATM   19  C   UNL     1     -12.820  10.599  71.176  1.00  0.00    -0.420 A  
BRANCH  19  20
HETATM   20  O   UNL     1     -12.824   9.248  71.219  1.00  0.00    -0.322 OA 
BRANCH  20  21
HETATM   21  C   UNL     1     -12.386   8.648  72.436  1.00  0.00    -0.357 C  
BRANCH  21  22
HETATM   22  C   UNL     1     -11.221   7.662  72.143  1.00  0.00    -0.331 C  
HETATM   23  F   UNL     1     -11.331   5.385  72.897  1.00  0.00    -0.291 F  
HETATM   24  F   UNL     1     -13.146   6.226  72.055  1.00  0.00    -0.341 F  
HETATM   25  C   UNL     1     -10.205   7.676  73.304  1.00  0.00    -0.398 C  
HETATM   26  C   UNL     1     -10.465   8.092  70.868  1.00  0.00    -0.223 C  
HETATM   27  C   UNL     1     -11.797   6.246  71.962  1.00  0.00    -0.318 C  
HETATM   28  F   UNL     1     -11.482   5.718  70.757  1.00  0.00    -0.333 F  
ENDBRANCH  21  22
ENDBRANCH  20  21
ENDBRANCH  19  20
ENDBRANCH  11  15
BRANCH  13  29
HETATM   29  C   UNL     1     -10.220  17.196  67.864  1.00  0.00    -0.330 C  
HETATM   30  H   UNL     1      -8.851  16.254  66.607  1.00  0.00     0.000 HD 
HETATM   31  N   UNL     1      -9.139  17.166  66.961  1.00  0.00    -0.225 N  
HETATM   32  O   UNL     1     -10.793  18.245  68.127  1.00  0.00    -0.270 OA 
BRANCH  31  33
HETATM   33  S   UNL     1      -8.275  18.522  66.413  1.00  0.00    -0.238 S  
HETATM   34  O   UNL     1      -7.252  18.054  65.514  1.00  0.00    -0.532 OA 
HETATM   35  O   UNL     1      -9.302  19.427  65.935  1.00  0.00    -0.415 OA 
BRANCH  33  36
HETATM   36  C   UNL     1      -7.413  19.459  67.604  1.00  0.00    -0.252 A  
HETATM   37  C   UNL     1      -7.285  19.161  68.953  1.00  0.00    -0.341 A  
HETATM   38  N   UNL     1      -6.440  20.088  69.485  1.00  0.00    -0.343 NA 
HETATM   39  N   UNL     1      -5.982  20.965  68.586  1.00  0.00    -0.343 NA 
HETATM   40  C   UNL     1      -5.951  20.210  70.838  1.00  0.00    -0.308 C  
HETATM   41  C   UNL     1      -6.506  20.560  67.420  1.00  0.00    -0.252 A  
HETATM   42  C   UNL     1      -5.979  21.274  66.221  1.00  0.00    -0.325 C  
ENDBRANCH  33  36
ENDBRANCH  31  33
ENDBRANCH  13  29
ENDBRANCH   4   9
TORSDOF 8
ENDMDL
MODEL        2
REMARK 921   NORMALIZED FREE ENERGY PREDICTED BY IDOCK:   -8.81 KCAL/MOL
REMARK 922        TOTAL FREE ENERGY PREDICTED BY IDOCK:  -14.56 KCAL/MOL
REMARK 923 INTER-LIGAND FREE ENERGY PREDICTED BY IDOCK:  -12.50 KCAL/MOL
REMARK 924 INTRA-LIGAND FREE ENERGY PREDICTED BY IDOCK:   -2.06 KCAL/MOL
REMARK 927      BINDING AFFINITY PREDICTED BY RF-SCORE:    0.00 PKD
ROOT
HETATM    1  C   UNL     1     -10.185   9.688  66.583  1.00  0.00    -0.302 C  
HETATM    2  C   UNL     1      -9.556  10.840  65.798  1.00  0.00    -0.254 C  
HETATM    3  C   UNL     1      -9.206  12.012  66.709  1.00  0.00    -0.201 C  
HETATM    4  N   UNL     1     -10.371  12.903  66.669  1.00  0.00    -0.248 NA 
HETATM    5  C   UNL     1     -10.565  13.961  64.468  1.00  0.00    -0.375 C  
HETATM    6  C   UNL     1     -11.034  12.767  65.322  1.00  0.00    -0.284 C  
HETATM    7  C   UNL     1     -10.499  11.426  64.749  1.00  0.00    -0.366 C  
HETATM    8  C   UNL     1     -12.561  12.725  65.199  1.00  0.00    -0.513 C  
ENDROOT
BRANCH   4   9
HETATM    9  C   UNL     1     -10.985  13.305  67.843  1.00  0.00    -0.249 A  
HETATM   10  N   UNL     1     -11.452  12.277  68.624  1.00  0.00    -0.281 NA 
HETATM   11  C   UNL     1     -12.033  12.465  69.843  1.00  0.00    -0.299 A  
HETATM   12  C   UNL     1     -12.182  13.731  70.357  1.00  0.00    -0.433 A  
HETATM   13  C   UNL     1     -11.128  14.634  68.305  1.00  0.00    -0.283 A  
HETATM   14  C   UNL     1     -11.719  14.807  69.586  1.00  0.00    -0.354 A  
BRANCH  11  15
HETATM   15  N   UNL     1     -12.476  11.311  70.600  1.00  0.00    -0.352 NA 
HETATM   16  C   UNL     1     -13.174  11.349  71.800  1.00  0.00    -0.367 A  
HETATM   17  C   UNL     1     -13.383  10.056  72.201  1.00  0.00    -0.469 A  
HETATM   18  N   UNL     1     -12.264  10.007  70.205  1.00  0.00    -0.115 NA 
HETATM   19  C   UNL     1     -12.802   9.283  71.195  1.00  0.00    -0.222 A  
BRANCH  19  20
HETATM   20  O   UNL     1     -12.787   7.932  71.221  1.00  0.00    -0.297 OA 
BRANCH  20  21
HETATM   21  C   UNL     1     -11.768   7.320  72.009  1.00  0.00    -0.292 C  
BRANCH  21  22
HETATM   22  C   UNL     1     -10.689   6.699  71.079  1.00  0.00    -0.278 C  
HETATM   23  F   UNL     1      -9.333   8.100  69.678  1.00  0.00    -0.155 F  
HETATM   24  F   UNL     1      -9.687   8.791  71.705  1.00  0.00    -0.256 F  
HETATM   25  C   UNL     1     -11.288   6.409  69.687  1.00  0.00    -0.479 C  
HETATM   26  C   UNL     1     -10.197   5.354  71.655  1.00  0.00    -0.268 C  
HETATM   27  C   UNL     1      -9.511   7.682  70.953  1.00  0.00    -0.164 C  
HETATM   28  F   UNL     1      -8.341   7.127  71.346  1.00  0.00    -0.109 F  
ENDBRANCH  21  22
ENDBRANCH  20  21
ENDBRANCH  19  20
ENDBRANCH  11  15
BRANCH  13  29
HETATM   29  C   UNL     1     -10.722  15.954  67.668  1.00  0.00    -0.312 C  
HETATM   30  H   UNL     1      -9.847  16.717  69.398  1.00  0.00     0.000 HD 
HETATM   31  N   UNL     1     -10.121  16.962  68.447  1.00  0.00    -0.286 N  
HETATM   32  O   UNL     1     -10.838  16.079  66.456  1.00  0.00    -0.276 OA 
BRANCH  31  33
HETATM   33  S   UNL     1      -9.818  18.553  67.935  1.00  0.00    -0.343 S  
HETATM   34  O   UNL     1     -11.029  19.059  67.341  1.00  0.00    -0.459 OA 
HETATM   35  O   UNL     1      -9.258  19.202  69.104  1.00  0.00    -0.280 OA 
BRANCH  33  36
HETATM   36  C   UNL     1      -8.602  18.782  66.707  1.00  0.00    -0.292 A  
HETATM   37  C   UNL     1      -8.256  19.983  66.102  1.00  0.00    -0.272 A  
HETATM   38  N   UNL     1      -7.189  19.727  65.294  1.00  0.00    -0.386 NA 
HETATM   39  N   UNL     1      -6.788  18.453  65.335  1.00  0.00    -0.524 NA 
HETATM   40  C   UNL     1      -6.429  20.635  64.469  1.00  0.00    -0.280 C  
HETATM   41  C   UNL     1      -7.589  17.873  66.241  1.00  0.00    -0.280 A  
HETATM   42  C   UNL     1      -7.206  16.480  66.607  1.00  0.00    -0.246 C  
ENDBRANCH  33  36
ENDBRANCH  31  33
ENDBRANCH  13  29
ENDBRANCH   4   9
TORSDOF 8
ENDMDL
MODEL        3
REMARK 921   NORMALIZED FREE ENERGY PREDICTED BY IDOCK:   -8.65 KCAL/MOL
REMARK 922        TOTAL FREE ENERGY PREDICTED BY IDOCK:  -14.33 KCAL/MOL
REMARK 923 INTER-LIGAND FREE ENERGY PREDICTED BY IDOCK:  -12.44 KCAL/MOL
REMARK 924 INTRA-LIGAND FREE ENERGY PREDICTED BY IDOCK:   -1.89 KCAL/MOL
REMARK 927      BINDING AFFINITY PREDICTED BY RF-SCORE:    0.00 PKD
ROOT
HETATM    1  C   UNL     1     -10.080   9.797  66.604  1.00  0.00    -0.303 C  
HETATM    2  C   UNL     1      -9.495  10.954  65.794  1.00  0.00    -0.246 C  
HETATM    3  C   UNL     1      -9.146  12.141  66.686  1.00  0.00    -0.206 C  
HETATM    4  N   UNL     1     -10.329  13.008  66.668  1.00  0.00    -0.256 NA 
HETATM    5  C   UNL     1     -10.600  14.042  64.464  1.00  0.00    -0.332 C  
HETATM    6  C   UNL     1     -11.023  12.847  65.339  1.00  0.00    -0.278 C  
HETATM    7  C   UNL     1     -10.475  11.512  64.764  1.00  0.00    -0.354 C  
HETATM    8  C   UNL     1     -12.551  12.773  65.255  1.00  0.00    -0.460 C  
ENDROOT
BRANCH   4   9
HETATM    9  C   UNL     1     -10.922  13.408  67.854  1.00  0.00    -0.256 A  
HETATM   10  N   UNL     1     -11.393  12.379  68.632  1.00  0.00    -0.264 NA 
HETATM   11  C   UNL     1     -11.955  12.564  69.860  1.00  0.00    -0.301 A  
HETATM   12  C   UNL     1     -12.080  13.828  70.387  1.00  0.00    -0.421 A  
HETATM   13  C   UNL     1     -11.040  14.734  68.330  1.00  0.00    -0.284 A  
HETATM   14  C   UNL     1     -11.613  14.903  69.619  1.00  0.00    -0.337 A  
BRANCH  11  15
HETATM   15  N   UNL     1     -12.403  11.409  70.613  1.00  0.00    -0.372 NA 
HETATM   16  C   UNL     1     -13.209  11.443  71.743  1.00  0.00    -0.367 A  
HETATM   17  C   UNL     1     -13.386  10.152  72.167  1.00  0.00    -0.431 A  
HETATM   18  N   UNL     1     -12.087  10.109  70.283  1.00  0.00    -0.237 NA 
HETATM   19  C   UNL     1     -12.674   9.384  71.244  1.00  0.00    -0.314 A  
BRANCH  19  20
HETATM   20  O   UNL     1     -12.590   8.037  71.318  1.00  0.00    -0.305 OA 
BRANCH  20  21
HETATM   21  C   UNL     1     -11.441   7.505  71.974  1.00  0.00    -0.279 C  
BRANCH  21  22
HETATM   22  C   UNL     1     -10.545   6.766  70.943  1.00  0.00    -0.252 C  
HETATM   23  F   UNL     1      -8.576   5.591  71.657  1.00  0.00    -0.124 F  
HETATM   24  F   UNL     1     -10.349   5.370  72.889  1.00  0.00    -0.191 F  
HETATM   25  C   UNL     1      -9.430   7.703  70.435  1.00  0.00    -0.164 C  
HETATM   26  C   UNL     1     -11.380   6.341  69.716  1.00  0.00    -0.506 C  
HETATM   27  C   UNL     1      -9.927   5.525  71.614  1.00  0.00    -0.182 C  
HETATM   28  F   UNL     1     -10.239   4.383  70.959  1.00  0.00    -0.264 F  
ENDBRANCH  21  22
ENDBRANCH  20  21
ENDBRANCH  19  20
ENDBRANCH  11  15
BRANCH  13  29
HETATM   29  C   UNL     1     -10.625  16.054  67.698  1.00  0.00    -0.309 C  
HETATM   30  H   UNL     1      -9.615  16.740  69.386  1.00  0.00     0.000 HD 
HETATM   31  N   UNL     1      -9.939  17.020  68.461  1.00  0.00    -0.276 N  
HETATM   32  O   UNL     1     -10.812  16.214  66.499  1.00  0.00    -0.262 OA 
BRANCH  31  33
HETATM   33  S   UNL     1      -9.607  18.611  67.967  1.00  0.00    -0.331 S  
HETATM   34  O   UNL     1     -10.824  19.163  67.429  1.00  0.00    -0.483 OA 
HETATM   35  O   UNL     1      -8.985  19.220  69.126  1.00  0.00    -0.286 OA 
BRANCH  33  36
HETATM   36  C   UNL     1      -8.432  18.829  66.699  1.00  0.00    -0.294 A  
HETATM   37  C   UNL     1      -8.130  20.018  66.049  1.00  0.00    -0.255 A  
HETATM   38  N   UNL     1      -7.080  19.761  65.219  1.00  0.00    -0.383 NA 
HETATM   39  N   UNL     1      -6.650  18.497  65.286  1.00  0.00    -0.485 NA 
HETATM   40  C   UNL     1      -6.364  20.659  64.345  1.00  0.00    -0.307 C  
HETATM   41  C   UNL     1      -7.412  17.928  66.231  1.00  0.00    -0.286 A  
HETATM   42  C   UNL     1      -6.988  16.555  66.627  1.00  0.00    -0.196 C  
ENDBRANCH  33  36
ENDBRANCH  31  33
ENDBRANCH  13  29
ENDBRANCH   4   9
TORSDOF 8
ENDMDL
MODEL        4
REMARK 921   NORMALIZED FREE ENERGY PREDICTED BY IDOCK:   -8.51 KCAL/MOL
REMARK 922        TOTAL FREE ENERGY PREDICTED BY IDOCK:  -14.12 KCAL/MOL
REMARK 923 INTER-LIGAND FREE ENERGY PREDICTED BY IDOCK:  -11.91 KCAL/MOL
REMARK 924 INTRA-LIGAND FREE ENERGY PREDICTED BY IDOCK:   -2.22 KCAL/MOL
REMARK 927      BINDING AFFINITY PREDICTED BY RF-SCORE:    0.00 PKD
ROOT
HETATM    1  C   UNL     1     -10.280   9.040  66.439  1.00  0.00    -0.297 C  
HETATM    2  C   UNL     1      -9.543  10.185  65.745  1.00  0.00    -0.288 C  
HETATM    3  C   UNL     1      -9.189  11.299  66.725  1.00  0.00    -0.175 C  
HETATM    4  N   UNL     1     -10.300  12.254  66.654  1.00  0.00    -0.213 NA 
HETATM    5  C   UNL     1     -10.300  13.408  64.494  1.00  0.00    -0.394 C  
HETATM    6  C   UNL     1     -10.884  12.209  65.265  1.00  0.00    -0.293 C  
HETATM    7  C   UNL     1     -10.385  10.864  64.667  1.00  0.00    -0.407 C  
HETATM    8  C   UNL     1     -12.401  12.257  65.048  1.00  0.00    -0.326 C  
ENDROOT
BRANCH   4   9
HETATM    9  C   UNL     1     -10.965  12.642  67.805  1.00  0.00    -0.234 A  
HETATM   10  N   UNL     1     -11.275  11.612  68.659  1.00  0.00    -0.227 NA 
HETATM   11  C   UNL     1     -11.876  11.797  69.869  1.00  0.00    -0.348 A  
HETATM   12  C   UNL     1     -12.208  13.060  70.298  1.00  0.00    -0.368 A  
HETATM   13  C   UNL     1     -11.299  13.964  68.178  1.00  0.00    -0.324 A  
HETATM   14  C   UNL     1     -11.908  14.136  69.451  1.00  0.00    -0.378 A  
BRANCH  11  15
HETATM   15  N   UNL     1     -12.144  10.645  70.708  1.00  0.00    -0.341 NA 
HETATM   16  C   UNL     1     -13.402  10.194  71.086  1.00  0.00    -0.295 A  
HETATM   17  C   UNL     1     -13.227   9.100  71.892  1.00  0.00    -0.479 A  
HETATM   18  N   UNL     1     -11.161   9.834  71.233  1.00  0.00    -0.370 NA 
HETATM   19  C   UNL     1     -11.843   8.932  71.952  1.00  0.00    -0.370 A  
BRANCH  19  20
HETATM   20  O   UNL     1     -11.252   7.950  72.668  1.00  0.00    -0.344 OA 
BRANCH  20  21
HETATM   21  C   UNL     1     -11.553   6.610  72.281  1.00  0.00    -0.278 C  
BRANCH  21  22
HETATM   22  C   UNL     1     -10.340   5.997  71.528  1.00  0.00    -0.261 C  
HETATM   23  F   UNL     1     -10.661   4.788  69.479  1.00  0.00    -0.281 F  
HETATM   24  F   UNL     1     -11.807   6.614  69.728  1.00  0.00    -0.392 F  
HETATM   25  C   UNL     1     -10.102   4.545  71.992  1.00  0.00    -0.264 C  
HETATM   26  C   UNL     1      -9.057   6.795  71.844  1.00  0.00    -0.142 C  
HETATM   27  C   UNL     1     -10.623   6.030  70.015  1.00  0.00    -0.274 C  
HETATM   28  F   UNL     1      -9.675   6.716  69.335  1.00  0.00    -0.147 F  
ENDBRANCH  21  22
ENDBRANCH  20  21
ENDBRANCH  19  20
ENDBRANCH  11  15
BRANCH  13  29
HETATM   29  C   UNL     1     -11.091  15.282  67.448  1.00  0.00    -0.326 C  
HETATM   30  H   UNL     1      -9.205  15.631  68.261  1.00  0.00     0.000 HD 
HETATM   31  N   UNL     1      -9.940  16.056  67.696  1.00  0.00    -0.236 N  
HETATM   32  O   UNL     1     -11.891  15.602  66.578  1.00  0.00     0.273 OA 
BRANCH  31  33
HETATM   33  S   UNL     1      -9.675  17.635  67.131  1.00  0.00    -0.302 S  
HETATM   34  O   UNL     1      -9.534  17.569  65.699  1.00  0.00    -0.498 OA 
HETATM   35  O   UNL     1     -10.753  18.408  67.718  1.00  0.00    -0.414 OA 
BRANCH  33  36
HETATM   36  C   UNL     1      -8.233  18.450  67.674  1.00  0.00    -0.254 A  
HETATM   37  C   UNL     1      -8.120  19.273  68.787  1.00  0.00    -0.356 A  
HETATM   38  N   UNL     1      -6.802  19.600  68.905  1.00  0.00    -0.329 NA 
HETATM   39  N   UNL     1      -6.031  19.040  67.968  1.00  0.00    -0.202 NA 
HETATM   40  C   UNL     1      -6.146  20.405  69.908  1.00  0.00    -0.313 C  
HETATM   41  C   UNL     1      -6.870  18.279  67.248  1.00  0.00    -0.196 A  
HETATM   42  C   UNL     1      -6.204  17.393  66.251  1.00  0.00    -0.241 C  
ENDBRANCH  33  36
ENDBRANCH  31  33
ENDBRANCH  13  29
ENDBRANCH   4   9
TORSDOF 8
ENDMDL
MODEL        5
REMARK 921   NORMALIZED FREE ENERGY PREDICTED BY IDOCK:   -8.40 KCAL/MOL
REMARK 922        TOTAL FREE ENERGY PREDICTED BY IDOCK:  -13.96 KCAL/MOL
REMARK 923 INTER-LIGAND FREE ENERGY PREDICTED BY IDOCK:  -12.14 KCAL/MOL
REMARK 924 INTRA-LIGAND FREE ENERGY PREDICTED BY IDOCK:   -1.82 KCAL/MOL
REMARK 927      BINDING AFFINITY PREDICTED BY RF-SCORE:    0.00 PKD
ROOT
HETATM    1  C   UNL     1      -9.628  10.122  64.720  1.00  0.00    -0.378 C  
HETATM    2  C   UNL     1      -9.446   9.084  65.828  1.00  0.00    -0.305 C  
HETATM    3  C   UNL     1     -10.523   9.215  66.900  1.00  0.00    -0.217 C  
HETATM    4  N   UNL     1      -9.954  10.096  67.925  1.00  0.00    -0.158 NA 
HETATM    5  C   UNL     1      -8.136   8.963  69.113  1.00  0.00    -0.117 C  
HETATM    6  C   UNL     1      -8.457   9.910  67.941  1.00  0.00    -0.121 C  
HETATM    7  C   UNL     1      -8.126   9.243  66.577  1.00  0.00    -0.104 C  
HETATM    8  C   UNL     1      -7.518  11.111  68.089  1.00  0.00    -0.093 C  
ENDROOT
BRANCH   4   9
HETATM    9  C   UNL     1     -10.639  11.227  68.335  1.00  0.00    -0.197 A  
HETATM   10  N   UNL     1     -10.534  12.298  67.482  1.00  0.00    -0.211 NA 
HETATM   11  C   UNL     1     -11.183  13.481  67.680  1.00  0.00    -0.279 A  
HETATM   12  C   UNL     1     -11.993  13.657  68.777  1.00  0.00    -0.394 A  
HETATM   13  C   UNL     1     -11.440  11.352  69.494  1.00  0.00    -0.381 A  
HETATM   14  C   UNL     1     -12.121  12.586  69.672  1.00  0.00    -0.272 A  
BRANCH  11  15
HETATM   15  N   UNL     1     -11.024  14.545  66.709  1.00  0.00    -0.309 NA 
HETATM   16  C   UNL     1     -11.469  14.516  65.394  1.00  0.00    -0.348 A  
HETATM   17  C   UNL     1     -11.106  15.698  64.805  1.00  0.00    -0.426 A  
HETATM   18  N   UNL     1     -10.408  15.748  66.984  1.00  0.00    -0.286 NA 
HETATM   19  C   UNL     1     -10.456  16.404  65.818  1.00  0.00    -0.354 A  
BRANCH  19  20
HETATM   20  O   UNL     1      -9.930  17.636  65.635  1.00  0.00    -0.558 OA 
BRANCH  20  21
HETATM   21  C   UNL     1      -8.764  17.950  66.392  1.00  0.00    -0.224 C  
BRANCH  21  22
HETATM   22  C   UNL     1      -8.929  19.347  67.052  1.00  0.00    -0.350 C  
HETATM   23  F   UNL     1     -10.286  19.616  69.015  1.00  0.00    -0.488 F  
HETATM   24  F   UNL     1      -8.999  17.870  68.947  1.00  0.00    -0.282 F  
HETATM   25  C   UNL     1     -10.163  20.069  66.473  1.00  0.00    -0.598 C  
HETATM   26  C   UNL     1      -7.699  20.229  66.752  1.00  0.00    -0.333 C  
HETATM   27  C   UNL     1      -9.088  19.166  68.573  1.00  0.00    -0.371 C  
HETATM   28  F   UNL     1      -8.141  19.838  69.268  1.00  0.00    -0.353 F  
ENDBRANCH  21  22
ENDBRANCH  20  21
ENDBRANCH  19  20
ENDBRANCH  11  15
BRANCH  13  29
HETATM   29  C   UNL     1     -11.734  10.357  70.607  1.00  0.00    -0.351 C  
HETATM   30  H   UNL     1     -10.394   8.922  69.911  1.00  0.00     0.000 HD 
HETATM   31  N   UNL     1     -11.129   9.085  70.598  1.00  0.00    -0.254 N  
HETATM   32  O   UNL     1     -12.423  10.721  71.551  1.00  0.00    -0.369 OA 
BRANCH  31  33
HETATM   33  S   UNL     1     -11.522   7.800  71.637  1.00  0.00    -0.272 S  
HETATM   34  O   UNL     1     -11.046   8.143  72.954  1.00  0.00    -0.373 OA 
HETATM   35  O   UNL     1     -12.938   7.583  71.413  1.00  0.00    -0.351 OA 
BRANCH  33  36
HETATM   36  C   UNL     1     -10.802   6.249  71.304  1.00  0.00    -0.265 A  
HETATM   37  C   UNL     1     -10.547   5.243  72.225  1.00  0.00    -0.222 A  
HETATM   38  N   UNL     1     -10.091   4.168  71.522  1.00  0.00    -0.156 NA 
HETATM   39  N   UNL     1     -10.045   4.378  70.203  1.00  0.00    -0.176 NA 
HETATM   40  C   UNL     1      -9.713   2.858  71.997  1.00  0.00    -0.160 C  
HETATM   41  C   UNL     1     -10.539   5.614  70.039  1.00  0.00    -0.318 A  
HETATM   42  C   UNL     1     -10.773   6.007  68.620  1.00  0.00    -0.363 C  
ENDBRANCH  33  36
ENDBRANCH  31  33
ENDBRANCH  13  29
ENDBRANCH   4   9
TORSDOF 8
ENDMDL
MODEL        6
REMARK 921   NORMALIZED FREE ENERGY PREDICTED BY IDOCK:   -7.69 KCAL/MOL
REMARK 922        TOTAL FREE ENERGY PREDICTED BY IDOCK:  -12.91 KCAL/MOL
REMARK 923 INTER-LIGAND FREE ENERGY PREDICTED BY IDOCK:  -10.96 KCAL/MOL
REMARK 924 INTRA-LIGAND FREE ENERGY PREDICTED BY IDOCK:   -1.95 KCAL/MOL
REMARK 927      BINDING AFFINITY PREDICTED BY RF-SCORE:    0.00 PKD
ROOT
HETATM    1  C   UNL     1     -12.080  12.039  64.320  1.00  0.00    -0.414 C  
HETATM    2  C   UNL     1     -11.588  13.482  64.213  1.00  0.00    -0.433 C  
HETATM    3  C   UNL     1     -10.116  13.601  64.593  1.00  0.00    -0.197 C  
HETATM    4  N   UNL     1     -10.102  13.928  66.022  1.00  0.00    -0.304 NA 
HETATM    5  C   UNL     1     -10.946  16.198  66.390  1.00  0.00    -0.036 C  
HETATM    6  C   UNL     1     -11.349  14.712  66.348  1.00  0.00    -0.348 C  
HETATM    7  C   UNL     1     -12.316  14.428  65.166  1.00  0.00    -0.383 C  
HETATM    8  C   UNL     1     -12.132  14.442  67.637  1.00  0.00    -0.312 C  
ENDROOT
BRANCH   4   9
HETATM    9  C   UNL     1      -9.368  13.159  66.910  1.00  0.00    -0.246 A  
HETATM   10  N   UNL     1      -9.785  11.855  67.014  1.00  0.00    -0.192 NA 
HETATM   11  C   UNL     1      -9.156  10.926  67.789  1.00  0.00    -0.149 A  
HETATM   12  C   UNL     1      -8.044  11.268  68.523  1.00  0.00    -0.148 A  
HETATM   13  C   UNL     1      -8.243  13.579  67.656  1.00  0.00    -0.178 A  
HETATM   14  C   UNL     1      -7.591  12.591  68.442  1.00  0.00    -0.129 A  
BRANCH  11  15
HETATM   15  N   UNL     1      -9.663   9.568  67.817  1.00  0.00    -0.143 NA 
HETATM   16  C   UNL     1      -9.788   8.728  66.718  1.00  0.00    -0.247 A  
HETATM   17  C   UNL     1     -10.323   7.546  67.157  1.00  0.00    -0.384 A  
HETATM   18  N   UNL     1     -10.079   8.929  68.965  1.00  0.00    -0.192 NA 
HETATM   19  C   UNL     1     -10.486   7.729  68.531  1.00  0.00    -0.168 A  
BRANCH  19  20
HETATM   20  O   UNL     1     -11.005   6.780  69.342  1.00  0.00    -0.258 OA 
BRANCH  20  21
HETATM   21  C   UNL     1     -10.324   6.555  70.576  1.00  0.00    -0.201 C  
BRANCH  21  22
HETATM   22  C   UNL     1     -11.322   6.701  71.758  1.00  0.00    -0.320 C  
HETATM   23  F   UNL     1     -10.630   7.715  73.821  1.00  0.00    -0.386 F  
HETATM   24  F   UNL     1      -9.958   8.666  71.989  1.00  0.00    -0.293 F  
HETATM   25  C   UNL     1     -11.234   5.472  72.686  1.00  0.00    -0.348 C  
HETATM   26  C   UNL     1     -12.771   6.772  71.229  1.00  0.00    -0.299 C  
HETATM   27  C   UNL     1     -10.985   7.982  72.542  1.00  0.00    -0.364 C  
HETATM   28  F   UNL     1     -12.034   8.835  72.601  1.00  0.00    -0.424 F  
ENDBRANCH  21  22
ENDBRANCH  20  21
ENDBRANCH  19  20
ENDBRANCH  11  15
BRANCH  13  29
HETATM   29  C   UNL     1      -7.566  14.938  67.747  1.00  0.00    -0.156 C  
HETATM   30  H   UNL     1      -8.101  15.525  65.821  1.00  0.00     0.000 HD 
HETATM   31  N   UNL     1      -7.536  15.792  66.627  1.00  0.00    -0.145 N  
HETATM   32  O   UNL     1      -7.140  15.308  68.833  1.00  0.00    -0.115 OA 
BRANCH  31  33
HETATM   33  S   UNL     1      -6.639  17.229  66.508  1.00  0.00    -0.254 S  
HETATM   34  O   UNL     1      -5.252  16.866  66.357  1.00  0.00    -0.351 OA 
HETATM   35  O   UNL     1      -7.309  17.981  65.464  1.00  0.00    -0.539 OA 
BRANCH  33  36
HETATM   36  C   UNL     1      -6.661  18.305  67.878  1.00  0.00    -0.203 A  
HETATM   37  C   UNL     1      -5.562  18.927  68.456  1.00  0.00    -0.197 A  
HETATM   38  N   UNL     1      -6.042  19.764  69.419  1.00  0.00    -0.284 NA 
HETATM   39  N   UNL     1      -7.376  19.760  69.508  1.00  0.00    -0.210 NA 
HETATM   40  C   UNL     1      -5.323  20.663  70.290  1.00  0.00    -0.306 C  
HETATM   41  C   UNL     1      -7.779  18.931  68.533  1.00  0.00    -0.331 A  
HETATM   42  C   UNL     1      -9.251  18.912  68.303  1.00  0.00    -0.373 C  
ENDBRANCH  33  36
ENDBRANCH  31  33
ENDBRANCH  13  29
ENDBRANCH   4   9
TORSDOF 8
ENDMDL
MODEL        7
REMARK 921   NORMALIZED FREE ENERGY PREDICTED BY IDOCK:   -7.56 KCAL/MOL
REMARK 922        TOTAL FREE ENERGY PREDICTED BY IDOCK:  -12.72 KCAL/MOL
REMARK 923 INTER-LIGAND FREE ENERGY PREDICTED BY IDOCK:  -10.76 KCAL/MOL
REMARK 924 INTRA-LIGAND FREE ENERGY PREDICTED BY IDOCK:   -1.97 KCAL/MOL
REMARK 927      BINDING AFFINITY PREDICTED BY RF-SCORE:    0.00 PKD
ROOT
HETATM    1  C   UNL     1     -10.057  10.758  66.308  1.00  0.00    -0.285 C  
HETATM    2  C   UNL     1      -9.634   9.334  66.668  1.00  0.00    -0.263 C  
HETATM    3  C   UNL     1     -10.653   8.662  67.582  1.00  0.00    -0.203 C  
HETATM    4  N   UNL     1     -10.186   8.918  68.949  1.00  0.00    -0.202 NA 
HETATM    5  C   UNL     1      -8.133   7.659  69.401  1.00  0.00    -0.127 C  
HETATM    6  C   UNL     1      -8.681   9.020  68.931  1.00  0.00    -0.136 C  
HETATM    7  C   UNL     1      -8.319   9.284  67.443  1.00  0.00    -0.122 C  
HETATM    8  C   UNL     1      -7.956  10.085  69.760  1.00  0.00    -0.190 C  
ENDROOT
BRANCH   4   9
HETATM    9  C   UNL     1     -11.030   9.496  69.881  1.00  0.00    -0.238 A  
HETATM   10  N   UNL     1     -11.209  10.849  69.727  1.00  0.00    -0.270 NA 
HETATM   11  C   UNL     1     -12.047  11.588  70.508  1.00  0.00    -0.378 A  
HETATM   12  C   UNL     1     -12.770  10.992  71.515  1.00  0.00    -0.521 A  
HETATM   13  C   UNL     1     -11.729   8.827  70.912  1.00  0.00    -0.299 A  
HETATM   14  C   UNL     1     -12.611   9.612  71.702  1.00  0.00    -0.493 A  
BRANCH  11  15
HETATM   15  N   UNL     1     -12.182  13.009  70.253  1.00  0.00    -0.329 NA 
HETATM   16  C   UNL     1     -12.770  13.933  71.107  1.00  0.00    -0.367 A  
HETATM   17  C   UNL     1     -12.719  15.157  70.494  1.00  0.00    -0.416 A  
HETATM   18  N   UNL     1     -11.720  13.629  69.112  1.00  0.00    -0.307 NA 
HETATM   19  C   UNL     1     -12.076  14.910  69.280  1.00  0.00    -0.251 A  
BRANCH  19  20
HETATM   20  O   UNL     1     -11.835  15.875  68.365  1.00  0.00    -0.322 OA 
BRANCH  20  21
HETATM   21  C   UNL     1     -10.540  16.473  68.394  1.00  0.00    -0.323 C  
BRANCH  21  22
HETATM   22  C   UNL     1      -9.970  16.555  66.952  1.00  0.00    -0.273 C  
HETATM   23  F   UNL     1     -11.016  17.952  65.303  1.00  0.00    -0.416 F  
HETATM   24  F   UNL     1     -10.812  18.778  67.301  1.00  0.00    -0.452 F  
HETATM   25  C   UNL     1     -10.649  15.504  66.048  1.00  0.00    -0.333 C  
HETATM   26  C   UNL     1      -8.457  16.246  66.957  1.00  0.00    -0.232 C  
HETATM   27  C   UNL     1     -10.217  17.969  66.396  1.00  0.00    -0.393 C  
HETATM   28  F   UNL     1      -9.067  18.579  66.025  1.00  0.00    -0.278 F  
ENDBRANCH  21  22
ENDBRANCH  20  21
ENDBRANCH  19  20
ENDBRANCH  11  15
BRANCH  13  29
HETATM   29  C   UNL     1     -11.726   7.362  71.322  1.00  0.00    -0.289 C  
HETATM   30  H   UNL     1     -11.107   7.733  73.277  1.00  0.00     0.000 HD 
HETATM   31  N   UNL     1     -11.282   6.986  72.605  1.00  0.00    -0.276 N  
HETATM   32  O   UNL     1     -12.206   6.538  70.555  1.00  0.00    -0.325 OA 
BRANCH  31  33
HETATM   33  S   UNL     1     -11.014   5.392  73.127  1.00  0.00    -0.309 S  
HETATM   34  O   UNL     1     -10.235   5.454  74.337  1.00  0.00    -0.238 OA 
HETATM   35  O   UNL     1     -12.337   4.798  73.147  1.00  0.00     0.025 OA 
BRANCH  33  36
HETATM   36  C   UNL     1     -10.101   4.346  72.074  1.00  0.00    -0.186 A  
HETATM   37  C   UNL     1      -9.164   4.741  71.129  1.00  0.00    -0.142 A  
HETATM   38  N   UNL     1      -8.613   3.604  70.618  1.00  0.00    -0.069 NA 
HETATM   39  N   UNL     1      -9.098   2.487  71.169  1.00  0.00    -0.099 NA 
HETATM   40  C   UNL     1      -7.571   3.457  69.630  1.00  0.00    -0.044 C  
HETATM   41  C   UNL     1      -9.955   2.915  72.107  1.00  0.00    -0.165 A  
HETATM   42  C   UNL     1     -10.486   1.844  72.999  1.00  0.00    -0.223 C  
ENDBRANCH  33  36
ENDBRANCH  31  33
ENDBRANCH  13  29
ENDBRANCH   4   9
TORSDOF 8
ENDMDL
MODEL        8
REMARK 921   NORMALIZED FREE ENERGY PREDICTED BY IDOCK:   -7.49 KCAL/MOL
REMARK 922        TOTAL FREE ENERGY PREDICTED BY IDOCK:  -12.62 KCAL/MOL
REMARK 923 INTER-LIGAND FREE ENERGY PREDICTED BY IDOCK:  -10.96 KCAL/MOL
REMARK 924 INTRA-LIGAND FREE ENERGY PREDICTED BY IDOCK:   -1.67 KCAL/MOL
REMARK 927      BINDING AFFINITY PREDICTED BY RF-SCORE:    0.00 PKD
ROOT
HETATM    1  C   UNL     1      -9.665   9.766  66.963  1.00  0.00    -0.233 C  
HETATM    2  C   UNL     1      -9.166  10.880  66.043  1.00  0.00    -0.210 C  
HETATM    3  C   UNL     1      -8.771  12.123  66.833  1.00  0.00    -0.194 C  
HETATM    4  N   UNL     1      -9.968  12.971  66.857  1.00  0.00    -0.238 NA 
HETATM    5  C   UNL     1     -10.429  13.866  64.624  1.00  0.00    -0.419 C  
HETATM    6  C   UNL     1     -10.761  12.720  65.599  1.00  0.00    -0.273 C  
HETATM    7  C   UNL     1     -10.233  11.360  65.062  1.00  0.00    -0.333 C  
HETATM    8  C   UNL     1     -12.289  12.619  65.640  1.00  0.00    -0.390 C  
ENDROOT
BRANCH   4   9
HETATM    9  C   UNL     1     -10.475  13.433  68.060  1.00  0.00    -0.239 A  
HETATM   10  N   UNL     1     -11.093  12.474  68.824  1.00  0.00    -0.257 NA 
HETATM   11  C   UNL     1     -11.603  12.719  70.065  1.00  0.00    -0.120 A  
HETATM   12  C   UNL     1     -11.518  13.974  70.620  1.00  0.00    -0.003 A  
HETATM   13  C   UNL     1     -10.373  14.750  68.565  1.00  0.00    -0.237 A  
HETATM   14  C   UNL     1     -10.894  14.979  69.867  1.00  0.00    -0.266 A  
BRANCH  11  15
HETATM   15  N   UNL     1     -12.221  11.633  70.802  1.00  0.00    -0.375 NA 
HETATM   16  C   UNL     1     -13.376  11.728  71.566  1.00  0.00    -0.037 A  
HETATM   17  C   UNL     1     -13.615  10.495  72.113  1.00  0.00    -0.167 A  
HETATM   18  N   UNL     1     -11.731  10.345  70.822  1.00  0.00    -0.347 NA 
HETATM   19  C   UNL     1     -12.577   9.695  71.632  1.00  0.00    -0.402 A  
BRANCH  19  20
HETATM   20  O   UNL     1     -12.445   8.390  71.954  1.00  0.00    -0.311 OA 
BRANCH  20  21
HETATM   21  C   UNL     1     -11.735   7.572  71.025  1.00  0.00    -0.292 C  
BRANCH  21  22
HETATM   22  C   UNL     1     -10.602   6.806  71.762  1.00  0.00    -0.237 C  
HETATM   23  F   UNL     1     -11.035   5.696  73.847  1.00  0.00    -0.290 F  
HETATM   24  F   UNL     1     -12.544   5.497  72.299  1.00  0.00    -0.131 F  
HETATM   25  C   UNL     1      -9.886   7.741  72.759  1.00  0.00    -0.307 C  
HETATM   26  C   UNL     1      -9.543   6.317  70.751  1.00  0.00    -0.193 C  
HETATM   27  C   UNL     1     -11.213   5.606  72.508  1.00  0.00    -0.293 C  
HETATM   28  F   UNL     1     -10.661   4.432  72.122  1.00  0.00    -0.239 F  
ENDBRANCH  21  22
ENDBRANCH  20  21
ENDBRANCH  19  20
ENDBRANCH  11  15
BRANCH  13  29
HETATM   29  C   UNL     1      -9.760  16.001  67.954  1.00  0.00    -0.220 C  
HETATM   30  H   UNL     1     -11.383  17.226  68.410  1.00  0.00     0.000 HD 
HETATM   31  N   UNL     1     -10.500  17.199  67.902  1.00  0.00    -0.355 N  
HETATM   32  O   UNL     1      -8.588  15.968  67.603  1.00  0.00    -0.163 OA 
BRANCH  31  33
HETATM   33  S   UNL     1     -10.042  18.603  67.063  1.00  0.00    -0.387 S  
HETATM   34  O   UNL     1      -9.705  18.216  65.716  1.00  0.00    -0.503 OA 
HETATM   35  O   UNL     1     -11.131  19.530  67.299  1.00  0.00    -0.444 OA 
BRANCH  33  36
HETATM   36  C   UNL     1      -8.634  19.457  67.635  1.00  0.00    -0.305 A  
HETATM   37  C   UNL     1      -8.116  19.424  68.923  1.00  0.00    -0.309 A  
HETATM   38  N   UNL     1      -6.955  20.137  68.901  1.00  0.00    -0.243 NA 
HETATM   39  N   UNL     1      -6.653  20.620  67.692  1.00  0.00    -0.289 NA 
HETATM   40  C   UNL     1      -6.013  20.384  69.967  1.00  0.00    -0.337 C  
HETATM   41  C   UNL     1      -7.625  20.161  66.890  1.00  0.00    -0.292 A  
HETATM   42  C   UNL     1      -7.401  20.409  65.437  1.00  0.00    -0.078 C  
ENDBRANCH  33  36
ENDBRANCH  31  33
ENDBRANCH  13  29
ENDBRANCH   4   9
TORSDOF 8
ENDMDL
MODEL        9
REMARK 921   NORMALIZED FREE ENERGY PREDICTED BY IDOCK:   -7.48 KCAL/MOL
REMARK 922        TOTAL FREE ENERGY PREDICTED BY IDOCK:  -12.60 KCAL/MOL
REMARK 923 INTER-LIGAND FREE ENERGY PREDICTED BY IDOCK:  -11.25 KCAL/MOL
REMARK 924 INTRA-LIGAND FREE ENERGY PREDICTED BY IDOCK:   -1.35 KCAL/MOL
REMARK 927      BINDING AFFINITY PREDICTED BY RF-SCORE:    0.00 PKD
ROOT
HETATM    1  C   UNL     1     -11.611  14.551  64.544  1.00  0.00    -0.385 C  
HETATM    2  C   UNL     1     -11.573  13.034  64.361  1.00  0.00    -0.418 C  
HETATM    3  C   UNL     1     -12.396  12.321  65.429  1.00  0.00    -0.092 C  
HETATM    4  N   UNL     1     -11.451  12.000  66.504  1.00  0.00    -0.418 NA 
HETATM    5  C   UNL     1      -9.881  10.267  65.775  1.00  0.00    -0.320 C  
HETATM    6  C   UNL     1     -10.086  11.788  65.898  1.00  0.00    -0.234 C  
HETATM    7  C   UNL     1     -10.167  12.456  64.497  1.00  0.00    -0.325 C  
HETATM    8  C   UNL     1      -8.829  12.338  66.580  1.00  0.00    -0.167 C  
ENDROOT
BRANCH   4   9
HETATM    9  C   UNL     1     -11.712  12.392  67.806  1.00  0.00    -0.350 A  
HETATM   10  N   UNL     1     -12.002  11.361  68.665  1.00  0.00    -0.517 NA 
HETATM   11  C   UNL     1     -12.229  11.537  69.998  1.00  0.00    -0.278 A  
HETATM   12  C   UNL     1     -12.177  12.793  70.554  1.00  0.00    -0.389 A  
HETATM   13  C   UNL     1     -11.663  13.712  68.312  1.00  0.00    -0.398 A  
HETATM   14  C   UNL     1     -11.885  13.870  69.707  1.00  0.00    -0.390 A  
BRANCH  11  15
HETATM   15  N   UNL     1     -12.509  10.380  70.826  1.00  0.00    -0.341 NA 
HETATM   16  C   UNL     1     -13.360  10.357  71.923  1.00  0.00    -0.364 A  
HETATM   17  C   UNL     1     -13.334   9.089  72.442  1.00  0.00    -0.516 A  
HETATM   18  N   UNL     1     -11.962   9.133  70.611  1.00  0.00    -0.189 NA 
HETATM   19  C   UNL     1     -12.461   8.391  71.607  1.00  0.00    -0.328 A  
BRANCH  19  20
HETATM   20  O   UNL     1     -12.153   7.088  71.790  1.00  0.00    -0.303 OA 
BRANCH  20  21
HETATM   21  C   UNL     1     -11.081   6.806  72.688  1.00  0.00    -0.265 C  
BRANCH  21  22
HETATM   22  C   UNL     1      -9.896   6.176  71.906  1.00  0.00    -0.176 C  
HETATM   23  F   UNL     1      -8.659   7.475  70.310  1.00  0.00    -0.135 F  
HETATM   24  F   UNL     1      -9.184   8.455  72.175  1.00  0.00    -0.212 F  
HETATM   25  C   UNL     1     -10.393   5.576  70.574  1.00  0.00    -0.342 C  
HETATM   26  C   UNL     1      -9.269   5.025  72.721  1.00  0.00    -0.144 C  
HETATM   27  C   UNL     1      -8.841   7.264  71.634  1.00  0.00    -0.117 C  
HETATM   28  F   UNL     1      -7.631   6.939  72.145  1.00  0.00    -0.088 F  
ENDBRANCH  21  22
ENDBRANCH  20  21
ENDBRANCH  19  20
ENDBRANCH  11  15
BRANCH  13  29
HETATM   29  C   UNL     1     -11.379  15.032  67.612  1.00  0.00    -0.334 C  
HETATM   30  H   UNL     1      -9.327  14.973  67.964  1.00  0.00     0.000 HD 
HETATM   31  N   UNL     1     -10.076  15.567  67.611  1.00  0.00    -0.241 N  
HETATM   32  O   UNL     1     -12.279  15.562  66.974  1.00  0.00     0.457 OA 
BRANCH  31  33
HETATM   33  S   UNL     1      -9.650  17.120  67.070  1.00  0.00    -0.269 S  
HETATM   34  O   UNL     1      -9.444  17.044  65.646  1.00  0.00    -0.526 OA 
HETATM   35  O   UNL     1     -10.686  17.980  67.607  1.00  0.00    -0.415 OA 
BRANCH  33  36
HETATM   36  C   UNL     1      -8.173  17.808  67.688  1.00  0.00    -0.230 A  
HETATM   37  C   UNL     1      -8.047  19.006  68.378  1.00  0.00    -0.346 A  
HETATM   38  N   UNL     1      -6.746  19.100  68.773  1.00  0.00    -0.283 NA 
HETATM   39  N   UNL     1      -6.006  18.046  68.416  1.00  0.00    -0.173 NA 
HETATM   40  C   UNL     1      -6.098  20.132  69.546  1.00  0.00    -0.340 C  
HETATM   41  C   UNL     1      -6.869  17.213  67.815  1.00  0.00    -0.152 A  
HETATM   42  C   UNL     1      -6.314  15.867  67.497  1.00  0.00    -0.198 C  
ENDBRANCH  33  36
ENDBRANCH  31  33
ENDBRANCH  13  29
ENDBRANCH   4   9
TORSDOF 8
ENDMDL
MODEL       10
REMARK 921   NORMALIZED FREE ENERGY PREDICTED BY IDOCK:   -7.48 KCAL/MOL
REMARK 922        TOTAL FREE ENERGY PREDICTED BY IDOCK:  -12.60 KCAL/MOL
REMARK 923 INTER-LIGAND FREE ENERGY PREDICTED BY IDOCK:  -10.62 KCAL/MOL
REMARK 924 INTRA-LIGAND FREE ENERGY PREDICTED BY IDOCK:   -1.98 KCAL/MOL
REMARK 927      BINDING AFFINITY PREDICTED BY RF-SCORE:    0.00 PKD
ROOT
HETATM    1  C   UNL     1      -9.642  11.477  66.671  1.00  0.00    -0.215 C  
HETATM    2  C   UNL     1      -9.545   9.955  66.774  1.00  0.00    -0.231 C  
HETATM    3  C   UNL     1     -10.767   9.363  67.469  1.00  0.00    -0.222 C  
HETATM    4  N   UNL     1     -10.407   9.268  68.887  1.00  0.00    -0.210 NA 
HETATM    5  C   UNL     1      -8.698   7.545  69.224  1.00  0.00    -0.136 C  
HETATM    6  C   UNL     1      -8.918   9.052  68.992  1.00  0.00    -0.140 C  
HETATM    7  C   UNL     1      -8.355   9.492  67.612  1.00  0.00    -0.125 C  
HETATM    8  C   UNL     1      -8.092   9.776  70.060  1.00  0.00    -0.203 C  
ENDROOT
BRANCH   4   9
HETATM    9  C   UNL     1     -11.217   9.837  69.855  1.00  0.00    -0.229 A  
HETATM   10  N   UNL     1     -11.369  11.197  69.744  1.00  0.00    -0.274 NA 
HETATM   11  C   UNL     1     -12.173  11.931  70.565  1.00  0.00    -0.336 A  
HETATM   12  C   UNL     1     -12.887  11.321  71.570  1.00  0.00    -0.519 A  
HETATM   13  C   UNL     1     -11.907   9.153  70.882  1.00  0.00    -0.327 A  
HETATM   14  C   UNL     1     -12.754   9.934  71.715  1.00  0.00    -0.523 A  
BRANCH  11  15
HETATM   15  N   UNL     1     -12.282  13.361  70.354  1.00  0.00    -0.356 NA 
HETATM   16  C   UNL     1     -13.047  14.236  71.114  1.00  0.00    -0.343 A  
HETATM   17  C   UNL     1     -12.898  15.489  70.581  1.00  0.00    -0.466 A  
HETATM   18  N   UNL     1     -11.614  14.042  69.358  1.00  0.00    -0.278 NA 
HETATM   19  C   UNL     1     -12.021  15.308  69.510  1.00  0.00    -0.330 A  
BRANCH  19  20
HETATM   20  O   UNL     1     -11.622  16.320  68.708  1.00  0.00    -0.342 OA 
BRANCH  20  21
HETATM   21  C   UNL     1     -10.626  17.195  69.234  1.00  0.00    -0.220 C  
BRANCH  21  22
HETATM   22  C   UNL     1      -9.596  17.542  68.124  1.00  0.00    -0.294 C  
HETATM   23  F   UNL     1      -9.543  19.737  67.151  1.00  0.00    -0.370 F  
HETATM   24  F   UNL     1      -9.805  19.626  69.303  1.00  0.00    -0.460 F  
HETATM   25  C   UNL     1     -10.201  17.272  66.730  1.00  0.00    -0.318 C  
HETATM   26  C   UNL     1      -8.343  16.651  68.260  1.00  0.00    -0.198 C  
HETATM   27  C   UNL     1      -9.203  19.026  68.251  1.00  0.00    -0.334 C  
HETATM   28  F   UNL     1      -7.871  19.187  68.421  1.00  0.00    -0.308 F  
ENDBRANCH  21  22
ENDBRANCH  20  21
ENDBRANCH  19  20
ENDBRANCH  11  15
BRANCH  13  29
HETATM   29  C   UNL     1     -11.928   7.677  71.250  1.00  0.00    -0.306 C  
HETATM   30  H   UNL     1     -10.203   7.768  72.415  1.00  0.00     0.000 HD 
HETATM   31  N   UNL     1     -10.880   7.122  72.011  1.00  0.00    -0.218 N  
HETATM   32  O   UNL     1     -12.914   7.014  70.956  1.00  0.00    -0.326 OA 
BRANCH  31  33
HETATM   33  S   UNL     1     -10.651   5.466  72.310  1.00  0.00    -0.230 S  
HETATM   34  O   UNL     1     -11.763   5.008  73.104  1.00  0.00    -0.313 OA 
HETATM   35  O   UNL     1     -10.415   4.897  70.997  1.00  0.00    -0.189 OA 
BRANCH  33  36
HETATM   36  C   UNL     1      -9.242   5.003  73.226  1.00  0.00    -0.128 A  
HETATM   37  C   UNL     1      -8.547   3.806  73.122  1.00  0.00    -0.094 A  
HETATM   38  N   UNL     1      -7.455   3.910  73.930  1.00  0.00    -0.069 NA 
HETATM   39  N   UNL     1      -7.362   5.094  74.544  1.00  0.00    -0.082 NA 
HETATM   40  C   UNL     1      -6.393   2.960  74.159  1.00  0.00    -0.020 C  
HETATM   41  C   UNL     1      -8.401   5.801  74.078  1.00  0.00    -0.107 A  
HETATM   42  C   UNL     1      -8.403   7.238  74.474  1.00  0.00    -0.233 C  
ENDBRANCH  33  36
ENDBRANCH  31  33
ENDBRANCH  13  29
ENDBRANCH   4   9
TORSDOF 8
ENDMDL
MODEL       11
REMARK 921   NORMALIZED FREE ENERGY PREDICTED BY IDOCK:   -7.42 KCAL/MOL
REMARK 922        TOTAL FREE ENERGY PREDICTED BY IDOCK:  -12.52 KCAL/MOL
REMARK 923 INTER-LIGAND FREE ENERGY PREDICTED BY IDOCK:  -11.17 KCAL/MOL
REMARK 924 INTRA-LIGAND FREE ENERGY PREDICTED BY IDOCK:   -1.35 KCAL/MOL
REMARK 927      BINDING AFFINITY PREDICTED BY RF-SCORE:    0.00 PKD
ROOT
HETATM    1  C   UNL     1     -12.174  12.388  64.862  1.00  0.00    -0.485 C  
HETATM    2  C   UNL     1     -11.751  13.791  65.295  1.00  0.00    -0.349 C  
HETATM    3  C   UNL     1     -10.248  13.872  65.539  1.00  0.00    -0.331 C  
HETATM    4  N   UNL     1     -10.066  13.608  66.970  1.00  0.00    -0.245 NA 
HETATM    5  C   UNL     1     -10.936  15.469  68.303  1.00  0.00    -0.305 C  
HETATM    6  C   UNL     1     -11.288  14.092  67.708  1.00  0.00    -0.306 C  
HETATM    7  C   UNL     1     -12.386  14.220  66.616  1.00  0.00    -0.320 C  
HETATM    8  C   UNL     1     -11.892  13.271  68.852  1.00  0.00    -0.367 C  
ENDROOT
BRANCH   4   9
HETATM    9  C   UNL     1      -9.199  12.614  67.393  1.00  0.00    -0.191 A  
HETATM   10  N   UNL     1      -9.766  11.367  67.493  1.00  0.00    -0.177 NA 
HETATM   11  C   UNL     1      -9.063  10.250  67.836  1.00  0.00    -0.131 A  
HETATM   12  C   UNL     1      -7.718  10.328  68.106  1.00  0.00    -0.092 A  
HETATM   13  C   UNL     1      -7.822  12.765  67.680  1.00  0.00    -0.165 A  
HETATM   14  C   UNL     1      -7.106  11.585  68.017  1.00  0.00    -0.079 A  
BRANCH  11  15
HETATM   15  N   UNL     1      -9.750   8.974  67.894  1.00  0.00    -0.151 NA 
HETATM   16  C   UNL     1     -10.156   8.223  66.799  1.00  0.00    -0.303 A  
HETATM   17  C   UNL     1     -10.784   7.102  67.274  1.00  0.00    -0.399 A  
HETATM   18  N   UNL     1     -10.077   8.333  69.069  1.00  0.00    -0.197 NA 
HETATM   19  C   UNL     1     -10.713   7.227  68.662  1.00  0.00    -0.138 A  
BRANCH  19  20
HETATM   20  O   UNL     1     -11.235   6.313  69.511  1.00  0.00    -0.380 OA 
BRANCH  20  21
HETATM   21  C   UNL     1     -10.544   6.120  70.743  1.00  0.00    -0.242 C  
BRANCH  21  22
HETATM   22  C   UNL     1     -11.458   6.542  71.927  1.00  0.00    -0.345 C  
HETATM   23  F   UNL     1     -10.506   7.417  73.951  1.00  0.00    -0.388 F  
HETATM   24  F   UNL     1      -9.649   8.117  72.083  1.00  0.00    -0.214 F  
HETATM   25  C   UNL     1     -11.659   5.358  72.895  1.00  0.00    -0.296 C  
HETATM   26  C   UNL     1     -12.852   6.951  71.406  1.00  0.00    -0.365 C  
HETATM   27  C   UNL     1     -10.804   7.724  72.666  1.00  0.00    -0.354 C  
HETATM   28  F   UNL     1     -11.610   8.810  72.704  1.00  0.00    -0.409 F  
ENDBRANCH  21  22
ENDBRANCH  20  21
ENDBRANCH  19  20
ENDBRANCH  11  15
BRANCH  13  29
HETATM   29  C   UNL     1      -6.936  14.001  67.663  1.00  0.00    -0.183 C  
HETATM   30  H   UNL     1      -8.424  15.286  68.355  1.00  0.00     0.000 HD 
HETATM   31  N   UNL     1      -7.475  15.263  67.982  1.00  0.00    -0.112 N  
HETATM   32  O   UNL     1      -5.737  13.860  67.465  1.00  0.00    -0.338 OA 
BRANCH  31  33
HETATM   33  S   UNL     1      -6.676  16.751  67.795  1.00  0.00    -0.145 S  
HETATM   34  O   UNL     1      -6.068  17.080  69.059  1.00  0.00    -0.161 OA 
HETATM   35  O   UNL     1      -5.849  16.564  66.619  1.00  0.00    -0.330 OA 
BRANCH  33  36
HETATM   36  C   UNL     1      -7.651  18.142  67.405  1.00  0.00    -0.213 A  
HETATM   37  C   UNL     1      -8.937  18.128  66.882  1.00  0.00    -0.271 A  
HETATM   38  N   UNL     1      -9.362  19.422  66.841  1.00  0.00    -0.314 NA 
HETATM   39  N   UNL     1      -8.464  20.290  67.318  1.00  0.00    -0.341 NA 
HETATM   40  C   UNL     1     -10.634  19.953  66.414  1.00  0.00    -0.420 C  
HETATM   41  C   UNL     1      -7.441  19.527  67.732  1.00  0.00    -0.269 A  
HETATM   42  C   UNL     1      -6.386  20.260  68.487  1.00  0.00    -0.347 C  
ENDBRANCH  33  36
ENDBRANCH  31  33
ENDBRANCH  13  29
ENDBRANCH   4   9
TORSDOF 8
ENDMDL
MODEL       12
REMARK 921   NORMALIZED FREE ENERGY PREDICTED BY IDOCK:   -7.40 KCAL/MOL
REMARK 922        TOTAL FREE ENERGY PREDICTED BY IDOCK:  -12.49 KCAL/MOL
REMARK 923 INTER-LIGAND FREE ENERGY PREDICTED BY IDOCK:  -10.87 KCAL/MOL
REMARK 924 INTRA-LIGAND FREE ENERGY PREDICTED BY IDOCK:   -1.62 KCAL/MOL
REMARK 927      BINDING AFFINITY PREDICTED BY RF-SCORE:    0.00 PKD
ROOT
HETATM    1  C   UNL     1     -12.526  11.864  64.162  1.00  0.00    -0.358 C  
HETATM    2  C   UNL     1     -11.773  13.112  63.702  1.00  0.00    -0.505 C  
HETATM    3  C   UNL     1     -10.295  13.041  64.072  1.00  0.00    -0.249 C  
HETATM    4  N   UNL     1     -10.180  13.711  65.371  1.00  0.00    -0.318 NA 
HETATM    5  C   UNL     1     -10.568  16.118  65.129  1.00  0.00    -0.366 C  
HETATM    6  C   UNL     1     -11.246  14.775  65.458  1.00  0.00    -0.346 C  
HETATM    7  C   UNL     1     -12.282  14.389  64.366  1.00  0.00    -0.481 C  
HETATM    8  C   UNL     1     -12.031  14.996  66.756  1.00  0.00     0.006 C  
ENDROOT
BRANCH   4   9
HETATM    9  C   UNL     1      -9.582  13.068  66.441  1.00  0.00    -0.257 A  
HETATM   10  N   UNL     1      -9.915  11.742  66.567  1.00  0.00    -0.200 NA 
HETATM   11  C   UNL     1      -9.384  10.924  67.521  1.00  0.00    -0.154 A  
HETATM   12  C   UNL     1      -8.468  11.407  68.424  1.00  0.00    -0.155 A  
HETATM   13  C   UNL     1      -8.660  13.632  67.353  1.00  0.00    -0.212 A  
HETATM   14  C   UNL     1      -8.106  12.758  68.326  1.00  0.00    -0.154 A  
BRANCH  11  15
HETATM   15  N   UNL     1      -9.786   9.531  67.559  1.00  0.00    -0.150 NA 
HETATM   16  C   UNL     1     -10.238   8.788  66.476  1.00  0.00    -0.244 A  
HETATM   17  C   UNL     1     -10.534   7.530  66.929  1.00  0.00    -0.385 A  
HETATM   18  N   UNL     1      -9.754   8.755  68.698  1.00  0.00    -0.159 NA 
HETATM   19  C   UNL     1     -10.227   7.571  68.291  1.00  0.00    -0.186 A  
BRANCH  19  20
HETATM   20  O   UNL     1     -10.392   6.511  69.113  1.00  0.00    -0.169 OA 
BRANCH  20  21
HETATM   21  C   UNL     1     -11.519   6.551  69.986  1.00  0.00    -0.412 C  
BRANCH  21  22
HETATM   22  C   UNL     1     -11.044   6.802  71.444  1.00  0.00    -0.293 C  
HETATM   23  F   UNL     1     -10.272   8.973  72.118  1.00  0.00    -0.386 F  
HETATM   24  F   UNL     1     -12.034   8.911  70.853  1.00  0.00    -0.299 F  
HETATM   25  C   UNL     1      -9.525   6.562  71.559  1.00  0.00    -0.162 C  
HETATM   26  C   UNL     1     -11.739   5.818  72.409  1.00  0.00    -0.281 C  
HETATM   27  C   UNL     1     -11.382   8.252  71.837  1.00  0.00    -0.308 C  
HETATM   28  F   UNL     1     -12.171   8.312  72.934  1.00  0.00    -0.423 F  
ENDBRANCH  21  22
ENDBRANCH  20  21
ENDBRANCH  19  20
ENDBRANCH  11  15
BRANCH  13  29
HETATM   29  C   UNL     1      -8.116  15.048  67.463  1.00  0.00    -0.181 C  
HETATM   30  H   UNL     1      -9.229  15.526  69.158  1.00  0.00     0.000 HD 
HETATM   31  N   UNL     1      -8.612  15.923  68.450  1.00  0.00    -0.172 N  
HETATM   32  O   UNL     1      -7.178  15.373  66.747  1.00  0.00    -0.137 OA 
BRANCH  31  33
HETATM   33  S   UNL     1      -8.268  17.582  68.558  1.00  0.00    -0.268 S  
HETATM   34  O   UNL     1      -9.472  18.251  68.980  1.00  0.00    -0.244 OA 
HETATM   35  O   UNL     1      -7.077  17.646  69.382  1.00  0.00    -0.177 OA 
BRANCH  33  36
HETATM   36  C   UNL     1      -7.806  18.403  67.092  1.00  0.00    -0.229 A  
HETATM   37  C   UNL     1      -6.619  18.234  66.391  1.00  0.00    -0.211 A  
HETATM   38  N   UNL     1      -6.722  18.977  65.253  1.00  0.00    -0.467 NA 
HETATM   39  N   UNL     1      -7.895  19.608  65.136  1.00  0.00    -0.020 NA 
HETATM   40  C   UNL     1      -5.781  19.124  64.169  1.00  0.00    -0.281 C  
HETATM   41  C   UNL     1      -8.599  19.218  66.210  1.00  0.00    -0.325 A  
HETATM   42  C   UNL     1     -10.028  19.642  66.203  1.00  0.00    -0.554 C  
ENDBRANCH  33  36
ENDBRANCH  31  33
ENDBRANCH  13  29
ENDBRANCH   4   9
TORSDOF 8
ENDMDL
MODEL       13
REMARK 921   NORMALIZED FREE ENERGY PREDICTED BY IDOCK:   -7.39 KCAL/MOL
REMARK 922        TOTAL FREE ENERGY PREDICTED BY IDOCK:  -12.47 KCAL/MOL
REMARK 923 INTER-LIGAND FREE ENERGY PREDICTED BY IDOCK:  -11.02 KCAL/MOL
REMARK 924 INTRA-LIGAND FREE ENERGY PREDICTED BY IDOCK:   -1.45 KCAL/MOL
REMARK 927      BINDING AFFINITY PREDICTED BY RF-SCORE:    0.00 PKD
ROOT
HETATM    1  C   UNL     1      -7.427  10.401  69.189  1.00  0.00    -0.112 C  
HETATM    2  C   UNL     1      -7.513  11.223  67.904  1.00  0.00    -0.094 C  
HETATM    3  C   UNL     1      -8.260  12.534  68.128  1.00  0.00    -0.170 C  
HETATM    4  N   UNL     1      -9.659  12.254  67.790  1.00  0.00    -0.194 NA 
HETATM    5  C   UNL     1      -9.901  11.893  65.379  1.00  0.00    -0.258 C  
HETATM    6  C   UNL     1      -9.692  11.182  66.729  1.00  0.00    -0.193 C  
HETATM    7  C   UNL     1      -8.290  10.514  66.797  1.00  0.00    -0.128 C  
HETATM    8  C   UNL     1     -10.726  10.053  66.785  1.00  0.00    -0.172 C  
ENDROOT
BRANCH   4   9
HETATM    9  C   UNL     1     -10.668  12.535  68.695  1.00  0.00    -0.234 A  
HETATM   10  N   UNL     1     -11.046  11.472  69.476  1.00  0.00    -0.226 NA 
HETATM   11  C   UNL     1     -11.981  11.563  70.465  1.00  0.00    -0.344 A  
HETATM   12  C   UNL     1     -12.605  12.759  70.727  1.00  0.00    -0.308 A  
HETATM   13  C   UNL     1     -11.288  13.790  68.900  1.00  0.00    -0.328 A  
HETATM   14  C   UNL     1     -12.245  13.867  69.948  1.00  0.00    -0.393 A  
BRANCH  11  15
HETATM   15  N   UNL     1     -12.297  10.385  71.249  1.00  0.00    -0.377 NA 
HETATM   16  C   UNL     1     -13.554  10.048  71.734  1.00  0.00    -0.242 A  
HETATM   17  C   UNL     1     -13.428   8.881  72.440  1.00  0.00    -0.499 A  
HETATM   18  N   UNL     1     -11.369   9.429  71.604  1.00  0.00    -0.389 NA 
HETATM   19  C   UNL     1     -12.075   8.555  72.333  1.00  0.00    -0.367 A  
BRANCH  19  20
HETATM   20  O   UNL     1     -11.535   7.459  72.910  1.00  0.00    -0.298 OA 
BRANCH  20  21
HETATM   21  C   UNL     1     -11.743   6.217  72.238  1.00  0.00    -0.298 C  
BRANCH  21  22
HETATM   22  C   UNL     1     -10.438   5.790  71.512  1.00  0.00    -0.291 C  
HETATM   23  F   UNL     1     -10.530   4.728  69.360  1.00  0.00    -0.282 F  
HETATM   24  F   UNL     1     -11.868   6.407  69.682  1.00  0.00    -0.476 F  
HETATM   25  C   UNL     1     -10.077   4.335  71.875  1.00  0.00    -0.237 C  
HETATM   26  C   UNL     1      -9.260   6.680  71.963  1.00  0.00    -0.142 C  
HETATM   27  C   UNL     1     -10.645   5.920  69.992  1.00  0.00    -0.295 C  
HETATM   28  F   UNL     1      -9.740   6.750  69.424  1.00  0.00    -0.151 F  
ENDBRANCH  21  22
ENDBRANCH  20  21
ENDBRANCH  19  20
ENDBRANCH  11  15
BRANCH  13  29
HETATM   29  C   UNL     1     -11.084  15.123  68.196  1.00  0.00    -0.304 C  
HETATM   30  H   UNL     1      -9.917  14.329  66.664  1.00  0.00     0.000 HD 
HETATM   31  N   UNL     1     -10.251  15.206  67.064  1.00  0.00    -0.258 N  
HETATM   32  O   UNL     1     -11.733  16.090  68.574  1.00  0.00    -0.375 OA 
BRANCH  31  33
HETATM   33  S   UNL     1      -9.755  16.645  66.310  1.00  0.00    -0.310 S  
HETATM   34  O   UNL     1      -8.613  16.335  65.487  1.00  0.00    -0.101 OA 
HETATM   35  O   UNL     1     -10.965  17.164  65.703  1.00  0.00    -0.145 OA 
BRANCH  33  36
HETATM   36  C   UNL     1      -9.212  17.944  67.337  1.00  0.00    -0.253 A  
HETATM   37  C   UNL     1      -8.161  17.895  68.243  1.00  0.00    -0.290 A  
HETATM   38  N   UNL     1      -8.010  19.153  68.743  1.00  0.00    -0.354 NA 
HETATM   39  N   UNL     1      -8.866  20.037  68.220  1.00  0.00    -0.206 NA 
HETATM   40  C   UNL     1      -7.043  19.650  69.692  1.00  0.00    -0.162 C  
HETATM   41  C   UNL     1      -9.562  19.339  67.311  1.00  0.00    -0.320 A  
HETATM   42  C   UNL     1     -10.458  20.161  66.449  1.00  0.00    -0.443 C  
ENDBRANCH  33  36
ENDBRANCH  31  33
ENDBRANCH  13  29
ENDBRANCH   4   9
TORSDOF 8
ENDMDL
MODEL       14
REMARK 921   NORMALIZED FREE ENERGY PREDICTED BY IDOCK:   -7.33 KCAL/MOL
REMARK 922        TOTAL FREE ENERGY PREDICTED BY IDOCK:  -12.39 KCAL/MOL
REMARK 923 INTER-LIGAND FREE ENERGY PREDICTED BY IDOCK:   -9.93 KCAL/MOL
REMARK 924 INTRA-LIGAND FREE ENERGY PREDICTED BY IDOCK:   -2.46 KCAL/MOL
REMARK 927      BINDING AFFINITY PREDICTED BY RF-SCORE:    0.00 PKD
ROOT
HETATM    1  C   UNL     1     -11.627  14.439  67.189  1.00  0.00    -0.406 C  
HETATM    2  C   UNL     1     -11.976  13.044  67.707  1.00  0.00    -0.344 C  
HETATM    3  C   UNL     1     -11.024  12.604  68.815  1.00  0.00    -0.249 C  
HETATM    4  N   UNL     1      -9.957  11.855  68.144  1.00  0.00    -0.192 NA 
HETATM    5  C   UNL     1     -10.814   9.728  67.284  1.00  0.00    -0.247 C  
HETATM    6  C   UNL     1     -10.531  11.196  66.915  1.00  0.00    -0.246 C  
HETATM    7  C   UNL     1     -11.852  11.965  66.633  1.00  0.00    -0.150 C  
HETATM    8  C   UNL     1      -9.746  11.166  65.600  1.00  0.00    -0.267 C  
ENDROOT
BRANCH   4   9
HETATM    9  C   UNL     1      -8.630  12.201  68.338  1.00  0.00    -0.141 A  
HETATM   10  N   UNL     1      -8.279  13.425  67.825  1.00  0.00    -0.157 NA 
HETATM   11  C   UNL     1      -7.036  13.968  67.966  1.00  0.00    -0.145 A  
HETATM   12  C   UNL     1      -6.052  13.291  68.646  1.00  0.00    -0.085 A  
HETATM   13  C   UNL     1      -7.657  11.445  69.031  1.00  0.00    -0.084 A  
HETATM   14  C   UNL     1      -6.374  12.037  69.181  1.00  0.00    -0.093 A  
BRANCH  11  15
HETATM   15  N   UNL     1      -6.770  15.278  67.404  1.00  0.00    -0.254 NA 
HETATM   16  C   UNL     1      -5.556  15.951  67.459  1.00  0.00    -0.098 A  
HETATM   17  C   UNL     1      -5.722  17.160  66.835  1.00  0.00    -0.221 A  
HETATM   18  N   UNL     1      -7.707  16.024  66.721  1.00  0.00    -0.243 NA 
HETATM   19  C   UNL     1      -7.053  17.152  66.413  1.00  0.00    -0.275 A  
BRANCH  19  20
HETATM   20  O   UNL     1      -7.621  18.186  65.754  1.00  0.00    -0.519 OA 
BRANCH  20  21
HETATM   21  C   UNL     1      -7.952  19.334  66.533  1.00  0.00    -0.294 C  
BRANCH  21  22
HETATM   22  C   UNL     1      -9.451  19.278  66.937  1.00  0.00    -0.386 C  
HETATM   23  F   UNL     1     -10.250  17.571  68.425  1.00  0.00    -0.289 F  
HETATM   24  F   UNL     1      -8.351  18.495  68.925  1.00  0.00    -0.327 F  
HETATM   25  C   UNL     1     -10.232  18.369  65.966  1.00  0.00    -0.354 C  
HETATM   26  C   UNL     1     -10.080  20.685  66.854  1.00  0.00    -0.258 C  
HETATM   27  C   UNL     1      -9.562  18.735  68.374  1.00  0.00    -0.365 C  
HETATM   28  F   UNL     1     -10.199  19.600  69.197  1.00  0.00    -0.487 F  
ENDBRANCH  21  22
ENDBRANCH  20  21
ENDBRANCH  19  20
ENDBRANCH  11  15
BRANCH  13  29
HETATM   29  C   UNL     1      -7.749  10.077  69.690  1.00  0.00    -0.156 C  
HETATM   30  H   UNL     1      -8.210   9.069  67.925  1.00  0.00     0.000 HD 
HETATM   31  N   UNL     1      -8.138   8.952  68.936  1.00  0.00    -0.111 N  
HETATM   32  O   UNL     1      -7.386   9.961  70.853  1.00  0.00    -0.328 OA 
BRANCH  31  33
HETATM   33  S   UNL     1      -8.497   7.418  69.570  1.00  0.00    -0.133 S  
HETATM   34  O   UNL     1      -9.372   6.754  68.638  1.00  0.00    -0.133 OA 
HETATM   35  O   UNL     1      -7.199   6.848  69.877  1.00  0.00    -0.072 OA 
BRANCH  33  36
HETATM   36  C   UNL     1      -9.350   7.357  71.088  1.00  0.00    -0.155 A  
HETATM   37  C   UNL     1      -9.024   6.574  72.187  1.00  0.00    -0.139 A  
HETATM   38  N   UNL     1      -9.879   6.921  73.190  1.00  0.00    -0.173 NA 
HETATM   39  N   UNL     1     -10.732   7.890  72.845  1.00  0.00    -0.368 NA 
HETATM   40  C   UNL     1      -9.945   6.432  74.546  1.00  0.00    -0.351 C  
HETATM   41  C   UNL     1     -10.385   8.220  71.593  1.00  0.00    -0.224 A  
HETATM   42  C   UNL     1     -11.075   9.426  71.053  1.00  0.00    -0.414 C  
ENDBRANCH  33  36
ENDBRANCH  31  33
ENDBRANCH  13  29
ENDBRANCH   4   9
TORSDOF 8
ENDMDL
MODEL       15
REMARK 921   NORMALIZED FREE ENERGY PREDICTED BY IDOCK:   -7.24 KCAL/MOL
REMARK 922        TOTAL FREE ENERGY PREDICTED BY IDOCK:  -12.26 KCAL/MOL
REMARK 923 INTER-LIGAND FREE ENERGY PREDICTED BY IDOCK:  -10.19 KCAL/MOL
REMARK 924 INTRA-LIGAND FREE ENERGY PREDICTED BY IDOCK:   -2.07 KCAL/MOL
REMARK 927      BINDING AFFINITY PREDICTED BY RF-SCORE:    0.00 PKD
ROOT
HETATM    1  C   UNL     1     -11.591  14.031  66.982  1.00  0.00    -0.394 C  
HETATM    2  C   UNL     1     -11.781  12.537  67.239  1.00  0.00    -0.431 C  
HETATM    3  C   UNL     1     -10.853  12.036  68.341  1.00  0.00    -0.233 C  
HETATM    4  N   UNL     1      -9.653  11.547  67.653  1.00  0.00    -0.169 NA 
HETATM    5  C   UNL     1     -10.159   9.506  66.396  1.00  0.00    -0.328 C  
HETATM    6  C   UNL     1     -10.053  11.040  66.290  1.00  0.00    -0.235 C  
HETATM    7  C   UNL     1     -11.445  11.678  66.022  1.00  0.00    -0.195 C  
HETATM    8  C   UNL     1      -9.187  11.327  65.059  1.00  0.00    -0.147 C  
ENDROOT
BRANCH   4   9
HETATM    9  C   UNL     1      -8.401  12.014  68.013  1.00  0.00    -0.162 A  
HETATM   10  N   UNL     1      -8.107  13.274  67.551  1.00  0.00    -0.174 NA 
HETATM   11  C   UNL     1      -6.950  13.930  67.848  1.00  0.00    -0.160 A  
HETATM   12  C   UNL     1      -5.997  13.340  68.645  1.00  0.00    -0.083 A  
HETATM   13  C   UNL     1      -7.453  11.343  68.820  1.00  0.00    -0.124 A  
HETATM   14  C   UNL     1      -6.262  12.053  69.132  1.00  0.00    -0.087 A  
BRANCH  11  15
HETATM   15  N   UNL     1      -6.742  15.267  67.327  1.00  0.00    -0.283 NA 
HETATM   16  C   UNL     1      -5.545  15.971  67.356  1.00  0.00    -0.069 A  
HETATM   17  C   UNL     1      -5.770  17.197  66.788  1.00  0.00    -0.231 A  
HETATM   18  N   UNL     1      -7.727  16.013  66.716  1.00  0.00    -0.243 NA 
HETATM   19  C   UNL     1      -7.117  17.169  66.424  1.00  0.00    -0.275 A  
BRANCH  19  20
HETATM   20  O   UNL     1      -7.740  18.211  65.832  1.00  0.00    -0.485 OA 
BRANCH  20  21
HETATM   21  C   UNL     1      -7.904  19.388  66.621  1.00  0.00    -0.277 C  
BRANCH  21  22
HETATM   22  C   UNL     1      -9.347  19.437  67.194  1.00  0.00    -0.390 C  
HETATM   23  F   UNL     1     -10.086  17.795  68.782  1.00  0.00    -0.314 F  
HETATM   24  F   UNL     1      -8.083  18.587  69.052  1.00  0.00    -0.314 F  
HETATM   25  C   UNL     1     -10.295  18.581  66.329  1.00  0.00    -0.459 C  
HETATM   26  C   UNL     1      -9.884  20.884  67.168  1.00  0.00    -0.263 C  
HETATM   27  C   UNL     1      -9.329  18.908  68.640  1.00  0.00    -0.369 C  
HETATM   28  F   UNL     1      -9.808  19.817  69.521  1.00  0.00    -0.457 F  
ENDBRANCH  21  22
ENDBRANCH  20  21
ENDBRANCH  19  20
ENDBRANCH  11  15
BRANCH  13  29
HETATM   29  C   UNL     1      -7.495   9.964  69.459  1.00  0.00    -0.112 C  
HETATM   30  H   UNL     1      -9.567   9.938  69.672  1.00  0.00     0.000 HD 
HETATM   31  N   UNL     1      -8.717   9.431  69.916  1.00  0.00    -0.178 N  
HETATM   32  O   UNL     1      -6.470   9.295  69.477  1.00  0.00    -0.042 OA 
BRANCH  31  33
HETATM   33  S   UNL     1      -8.890   8.016  70.839  1.00  0.00    -0.143 S  
HETATM   34  O   UNL     1      -8.472   6.907  70.020  1.00  0.00    -0.136 OA 
HETATM   35  O   UNL     1      -8.190   8.309  72.074  1.00  0.00    -0.135 OA 
BRANCH  33  36
HETATM   36  C   UNL     1     -10.498   7.590  71.360  1.00  0.00    -0.209 A  
HETATM   37  C   UNL     1     -11.648   8.349  71.191  1.00  0.00    -0.279 A  
HETATM   38  N   UNL     1     -12.690   7.593  71.639  1.00  0.00    -0.334 NA 
HETATM   39  N   UNL     1     -12.320   6.384  72.072  1.00  0.00    -0.303 NA 
HETATM   40  C   UNL     1     -14.100   7.900  71.657  1.00  0.00    -0.434 C  
HETATM   41  C   UNL     1     -10.999   6.333  71.848  1.00  0.00    -0.256 A  
HETATM   42  C   UNL     1     -10.382   4.994  72.074  1.00  0.00    -0.276 C  
ENDBRANCH  33  36
ENDBRANCH  31  33
ENDBRANCH  13  29
ENDBRANCH   4   9
TORSDOF 8
ENDMDL
MODEL       16
REMARK 921   NORMALIZED FREE ENERGY PREDICTED BY IDOCK:   -7.22 KCAL/MOL
REMARK 922        TOTAL FREE ENERGY PREDICTED BY IDOCK:  -12.23 KCAL/MOL
REMARK 923 INTER-LIGAND FREE ENERGY PREDICTED BY IDOCK:  -10.30 KCAL/MOL
REMARK 924 INTRA-LIGAND FREE ENERGY PREDICTED BY IDOCK:   -1.93 KCAL/MOL
REMARK 927      BINDING AFFINITY PREDICTED BY RF-SCORE:    0.00 PKD
ROOT
HETATM    1  C   UNL     1      -8.087  10.173  64.633  1.00  0.00    -0.153 C  
HETATM    2  C   UNL     1      -7.967   8.987  65.590  1.00  0.00    -0.104 C  
HETATM    3  C   UNL     1      -9.257   8.769  66.374  1.00  0.00    -0.189 C  
HETATM    4  N   UNL     1      -9.091   9.520  67.623  1.00  0.00    -0.121 NA 
HETATM    5  C   UNL     1      -7.401   8.456  69.043  1.00  0.00    -0.088 C  
HETATM    6  C   UNL     1      -7.625   9.545  67.977  1.00  0.00    -0.086 C  
HETATM    7  C   UNL     1      -6.891   9.191  66.654  1.00  0.00    -0.080 C  
HETATM    8  C   UNL     1      -6.969  10.819  68.521  1.00  0.00    -0.068 C  
ENDROOT
BRANCH   4   9
HETATM    9  C   UNL     1     -10.039  10.451  68.013  1.00  0.00    -0.163 A  
HETATM   10  N   UNL     1     -10.129  11.549  67.194  1.00  0.00    -0.195 NA 
HETATM   11  C   UNL     1     -11.042  12.546  67.375  1.00  0.00    -0.272 A  
HETATM   12  C   UNL     1     -11.935  12.493  68.419  1.00  0.00    -0.271 A  
HETATM   13  C   UNL     1     -10.915  10.347  69.117  1.00  0.00    -0.285 A  
HETATM   14  C   UNL     1     -11.870  11.387  69.278  1.00  0.00    -0.417 A  
BRANCH  11  15
HETATM   15  N   UNL     1     -11.070  13.656  66.443  1.00  0.00    -0.301 NA 
HETATM   16  C   UNL     1     -11.673  13.647  65.192  1.00  0.00    -0.331 A  
HETATM   17  C   UNL     1     -11.460  14.872  64.618  1.00  0.00    -0.380 A  
HETATM   18  N   UNL     1     -10.502  14.886  66.697  1.00  0.00    -0.286 NA 
HETATM   19  C   UNL     1     -10.735  15.582  65.577  1.00  0.00    -0.381 A  
BRANCH  19  20
HETATM   20  O   UNL     1     -10.314  16.853  65.389  1.00  0.00    -0.609 OA 
BRANCH  20  21
HETATM   21  C   UNL     1      -9.283  17.318  66.258  1.00  0.00    -0.215 C  
BRANCH  21  22
HETATM   22  C   UNL     1      -9.721  18.653  66.920  1.00  0.00    -0.333 C  
HETATM   23  F   UNL     1      -8.585  19.479  68.868  1.00  0.00    -0.389 F  
HETATM   24  F   UNL     1      -7.347  18.647  67.291  1.00  0.00    -0.211 F  
HETATM   25  C   UNL     1     -10.769  18.386  68.020  1.00  0.00    -0.277 C  
HETATM   26  C   UNL     1     -10.380  19.578  65.874  1.00  0.00    -0.562 C  
HETATM   27  C   UNL     1      -8.483  19.341  67.526  1.00  0.00    -0.291 C  
HETATM   28  F   UNL     1      -8.292  20.582  67.022  1.00  0.00    -0.353 F  
ENDBRANCH  21  22
ENDBRANCH  20  21
ENDBRANCH  19  20
ENDBRANCH  11  15
BRANCH  13  29
HETATM   29  C   UNL     1     -11.042   9.270  70.184  1.00  0.00    -0.230 C  
HETATM   30  H   UNL     1     -10.657   7.692  68.879  1.00  0.00     0.000 HD 
HETATM   31  N   UNL     1     -10.950   7.909  69.831  1.00  0.00    -0.220 N  
HETATM   32  O   UNL     1     -11.125   9.613  71.356  1.00  0.00    -0.365 OA 
BRANCH  31  33
HETATM   33  S   UNL     1     -11.287   6.600  70.860  1.00  0.00    -0.345 S  
HETATM   34  O   UNL     1     -12.545   6.868  71.509  1.00  0.00    -0.365 OA 
HETATM   35  O   UNL     1     -11.144   5.434  70.010  1.00  0.00    -0.170 OA 
BRANCH  33  36
HETATM   36  C   UNL     1     -10.176   6.302  72.169  1.00  0.00    -0.184 A  
HETATM   37  C   UNL     1      -9.096   7.095  72.531  1.00  0.00    -0.127 A  
HETATM   38  N   UNL     1      -8.574   6.558  73.670  1.00  0.00    -0.122 NA 
HETATM   39  N   UNL     1      -9.241   5.483  74.102  1.00  0.00    -0.125 NA 
HETATM   40  C   UNL     1      -7.465   7.017  74.473  1.00  0.00    -0.115 C  
HETATM   41  C   UNL     1     -10.262   5.348  73.243  1.00  0.00    -0.192 A  
HETATM   42  C   UNL     1     -11.270   4.321  73.632  1.00  0.00    -0.325 C  
ENDBRANCH  33  36
ENDBRANCH  31  33
ENDBRANCH  13  29
ENDBRANCH   4   9
TORSDOF 8
ENDMDL
MODEL       17
REMARK 921   NORMALIZED FREE ENERGY PREDICTED BY IDOCK:   -7.20 KCAL/MOL
REMARK 922        TOTAL FREE ENERGY PREDICTED BY IDOCK:  -12.20 KCAL/MOL
REMARK 923 INTER-LIGAND FREE ENERGY PREDICTED BY IDOCK:  -10.47 KCAL/MOL
REMARK 924 INTRA-LIGAND FREE ENERGY PREDICTED BY IDOCK:   -1.73 KCAL/MOL
REMARK 927      BINDING AFFINITY PREDICTED BY RF-SCORE:    0.00 PKD
ROOT
HETATM    1  C   UNL     1     -12.578  11.592  63.887  1.00  0.00    -0.201 C  
HETATM    2  C   UNL     1     -11.792  12.854  63.531  1.00  0.00    -0.605 C  
HETATM    3  C   UNL     1     -10.357  12.782  64.043  1.00  0.00    -0.368 C  
HETATM    4  N   UNL     1     -10.376  13.423  65.362  1.00  0.00    -0.305 NA 
HETATM    5  C   UNL     1     -10.755  15.833  65.137  1.00  0.00    -0.455 C  
HETATM    6  C   UNL     1     -11.453  14.479  65.368  1.00  0.00    -0.348 C  
HETATM    7  C   UNL     1     -12.373  14.114  64.170  1.00  0.00    -0.372 C  
HETATM    8  C   UNL     1     -12.362  14.667  66.586  1.00  0.00    -0.021 C  
ENDROOT
BRANCH   4   9
HETATM    9  C   UNL     1      -9.881  12.758  66.471  1.00  0.00    -0.258 A  
HETATM   10  N   UNL     1     -10.167  11.416  66.506  1.00  0.00    -0.214 NA 
HETATM   11  C   UNL     1      -9.718  10.579  67.484  1.00  0.00    -0.166 A  
HETATM   12  C   UNL     1      -8.937  11.059  68.509  1.00  0.00    -0.163 A  
HETATM   13  C   UNL     1      -9.099  13.318  67.508  1.00  0.00    -0.208 A  
HETATM   14  C   UNL     1      -8.627  12.425  68.507  1.00  0.00    -0.060 A  
BRANCH  11  15
HETATM   15  N   UNL     1     -10.060   9.171  67.421  1.00  0.00    -0.212 NA 
HETATM   16  C   UNL     1      -9.958   8.363  66.296  1.00  0.00    -0.146 A  
HETATM   17  C   UNL     1     -10.395   7.111  66.642  1.00  0.00    -0.222 A  
HETATM   18  N   UNL     1     -10.524   8.446  68.497  1.00  0.00    -0.194 NA 
HETATM   19  C   UNL     1     -10.734   7.224  67.992  1.00  0.00    -0.146 A  
BRANCH  19  20
HETATM   20  O   UNL     1     -11.225   6.193  68.715  1.00  0.00    -0.367 OA 
BRANCH  20  21
HETATM   21  C   UNL     1     -11.624   6.485  70.053  1.00  0.00    -0.390 C  
BRANCH  21  22
HETATM   22  C   UNL     1     -10.629   5.830  71.050  1.00  0.00    -0.318 C  
HETATM   23  F   UNL     1     -10.779   6.289  73.402  1.00  0.00    -0.228 F  
HETATM   24  F   UNL     1     -12.648   5.963  72.347  1.00  0.00    -0.332 F  
HETATM   25  C   UNL     1      -9.404   6.743  71.261  1.00  0.00    -0.165 C  
HETATM   26  C   UNL     1     -10.110   4.490  70.485  1.00  0.00    -0.233 C  
HETATM   27  C   UNL     1     -11.348   5.592  72.391  1.00  0.00    -0.270 C  
HETATM   28  F   UNL     1     -11.327   4.290  72.757  1.00  0.00    -0.199 F  
ENDBRANCH  21  22
ENDBRANCH  20  21
ENDBRANCH  19  20
ENDBRANCH  11  15
BRANCH  13  29
HETATM   29  C   UNL     1      -8.635  14.749  67.737  1.00  0.00    -0.166 C  
HETATM   30  H   UNL     1      -6.996  14.603  66.459  1.00  0.00     0.000 HD 
HETATM   31  N   UNL     1      -7.443  15.210  67.146  1.00  0.00    -0.189 N  
HETATM   32  O   UNL     1      -9.366  15.509  68.359  1.00  0.00    -0.186 OA 
BRANCH  31  33
HETATM   33  S   UNL     1      -6.687  16.693  67.481  1.00  0.00    -0.170 S  
HETATM   34  O   UNL     1      -6.434  16.743  68.899  1.00  0.00    -0.158 OA 
HETATM   35  O   UNL     1      -5.580  16.748  66.546  1.00  0.00    -0.340 OA 
BRANCH  33  36
HETATM   36  C   UNL     1      -7.589  18.147  67.149  1.00  0.00    -0.211 A  
HETATM   37  C   UNL     1      -8.758  18.240  66.407  1.00  0.00    -0.241 A  
HETATM   38  N   UNL     1      -9.183  19.532  66.497  1.00  0.00    -0.348 NA 
HETATM   39  N   UNL     1      -8.395  20.296  67.261  1.00  0.00    -0.340 NA 
HETATM   40  C   UNL     1     -10.362  20.149  65.937  1.00  0.00    -0.340 C  
HETATM   41  C   UNL     1      -7.456  19.459  67.725  1.00  0.00    -0.261 A  
HETATM   42  C   UNL     1      -6.563  20.042  68.766  1.00  0.00    -0.356 C  
ENDBRANCH  33  36
ENDBRANCH  31  33
ENDBRANCH  13  29
ENDBRANCH   4   9
TORSDOF 8
ENDMDL
MODEL       18
REMARK 921   NORMALIZED FREE ENERGY PREDICTED BY IDOCK:   -7.20 KCAL/MOL
REMARK 922        TOTAL FREE ENERGY PREDICTED BY IDOCK:  -12.19 KCAL/MOL
REMARK 923 INTER-LIGAND FREE ENERGY PREDICTED BY IDOCK:  -10.53 KCAL/MOL
REMARK 924 INTRA-LIGAND FREE ENERGY PREDICTED BY IDOCK:   -1.66 KCAL/MOL
REMARK 927      BINDING AFFINITY PREDICTED BY RF-SCORE:    0.00 PKD
ROOT
HETATM    1  C   UNL     1      -9.212   9.490  65.050  1.00  0.00    -0.297 C  
HETATM    2  C   UNL     1      -8.814   8.411  66.057  1.00  0.00    -0.202 C  
HETATM    3  C   UNL     1      -9.837   8.293  67.183  1.00  0.00    -0.217 C  
HETATM    4  N   UNL     1      -9.348   9.170  68.252  1.00  0.00    -0.135 NA 
HETATM    5  C   UNL     1      -7.317   8.243  69.259  1.00  0.00    -0.076 C  
HETATM    6  C   UNL     1      -7.842   9.216  68.187  1.00  0.00    -0.099 C  
HETATM    7  C   UNL     1      -7.492   8.714  66.758  1.00  0.00    -0.086 C  
HETATM    8  C   UNL     1      -7.086  10.532  68.393  1.00  0.00    -0.078 C  
ENDROOT
BRANCH   4   9
HETATM    9  C   UNL     1     -10.170  10.148  68.786  1.00  0.00    -0.186 A  
HETATM   10  N   UNL     1     -10.289  11.277  68.014  1.00  0.00    -0.177 NA 
HETATM   11  C   UNL     1     -11.098  12.325  68.339  1.00  0.00    -0.243 A  
HETATM   12  C   UNL     1     -11.850  12.296  69.489  1.00  0.00    -0.380 A  
HETATM   13  C   UNL     1     -10.902  10.064  69.993  1.00  0.00    -0.352 A  
HETATM   14  C   UNL     1     -11.752  11.160  70.303  1.00  0.00    -0.431 A  
BRANCH  11  15
HETATM   15  N   UNL     1     -11.169  13.466  67.446  1.00  0.00    -0.278 NA 
HETATM   16  C   UNL     1     -11.807  13.489  66.212  1.00  0.00    -0.392 A  
HETATM   17  C   UNL     1     -11.628  14.737  65.675  1.00  0.00    -0.290 A  
HETATM   18  N   UNL     1     -10.612  14.695  67.726  1.00  0.00    -0.249 NA 
HETATM   19  C   UNL     1     -10.887  15.425  66.638  1.00  0.00    -0.302 A  
BRANCH  19  20
HETATM   20  O   UNL     1     -10.490  16.708  66.482  1.00  0.00    -0.302 OA 
BRANCH  20  21
HETATM   21  C   UNL     1     -10.254  17.452  67.676  1.00  0.00    -0.342 C  
BRANCH  21  22
HETATM   22  C   UNL     1      -9.286  18.629  67.375  1.00  0.00    -0.298 C  
HETATM   23  F   UNL     1      -9.862  20.296  65.745  1.00  0.00    -0.498 F  
HETATM   24  F   UNL     1     -11.444  19.646  67.082  1.00  0.00    -0.447 F  
HETATM   25  C   UNL     1      -8.340  18.260  66.214  1.00  0.00    -0.230 C  
HETATM   26  C   UNL     1      -8.406  18.926  68.608  1.00  0.00    -0.384 C  
HETATM   27  C   UNL     1     -10.113  19.875  67.006  1.00  0.00    -0.446 C  
HETATM   28  F   UNL     1      -9.851  20.921  67.824  1.00  0.00    -0.534 F  
ENDBRANCH  21  22
ENDBRANCH  20  21
ENDBRANCH  19  20
ENDBRANCH  11  15
BRANCH  13  29
HETATM   29  C   UNL     1     -10.965   8.963  71.040  1.00  0.00    -0.276 C  
HETATM   30  H   UNL     1      -9.340   9.675  72.134  1.00  0.00     0.000 HD 
HETATM   31  N   UNL     1      -9.987   8.891  72.052  1.00  0.00    -0.322 N  
HETATM   32  O   UNL     1     -11.929   8.208  71.040  1.00  0.00    -0.295 OA 
BRANCH  31  33
HETATM   33  S   UNL     1      -9.797   7.607  73.148  1.00  0.00    -0.301 S  
HETATM   34  O   UNL     1      -8.753   7.972  74.071  1.00  0.00    -0.269 OA 
HETATM   35  O   UNL     1     -11.139   7.354  73.635  1.00  0.00    -0.258 OA 
BRANCH  33  36
HETATM   36  C   UNL     1      -9.290   6.069  72.502  1.00  0.00    -0.141 A  
HETATM   37  C   UNL     1     -10.108   5.101  71.937  1.00  0.00    -0.197 A  
HETATM   38  N   UNL     1      -9.291   4.119  71.463  1.00  0.00    -0.134 NA 
HETATM   39  N   UNL     1      -7.993   4.374  71.651  1.00  0.00    -0.089 NA 
HETATM   40  C   UNL     1      -9.633   2.906  70.759  1.00  0.00    -0.125 C  
HETATM   41  C   UNL     1      -7.963   5.588  72.220  1.00  0.00    -0.107 A  
HETATM   42  C   UNL     1      -6.602   6.180  72.352  1.00  0.00    -0.067 C  
ENDBRANCH  33  36
ENDBRANCH  31  33
ENDBRANCH  13  29
ENDBRANCH   4   9
TORSDOF 8
ENDMDL
MODEL       19
REMARK 921   NORMALIZED FREE ENERGY PREDICTED BY IDOCK:   -7.10 KCAL/MOL
REMARK 922        TOTAL FREE ENERGY PREDICTED BY IDOCK:  -12.06 KCAL/MOL
REMARK 923 INTER-LIGAND FREE ENERGY PREDICTED BY IDOCK:  -10.73 KCAL/MOL
REMARK 924 INTRA-LIGAND FREE ENERGY PREDICTED BY IDOCK:   -1.33 KCAL/MOL
REMARK 927      BINDING AFFINITY PREDICTED BY RF-SCORE:    0.00 PKD
ROOT
HETATM    1  C   UNL     1      -7.789   7.907  70.242  1.00  0.00    -0.089 C  
HETATM    2  C   UNL     1      -7.329   8.141  68.803  1.00  0.00    -0.088 C  
HETATM    3  C   UNL     1      -7.434   9.613  68.415  1.00  0.00    -0.080 C  
HETATM    4  N   UNL     1      -8.753   9.763  67.791  1.00  0.00    -0.129 NA 
HETATM    5  C   UNL     1      -8.811   8.620  65.625  1.00  0.00    -0.227 C  
HETATM    6  C   UNL     1      -9.121   8.461  67.125  1.00  0.00    -0.138 C  
HETATM    7  C   UNL     1      -8.188   7.403  67.779  1.00  0.00    -0.119 C  
HETATM    8  C   UNL     1     -10.548   7.909  67.213  1.00  0.00    -0.365 C  
ENDROOT
BRANCH   4   9
HETATM    9  C   UNL     1      -9.639  10.722  68.251  1.00  0.00    -0.166 A  
HETATM   10  N   UNL     1      -9.763  11.821  67.437  1.00  0.00    -0.178 NA 
HETATM   11  C   UNL     1     -10.629  12.844  67.686  1.00  0.00    -0.223 A  
HETATM   12  C   UNL     1     -11.437  12.819  68.798  1.00  0.00    -0.347 A  
HETATM   13  C   UNL     1     -10.428  10.645  69.422  1.00  0.00    -0.252 A  
HETATM   14  C   UNL     1     -11.336  11.714  69.653  1.00  0.00    -0.308 A  
BRANCH  11  15
HETATM   15  N   UNL     1     -10.700  13.952  66.754  1.00  0.00    -0.280 NA 
HETATM   16  C   UNL     1     -11.334  13.932  65.519  1.00  0.00    -0.308 A  
HETATM   17  C   UNL     1     -11.155  15.161  64.939  1.00  0.00    -0.425 A  
HETATM   18  N   UNL     1     -10.144  15.191  66.992  1.00  0.00    -0.241 NA 
HETATM   19  C   UNL     1     -10.418  15.883  65.878  1.00  0.00    -0.359 A  
BRANCH  19  20
HETATM   20  O   UNL     1     -10.022  17.160  65.679  1.00  0.00    -0.558 OA 
BRANCH  20  21
HETATM   21  C   UNL     1      -8.954  17.632  66.498  1.00  0.00    -0.262 C  
BRANCH  21  22
HETATM   22  C   UNL     1      -9.463  18.782  67.410  1.00  0.00    -0.324 C  
HETATM   23  F   UNL     1      -7.988  19.834  68.985  1.00  0.00    -0.370 F  
HETATM   24  F   UNL     1      -7.177  19.409  67.017  1.00  0.00    -0.209 F  
HETATM   25  C   UNL     1      -9.987  18.213  68.745  1.00  0.00    -0.389 C  
HETATM   26  C   UNL     1     -10.639  19.519  66.734  1.00  0.00    -0.597 C  
HETATM   27  C   UNL     1      -8.306  19.763  67.672  1.00  0.00    -0.317 C  
HETATM   28  F   UNL     1      -8.606  21.022  67.276  1.00  0.00    -0.400 F  
ENDBRANCH  21  22
ENDBRANCH  20  21
ENDBRANCH  19  20
ENDBRANCH  11  15
BRANCH  13  29
HETATM   29  C   UNL     1     -10.501   9.575  70.500  1.00  0.00    -0.296 C  
HETATM   30  H   UNL     1     -12.120   8.582  69.645  1.00  0.00     0.000 HD 
HETATM   31  N   UNL     1     -11.530   8.613  70.476  1.00  0.00    -0.233 N  
HETATM   32  O   UNL     1      -9.597   9.510  71.323  1.00  0.00    -0.201 OA 
BRANCH  31  33
HETATM   33  S   UNL     1     -11.871   7.504  71.715  1.00  0.00    -0.307 S  
HETATM   34  O   UNL     1     -11.998   8.246  72.943  1.00  0.00    -0.316 OA 
HETATM   35  O   UNL     1     -12.996   6.741  71.210  1.00  0.00    -0.301 OA 
BRANCH  33  36
HETATM   36  C   UNL     1     -10.666   6.293  72.061  1.00  0.00    -0.228 A  
HETATM   37  C   UNL     1     -10.246   5.883  73.320  1.00  0.00    -0.203 A  
HETATM   38  N   UNL     1      -9.384   4.844  73.131  1.00  0.00    -0.122 NA 
HETATM   39  N   UNL     1      -9.218   4.521  71.844  1.00  0.00    -0.133 NA 
HETATM   40  C   UNL     1      -8.691   4.041  74.110  1.00  0.00    -0.096 C  
HETATM   41  C   UNL     1     -10.042   5.343  71.178  1.00  0.00    -0.212 A  
HETATM   42  C   UNL     1     -10.180   5.042  69.725  1.00  0.00    -0.336 C  
ENDBRANCH  33  36
ENDBRANCH  31  33
ENDBRANCH  13  29
ENDBRANCH   4   9
TORSDOF 8
ENDMDL
MODEL       20
REMARK 921   NORMALIZED FREE ENERGY PREDICTED BY IDOCK:   -7.07 KCAL/MOL
REMARK 922        TOTAL FREE ENERGY PREDICTED BY IDOCK:  -12.01 KCAL/MOL
REMARK 923 INTER-LIGAND FREE ENERGY PREDICTED BY IDOCK:   -9.93 KCAL/MOL
REMARK 924 INTRA-LIGAND FREE ENERGY PREDICTED BY IDOCK:   -2.08 KCAL/MOL
REMARK 927      BINDING AFFINITY PREDICTED BY RF-SCORE:    0.00 PKD
ROOT
HETATM    1  C   UNL     1     -11.851  15.242  69.032  1.00  0.00    -0.342 C  
HETATM    2  C   UNL     1     -12.277  13.932  68.368  1.00  0.00    -0.194 C  
HETATM    3  C   UNL     1     -11.376  12.775  68.787  1.00  0.00    -0.288 C  
HETATM    4  N   UNL     1     -10.327  12.702  67.766  1.00  0.00    -0.216 NA 
HETATM    5  C   UNL     1     -11.256  11.928  65.636  1.00  0.00    -0.360 C  
HETATM    6  C   UNL     1     -10.897  13.182  66.455  1.00  0.00    -0.287 C  
HETATM    7  C   UNL     1     -12.174  13.978  66.846  1.00  0.00    -0.415 C  
HETATM    8  C   UNL     1     -10.079  14.084  65.524  1.00  0.00    -0.343 C  
ENDROOT
BRANCH   4   9
HETATM    9  C   UNL     1      -8.991  12.728  68.131  1.00  0.00    -0.199 A  
HETATM   10  N   UNL     1      -8.483  13.985  68.344  1.00  0.00    -0.165 NA 
HETATM   11  C   UNL     1      -7.207  14.216  68.767  1.00  0.00    -0.120 A  
HETATM   12  C   UNL     1      -6.349  13.167  69.002  1.00  0.00    -0.099 A  
HETATM   13  C   UNL     1      -8.153  11.607  68.335  1.00  0.00    -0.153 A  
HETATM   14  C   UNL     1      -6.834  11.869  68.792  1.00  0.00    -0.093 A  
BRANCH  11  15
HETATM   15  N   UNL     1      -6.770  15.582  68.983  1.00  0.00    -0.123 NA 
HETATM   16  C   UNL     1      -5.659  15.969  69.720  1.00  0.00    -0.144 A  
HETATM   17  C   UNL     1      -5.604  17.338  69.702  1.00  0.00    -0.212 A  
HETATM   18  N   UNL     1      -7.413  16.684  68.460  1.00  0.00    -0.193 NA 
HETATM   19  C   UNL     1      -6.701  17.718  68.926  1.00  0.00    -0.237 A  
BRANCH  19  20
HETATM   20  O   UNL     1      -7.009  19.009  68.671  1.00  0.00    -0.263 OA 
BRANCH  20  21
HETATM   21  C   UNL     1      -8.382  19.375  68.803  1.00  0.00    -0.344 C  
BRANCH  21  22
HETATM   22  C   UNL     1      -8.969  19.718  67.406  1.00  0.00    -0.402 C  
HETATM   23  F   UNL     1      -9.870  17.989  66.004  1.00  0.00    -0.312 F  
HETATM   24  F   UNL     1     -10.360  17.891  68.117  1.00  0.00    -0.320 F  
HETATM   25  C   UNL     1      -7.875  19.602  66.324  1.00  0.00    -0.331 C  
HETATM   26  C   UNL     1      -9.482  21.173  67.385  1.00  0.00    -0.114 C  
HETATM   27  C   UNL     1     -10.123  18.747  67.097  1.00  0.00    -0.354 C  
HETATM   28  F   UNL     1     -11.285  19.397  66.857  1.00  0.00    -0.506 F  
ENDBRANCH  21  22
ENDBRANCH  20  21
ENDBRANCH  19  20
ENDBRANCH  11  15
BRANCH  13  29
HETATM   29  C   UNL     1      -8.431  10.120  68.173  1.00  0.00    -0.118 C  
HETATM   30  H   UNL     1      -9.867  10.050  69.680  1.00  0.00     0.000 HD 
HETATM   31  N   UNL     1      -9.322   9.467  69.047  1.00  0.00    -0.150 N  
HETATM   32  O   UNL     1      -7.942   9.534  67.216  1.00  0.00    -0.105 OA 
BRANCH  31  33
HETATM   33  S   UNL     1      -9.563   7.788  69.133  1.00  0.00    -0.156 S  
HETATM   34  O   UNL     1     -10.339   7.399  67.983  1.00  0.00    -0.184 OA 
HETATM   35  O   UNL     1      -8.231   7.247  69.324  1.00  0.00    -0.127 OA 
BRANCH  33  36
HETATM   36  C   UNL     1     -10.463   7.174  70.493  1.00  0.00    -0.212 A  
HETATM   37  C   UNL     1     -10.324   5.923  71.077  1.00  0.00    -0.223 A  
HETATM   38  N   UNL     1     -11.132   5.906  72.174  1.00  0.00    -0.268 NA 
HETATM   39  N   UNL     1     -11.779   7.058  72.374  1.00  0.00    -0.247 NA 
HETATM   40  C   UNL     1     -11.333   4.857  73.146  1.00  0.00    -0.315 C  
HETATM   41  C   UNL     1     -11.334   7.870  71.403  1.00  0.00    -0.252 A  
HETATM   42  C   UNL     1     -11.770   9.289  71.531  1.00  0.00    -0.450 C  
ENDBRANCH  33  36
ENDBRANCH  31  33
ENDBRANCH  13  29
ENDBRANCH   4   9
TORSDOF 8
ENDMDL
MODEL       21
REMARK 921   NORMALIZED FREE ENERGY PREDICTED BY IDOCK:   -7.04 KCAL/MOL
REMARK 922        TOTAL FREE ENERGY PREDICTED BY IDOCK:  -11.96 KCAL/MOL
REMARK 923 INTER-LIGAND FREE ENERGY PREDICTED BY IDOCK:  -11.59 KCAL/MOL
REMARK 924 INTRA-LIGAND FREE ENERGY PREDICTED BY IDOCK:   -0.37 KCAL/MOL
REMARK 927      BINDING AFFINITY PREDICTED BY RF-SCORE:    0.00 PKD
ROOT
HETATM    1  C   UNL     1     -10.816   7.115  67.149  1.00  0.00    -0.403 C  
HETATM    2  C   UNL     1      -9.341   7.478  66.983  1.00  0.00    -0.186 C  
HETATM    3  C   UNL     1      -8.913   8.549  67.980  1.00  0.00    -0.141 C  
HETATM    4  N   UNL     1      -9.085   9.828  67.283  1.00  0.00    -0.134 NA 
HETATM    5  C   UNL     1      -7.431  10.057  65.491  1.00  0.00    -0.137 C  
HETATM    6  C   UNL     1      -8.869   9.604  65.808  1.00  0.00    -0.157 C  
HETATM    7  C   UNL     1      -9.028   8.071  65.611  1.00  0.00    -0.102 C  
HETATM    8  C   UNL     1      -9.770  10.281  64.770  1.00  0.00    -0.397 C  
ENDROOT
BRANCH   4   9
HETATM    9  C   UNL     1      -9.842  10.839  67.851  1.00  0.00    -0.167 A  
HETATM   10  N   UNL     1      -9.982  11.956  67.066  1.00  0.00    -0.201 NA 
HETATM   11  C   UNL     1     -10.737  13.034  67.424  1.00  0.00    -0.245 A  
HETATM   12  C   UNL     1     -11.410  13.047  68.622  1.00  0.00    -0.329 A  
HETATM   13  C   UNL     1     -10.492  10.798  69.106  1.00  0.00    -0.243 A  
HETATM   14  C   UNL     1     -11.289  11.923  69.451  1.00  0.00    -0.327 A  
BRANCH  11  15
HETATM   15  N   UNL     1     -10.838  14.159  66.515  1.00  0.00    -0.295 NA 
HETATM   16  C   UNL     1     -11.593  14.195  65.350  1.00  0.00    -0.334 A  
HETATM   17  C   UNL     1     -11.403  15.420  64.768  1.00  0.00    -0.381 A  
HETATM   18  N   UNL     1     -10.191  15.361  66.709  1.00  0.00    -0.265 NA 
HETATM   19  C   UNL     1     -10.534  16.084  65.636  1.00  0.00    -0.397 A  
BRANCH  19  20
HETATM   20  O   UNL     1     -10.088  17.340  65.410  1.00  0.00    -0.574 OA 
BRANCH  20  21
HETATM   21  C   UNL     1     -10.634  18.369  66.234  1.00  0.00    -0.311 C  
BRANCH  21  22
HETATM   22  C   UNL     1      -9.511  18.990  67.109  1.00  0.00    -0.350 C  
HETATM   23  F   UNL     1      -9.880  19.420  69.443  1.00  0.00    -0.440 F  
HETATM   24  F   UNL     1     -10.634  17.540  68.663  1.00  0.00    -0.334 F  
HETATM   25  C   UNL     1      -9.631  20.527  67.120  1.00  0.00    -0.570 C  
HETATM   26  C   UNL     1      -8.125  18.642  66.526  1.00  0.00    -0.301 C  
HETATM   27  C   UNL     1      -9.632  18.440  68.543  1.00  0.00    -0.345 C  
HETATM   28  F   UNL     1      -8.500  17.819  68.947  1.00  0.00    -0.287 F  
ENDBRANCH  21  22
ENDBRANCH  20  21
ENDBRANCH  19  20
ENDBRANCH  11  15
BRANCH  13  29
HETATM   29  C   UNL     1     -10.514   9.718  70.177  1.00  0.00    -0.286 C  
HETATM   30  H   UNL     1     -12.261   8.822  69.479  1.00  0.00     0.000 HD 
HETATM   31  N   UNL     1     -11.591   8.812  70.247  1.00  0.00    -0.100 N  
HETATM   32  O   UNL     1      -9.538   9.595  70.905  1.00  0.00    -0.207 OA 
BRANCH  31  33
HETATM   33  S   UNL     1     -11.865   7.704  71.505  1.00  0.00    -0.307 S  
HETATM   34  O   UNL     1     -11.309   8.265  72.710  1.00  0.00    -0.381 OA 
HETATM   35  O   UNL     1     -13.284   7.420  71.425  1.00  0.00    -0.364 OA 
BRANCH  33  36
HETATM   36  C   UNL     1     -11.116   6.136  71.370  1.00  0.00    -0.288 A  
HETATM   37  C   UNL     1     -10.557   5.584  70.225  1.00  0.00    -0.287 A  
HETATM   38  N   UNL     1      -9.986   4.402  70.593  1.00  0.00    -0.208 NA 
HETATM   39  N   UNL     1     -10.106   4.140  71.898  1.00  0.00    -0.176 NA 
HETATM   40  C   UNL     1      -9.248   3.455  69.793  1.00  0.00    -0.150 C  
HETATM   41  C   UNL     1     -10.730   5.213  72.405  1.00  0.00    -0.216 A  
HETATM   42  C   UNL     1     -10.807   5.243  73.893  1.00  0.00    -0.269 C  
ENDBRANCH  33  36
ENDBRANCH  31  33
ENDBRANCH  13  29
ENDBRANCH   4   9
TORSDOF 8
ENDMDL
MODEL       22
REMARK 921   NORMALIZED FREE ENERGY PREDICTED BY IDOCK:   -7.03 KCAL/MOL
REMARK 922        TOTAL FREE ENERGY PREDICTED BY IDOCK:  -11.95 KCAL/MOL
REMARK 923 INTER-LIGAND FREE ENERGY PREDICTED BY IDOCK:  -10.32 KCAL/MOL
REMARK 924 INTRA-LIGAND FREE ENERGY PREDICTED BY IDOCK:   -1.63 KCAL/MOL
REMARK 927      BINDING AFFINITY PREDICTED BY RF-SCORE:    0.00 PKD
ROOT
HETATM    1  C   UNL     1      -6.882  10.223  68.407  1.00  0.00    -0.061 C  
HETATM    2  C   UNL     1      -7.104  10.949  67.081  1.00  0.00    -0.103 C  
HETATM    3  C   UNL     1      -7.943  12.210  67.267  1.00  0.00    -0.176 C  
HETATM    4  N   UNL     1      -9.330  11.798  67.028  1.00  0.00    -0.180 NA 
HETATM    5  C   UNL     1      -9.669  11.261  64.662  1.00  0.00    -0.294 C  
HETATM    6  C   UNL     1      -9.331  10.659  66.040  1.00  0.00    -0.186 C  
HETATM    7  C   UNL     1      -7.877  10.109  66.067  1.00  0.00    -0.122 C  
HETATM    8  C   UNL     1     -10.264   9.458  66.225  1.00  0.00    -0.284 C  
ENDROOT
BRANCH   4   9
HETATM    9  C   UNL     1     -10.310  12.059  67.971  1.00  0.00    -0.195 A  
HETATM   10  N   UNL     1     -10.507  11.050  68.882  1.00  0.00    -0.196 NA 
HETATM   11  C   UNL     1     -11.384  11.141  69.922  1.00  0.00    -0.268 A  
HETATM   12  C   UNL     1     -12.132  12.279  70.107  1.00  0.00    -0.364 A  
HETATM   13  C   UNL     1     -11.065  13.248  68.094  1.00  0.00    -0.286 A  
HETATM   14  C   UNL     1     -11.959  13.328  69.195  1.00  0.00    -0.343 A  
BRANCH  11  15
HETATM   15  N   UNL     1     -11.505  10.027  70.843  1.00  0.00    -0.347 NA 
HETATM   16  C   UNL     1     -12.697   9.486  71.307  1.00  0.00    -0.332 A  
HETATM   17  C   UNL     1     -12.384   8.470  72.171  1.00  0.00    -0.444 A  
HETATM   18  N   UNL     1     -10.428   9.348  71.371  1.00  0.00    -0.331 NA 
HETATM   19  C   UNL     1     -10.988   8.437  72.176  1.00  0.00    -0.341 A  
BRANCH  19  20
HETATM   20  O   UNL     1     -10.276   7.564  72.922  1.00  0.00    -0.223 OA 
BRANCH  20  21
HETATM   21  C   UNL     1     -10.941   6.361  73.303  1.00  0.00    -0.190 C  
BRANCH  21  22
HETATM   22  C   UNL     1      -9.909   5.203  73.407  1.00  0.00    -0.170 C  
HETATM   23  F   UNL     1     -10.234   3.165  72.180  1.00  0.00    -0.228 F  
HETATM   24  F   UNL     1     -10.666   5.018  71.134  1.00  0.00    -0.278 F  
HETATM   25  C   UNL     1     -10.310   4.230  74.534  1.00  0.00    -0.291 C  
HETATM   26  C   UNL     1      -8.514   5.762  73.758  1.00  0.00    -0.115 C  
HETATM   27  C   UNL     1      -9.855   4.459  72.060  1.00  0.00    -0.176 C  
HETATM   28  F   UNL     1      -8.610   4.451  71.532  1.00  0.00    -0.102 F  
ENDBRANCH  21  22
ENDBRANCH  20  21
ENDBRANCH  19  20
ENDBRANCH  11  15
BRANCH  13  29
HETATM   29  C   UNL     1     -11.069  14.510  67.245  1.00  0.00    -0.312 C  
HETATM   30  H   UNL     1      -9.238  15.202  67.959  1.00  0.00     0.000 HD 
HETATM   31  N   UNL     1     -10.040  15.462  67.384  1.00  0.00    -0.232 N  
HETATM   32  O   UNL     1     -11.925  14.630  66.378  1.00  0.00    -0.356 OA 
BRANCH  31  33
HETATM   33  S   UNL     1     -10.023  17.006  66.676  1.00  0.00    -0.315 S  
HETATM   34  O   UNL     1     -10.058  16.830  65.246  1.00  0.00    -0.577 OA 
HETATM   35  O   UNL     1     -11.097  17.715  67.345  1.00  0.00    -0.150 OA 
BRANCH  33  36
HETATM   36  C   UNL     1      -8.623  18.003  66.959  1.00  0.00    -0.245 A  
HETATM   37  C   UNL     1      -8.370  19.248  66.398  1.00  0.00    -0.321 A  
HETATM   38  N   UNL     1      -7.230  19.719  66.978  1.00  0.00    -0.211 NA 
HETATM   39  N   UNL     1      -6.721  18.891  67.896  1.00  0.00    -0.213 NA 
HETATM   40  C   UNL     1      -6.553  20.978  66.774  1.00  0.00    -0.308 C  
HETATM   41  C   UNL     1      -7.590  17.871  67.952  1.00  0.00    -0.221 A  
HETATM   42  C   UNL     1      -7.338  16.900  69.055  1.00  0.00    -0.231 C  
ENDBRANCH  33  36
ENDBRANCH  31  33
ENDBRANCH  13  29
ENDBRANCH   4   9
TORSDOF 8
ENDMDL
MODEL       23
REMARK 921   NORMALIZED FREE ENERGY PREDICTED BY IDOCK:   -7.03 KCAL/MOL
REMARK 922        TOTAL FREE ENERGY PREDICTED BY IDOCK:  -11.94 KCAL/MOL
REMARK 923 INTER-LIGAND FREE ENERGY PREDICTED BY IDOCK:   -9.91 KCAL/MOL
REMARK 924 INTRA-LIGAND FREE ENERGY PREDICTED BY IDOCK:   -2.03 KCAL/MOL
REMARK 927      BINDING AFFINITY PREDICTED BY RF-SCORE:    0.00 PKD
ROOT
HETATM    1  C   UNL     1     -12.369  11.503  63.668  1.00  0.00    -0.132 C  
HETATM    2  C   UNL     1     -11.729  12.832  63.270  1.00  0.00    -0.444 C  
HETATM    3  C   UNL     1     -10.295  12.938  63.779  1.00  0.00    -0.114 C  
HETATM    4  N   UNL     1     -10.387  13.615  65.077  1.00  0.00    -0.372 NA 
HETATM    5  C   UNL     1     -11.033  15.959  64.776  1.00  0.00    -0.392 C  
HETATM    6  C   UNL     1     -11.575  14.543  65.052  1.00  0.00    -0.382 C  
HETATM    7  C   UNL     1     -12.448  14.039  63.869  1.00  0.00    -0.170 C  
HETATM    8  C   UNL     1     -12.502  14.667  66.266  1.00  0.00     0.016 C  
ENDROOT
BRANCH   4   9
HETATM    9  C   UNL     1      -9.822  13.046  66.206  1.00  0.00    -0.278 A  
HETATM   10  N   UNL     1     -10.059  11.701  66.345  1.00  0.00    -0.209 NA 
HETATM   11  C   UNL     1      -9.539  10.950  67.358  1.00  0.00    -0.163 A  
HETATM   12  C   UNL     1      -8.733  11.525  68.311  1.00  0.00    -0.162 A  
HETATM   13  C   UNL     1      -9.017  13.703  67.165  1.00  0.00    -0.235 A  
HETATM   14  C   UNL     1      -8.471  12.898  68.201  1.00  0.00    -0.176 A  
BRANCH  11  15
HETATM   15  N   UNL     1      -9.832   9.531  67.407  1.00  0.00    -0.161 NA 
HETATM   16  C   UNL     1      -9.592   8.618  66.388  1.00  0.00    -0.247 A  
HETATM   17  C   UNL     1     -10.027   7.392  66.816  1.00  0.00    -0.300 A  
HETATM   18  N   UNL     1     -10.386   8.900  68.500  1.00  0.00    -0.198 NA 
HETATM   19  C   UNL     1     -10.508   7.626  68.105  1.00  0.00    -0.181 A  
BRANCH  19  20
HETATM   20  O   UNL     1     -11.041   6.654  68.878  1.00  0.00    -0.272 OA 
BRANCH  20  21
HETATM   21  C   UNL     1     -11.448   7.036  70.191  1.00  0.00    -0.256 C  
BRANCH  21  22
HETATM   22  C   UNL     1     -10.495   6.398  71.240  1.00  0.00    -0.258 C  
HETATM   23  F   UNL     1     -11.002   6.522  73.584  1.00  0.00    -0.269 F  
HETATM   24  F   UNL     1     -12.654   6.083  72.247  1.00  0.00    -0.361 F  
HETATM   25  C   UNL     1      -9.460   7.436  71.721  1.00  0.00    -0.166 C  
HETATM   26  C   UNL     1      -9.712   5.228  70.608  1.00  0.00    -0.249 C  
HETATM   27  C   UNL     1     -11.329   5.892  72.431  1.00  0.00    -0.307 C  
HETATM   28  F   UNL     1     -11.153   4.568  72.650  1.00  0.00    -0.248 F  
ENDBRANCH  21  22
ENDBRANCH  20  21
ENDBRANCH  19  20
ENDBRANCH  11  15
BRANCH  13  29
HETATM   29  C   UNL     1      -8.595  15.160  67.275  1.00  0.00    -0.198 C  
HETATM   30  H   UNL     1     -10.089  15.668  68.636  1.00  0.00     0.000 HD 
HETATM   31  N   UNL     1      -9.351  16.060  68.051  1.00  0.00    -0.201 N  
HETATM   32  O   UNL     1      -7.540  15.505  66.759  1.00  0.00    -0.179 OA 
BRANCH  31  33
HETATM   33  S   UNL     1      -9.137  17.745  68.093  1.00  0.00    -0.280 S  
HETATM   34  O   UNL     1      -9.125  18.217  66.732  1.00  0.00    -0.267 OA 
HETATM   35  O   UNL     1     -10.158  18.210  69.012  1.00  0.00    -0.377 OA 
BRANCH  33  36
HETATM   36  C   UNL     1      -7.652  18.348  68.777  1.00  0.00    -0.275 A  
HETATM   37  C   UNL     1      -7.303  19.681  68.943  1.00  0.00    -0.338 A  
HETATM   38  N   UNL     1      -6.118  19.699  69.616  1.00  0.00    -0.287 NA 
HETATM   39  N   UNL     1      -5.667  18.480  69.928  1.00  0.00    -0.239 NA 
HETATM   40  C   UNL     1      -5.339  20.828  70.068  1.00  0.00    -0.352 C  
HETATM   41  C   UNL     1      -6.619  17.643  69.488  1.00  0.00    -0.149 A  
HETATM   42  C   UNL     1      -6.434  16.221  69.896  1.00  0.00    -0.087 C  
ENDBRANCH  33  36
ENDBRANCH  31  33
ENDBRANCH  13  29
ENDBRANCH   4   9
TORSDOF 8
ENDMDL
MODEL       24
REMARK 921   NORMALIZED FREE ENERGY PREDICTED BY IDOCK:   -6.78 KCAL/MOL
REMARK 922        TOTAL FREE ENERGY PREDICTED BY IDOCK:  -11.58 KCAL/MOL
REMARK 923 INTER-LIGAND FREE ENERGY PREDICTED BY IDOCK:   -9.41 KCAL/MOL
REMARK 924 INTRA-LIGAND FREE ENERGY PREDICTED BY IDOCK:   -2.17 KCAL/MOL
REMARK 927      BINDING AFFINITY PREDICTED BY RF-SCORE:    0.00 PKD
ROOT
HETATM    1  C   UNL     1     -10.369  13.199  64.365  1.00  0.00    -0.390 C  
HETATM    2  C   UNL     1     -10.949  11.963  65.052  1.00  0.00    -0.365 C  
HETATM    3  C   UNL     1     -10.711  11.997  66.559  1.00  0.00    -0.258 C  
HETATM    4  N   UNL     1      -9.457  11.267  66.776  1.00  0.00    -0.176 NA 
HETATM    5  C   UNL     1      -9.768   8.879  66.325  1.00  0.00    -0.345 C  
HETATM    6  C   UNL     1      -9.321  10.215  65.703  1.00  0.00    -0.199 C  
HETATM    7  C   UNL     1     -10.299  10.664  64.582  1.00  0.00    -0.353 C  
HETATM    8  C   UNL     1      -7.969   9.947  65.033  1.00  0.00    -0.137 C  
ENDROOT
BRANCH   4   9
HETATM    9  C   UNL     1      -8.418  11.853  67.478  1.00  0.00    -0.161 A  
HETATM   10  N   UNL     1      -8.119  13.135  67.089  1.00  0.00    -0.142 NA 
HETATM   11  C   UNL     1      -7.169  13.901  67.698  1.00  0.00    -0.174 A  
HETATM   12  C   UNL     1      -6.447  13.405  68.758  1.00  0.00    -0.098 A  
HETATM   13  C   UNL     1      -7.697  11.277  68.550  1.00  0.00    -0.131 A  
HETATM   14  C   UNL     1      -6.724  12.098  69.181  1.00  0.00    -0.100 A  
BRANCH  11  15
HETATM   15  N   UNL     1      -6.941  15.252  67.225  1.00  0.00    -0.230 NA 
HETATM   16  C   UNL     1      -5.754  15.964  67.348  1.00  0.00    -0.056 A  
HETATM   17  C   UNL     1      -5.953  17.202  66.798  1.00  0.00    -0.235 A  
HETATM   18  N   UNL     1      -7.891  16.006  66.570  1.00  0.00    -0.239 NA 
HETATM   19  C   UNL     1      -7.274  17.173  66.347  1.00  0.00    -0.290 A  
BRANCH  19  20
HETATM   20  O   UNL     1      -7.868  18.225  65.742  1.00  0.00    -0.517 OA 
BRANCH  20  21
HETATM   21  C   UNL     1      -8.166  19.350  66.567  1.00  0.00    -0.314 C  
BRANCH  21  22
HETATM   22  C   UNL     1      -9.647  19.279  67.032  1.00  0.00    -0.394 C  
HETATM   23  F   UNL     1     -10.417  17.447  68.379  1.00  0.00    -0.314 F  
HETATM   24  F   UNL     1      -8.478  18.284  68.880  1.00  0.00    -0.313 F  
HETATM   25  C   UNL     1     -10.490  18.485  66.013  1.00  0.00    -0.433 C  
HETATM   26  C   UNL     1     -10.249  20.698  67.117  1.00  0.00    -0.201 C  
HETATM   27  C   UNL     1      -9.706  18.598  68.412  1.00  0.00    -0.367 C  
HETATM   28  F   UNL     1     -10.288  19.387  69.344  1.00  0.00    -0.383 F  
ENDBRANCH  21  22
ENDBRANCH  20  21
ENDBRANCH  19  20
ENDBRANCH  11  15
BRANCH  13  29
HETATM   29  C   UNL     1      -7.799   9.899  69.186  1.00  0.00    -0.105 C  
HETATM   30  H   UNL     1      -9.509  10.347  70.289  1.00  0.00     0.000 HD 
HETATM   31  N   UNL     1      -8.792   9.636  70.150  1.00  0.00    -0.228 N  
HETATM   32  O   UNL     1      -7.070   9.007  68.772  1.00  0.00    -0.068 OA 
BRANCH  31  33
HETATM   33  S   UNL     1      -8.894   8.232  71.100  1.00  0.00    -0.164 S  
HETATM   34  O   UNL     1      -7.566   7.924  71.568  1.00  0.00    -0.073 OA 
HETATM   35  O   UNL     1      -9.948   8.523  72.052  1.00  0.00    -0.254 OA 
BRANCH  33  36
HETATM   36  C   UNL     1      -9.430   6.770  70.317  1.00  0.00    -0.162 A  
HETATM   37  C   UNL     1      -9.326   6.473  68.965  1.00  0.00    -0.128 A  
HETATM   38  N   UNL     1      -9.758   5.190  68.807  1.00  0.00    -0.143 NA 
HETATM   39  N   UNL     1     -10.120   4.608  69.954  1.00  0.00    -0.235 NA 
HETATM   40  C   UNL     1      -9.825   4.388  67.608  1.00  0.00    -0.113 C  
HETATM   41  C   UNL     1      -9.863   5.526  70.897  1.00  0.00    -0.183 A  
HETATM   42  C   UNL     1     -10.004   5.036  72.298  1.00  0.00    -0.233 C  
ENDBRANCH  33  36
ENDBRANCH  31  33
ENDBRANCH  13  29
ENDBRANCH   4   9
TORSDOF 8
ENDMDL
MODEL       25
REMARK 921   NORMALIZED FREE ENERGY PREDICTED BY IDOCK:   -6.77 KCAL/MOL
REMARK 922        TOTAL FREE ENERGY PREDICTED BY IDOCK:  -11.56 KCAL/MOL
REMARK 923 INTER-LIGAND FREE ENERGY PREDICTED BY IDOCK:  -10.91 KCAL/MOL
REMARK 924 INTRA-LIGAND FREE ENERGY PREDICTED BY IDOCK:   -0.65 KCAL/MOL
REMARK 927      BINDING AFFINITY PREDICTED BY RF-SCORE:    0.00 PKD
ROOT
HETATM    1  C   UNL     1     -10.967   6.347  67.381  1.00  0.00    -0.463 C  
HETATM    2  C   UNL     1      -9.484   6.715  67.410  1.00  0.00    -0.143 C  
HETATM    3  C   UNL     1      -9.177   7.713  68.521  1.00  0.00    -0.143 C  
HETATM    4  N   UNL     1      -9.274   9.038  67.899  1.00  0.00    -0.140 NA 
HETATM    5  C   UNL     1      -7.426   9.384  66.328  1.00  0.00    -0.096 C  
HETATM    6  C   UNL     1      -8.889   8.916  66.446  1.00  0.00    -0.152 C  
HETATM    7  C   UNL     1      -9.018   7.400  66.127  1.00  0.00    -0.182 C  
HETATM    8  C   UNL     1      -9.669   9.666  65.360  1.00  0.00    -0.365 C  
ENDROOT
BRANCH   4   9
HETATM    9  C   UNL     1     -10.095  10.010  68.445  1.00  0.00    -0.165 A  
HETATM   10  N   UNL     1     -10.245  11.132  67.668  1.00  0.00    -0.178 NA 
HETATM   11  C   UNL     1     -11.058  12.173  68.005  1.00  0.00    -0.244 A  
HETATM   12  C   UNL     1     -11.784  12.143  69.172  1.00  0.00    -0.384 A  
HETATM   13  C   UNL     1     -10.798   9.926  69.669  1.00  0.00    -0.281 A  
HETATM   14  C   UNL     1     -11.654  11.014  69.992  1.00  0.00    -0.427 A  
BRANCH  11  15
HETATM   15  N   UNL     1     -11.164  13.307  67.107  1.00  0.00    -0.289 NA 
HETATM   16  C   UNL     1     -11.810  13.309  65.878  1.00  0.00    -0.393 A  
HETATM   17  C   UNL     1     -11.665  14.557  65.333  1.00  0.00    -0.354 A  
HETATM   18  N   UNL     1     -10.634  14.550  67.376  1.00  0.00    -0.268 NA 
HETATM   19  C   UNL     1     -10.934  15.268  66.286  1.00  0.00    -0.300 A  
BRANCH  19  20
HETATM   20  O   UNL     1     -10.569  16.559  66.121  1.00  0.00    -0.303 OA 
BRANCH  20  21
HETATM   21  C   UNL     1     -10.362  17.320  67.309  1.00  0.00    -0.331 C  
BRANCH  21  22
HETATM   22  C   UNL     1      -9.618  18.639  66.962  1.00  0.00    -0.319 C  
HETATM   23  F   UNL     1     -10.170  20.685  68.091  1.00  0.00    -0.485 F  
HETATM   24  F   UNL     1     -10.051  18.894  69.312  1.00  0.00    -0.415 F  
HETATM   25  C   UNL     1     -10.375  19.404  65.855  1.00  0.00    -0.536 C  
HETATM   26  C   UNL     1      -8.206  18.330  66.421  1.00  0.00    -0.276 C  
HETATM   27  C   UNL     1      -9.519  19.507  68.230  1.00  0.00    -0.366 C  
HETATM   28  F   UNL     1      -8.237  19.806  68.543  1.00  0.00    -0.356 F  
ENDBRANCH  21  22
ENDBRANCH  20  21
ENDBRANCH  19  20
ENDBRANCH  11  15
BRANCH  13  29
HETATM   29  C   UNL     1     -10.824   8.831  70.724  1.00  0.00    -0.234 C  
HETATM   30  H   UNL     1      -9.435   9.760  71.969  1.00  0.00     0.000 HD 
HETATM   31  N   UNL     1      -9.959   8.896  71.834  1.00  0.00    -0.338 N  
HETATM   32  O   UNL     1     -11.673   7.953  70.637  1.00  0.00    -0.256 OA 
BRANCH  31  33
HETATM   33  S   UNL     1      -9.717   7.654  72.968  1.00  0.00    -0.270 S  
HETATM   34  O   UNL     1      -8.625   8.049  73.821  1.00  0.00    -0.240 OA 
HETATM   35  O   UNL     1     -11.032   7.428  73.534  1.00  0.00    -0.344 OA 
BRANCH  33  36
HETATM   36  C   UNL     1      -9.249   6.090  72.358  1.00  0.00    -0.142 A  
HETATM   37  C   UNL     1     -10.037   4.948  72.326  1.00  0.00    -0.191 A  
HETATM   38  N   UNL     1      -9.323   3.992  71.666  1.00  0.00    -0.126 NA 
HETATM   39  N   UNL     1      -8.132   4.422  71.239  1.00  0.00    -0.081 NA 
HETATM   40  C   UNL     1      -9.697   2.638  71.334  1.00  0.00    -0.147 C  
HETATM   41  C   UNL     1      -8.093   5.717  71.587  1.00  0.00    -0.118 A  
HETATM   42  C   UNL     1      -6.929   6.472  71.041  1.00  0.00    -0.068 C  
ENDBRANCH  33  36
ENDBRANCH  31  33
ENDBRANCH  13  29
ENDBRANCH   4   9
TORSDOF 8
ENDMDL
MODEL       26
REMARK 921   NORMALIZED FREE ENERGY PREDICTED BY IDOCK:   -6.77 KCAL/MOL
REMARK 922        TOTAL FREE ENERGY PREDICTED BY IDOCK:  -11.56 KCAL/MOL
REMARK 923 INTER-LIGAND FREE ENERGY PREDICTED BY IDOCK:   -9.02 KCAL/MOL
REMARK 924 INTRA-LIGAND FREE ENERGY PREDICTED BY IDOCK:   -2.54 KCAL/MOL
REMARK 927      BINDING AFFINITY PREDICTED BY RF-SCORE:    0.00 PKD
ROOT
HETATM    1  C   UNL     1     -10.805   9.975  67.028  1.00  0.00    -0.196 C  
HETATM    2  C   UNL     1     -10.827  11.241  66.171  1.00  0.00    -0.281 C  
HETATM    3  C   UNL     1      -9.436  11.855  66.044  1.00  0.00    -0.229 C  
HETATM    4  N   UNL     1      -9.343  12.844  67.123  1.00  0.00    -0.220 NA 
HETATM    5  C   UNL     1     -10.822  14.744  66.674  1.00  0.00    -0.319 C  
HETATM    6  C   UNL     1     -10.722  13.388  67.398  1.00  0.00    -0.262 C  
HETATM    7  C   UNL     1     -11.691  12.347  66.771  1.00  0.00    -0.430 C  
HETATM    8  C   UNL     1     -11.200  13.631  68.834  1.00  0.00    -0.309 C  
ENDROOT
BRANCH   4   9
HETATM    9  C   UNL     1      -8.290  12.803  68.021  1.00  0.00    -0.173 A  
HETATM   10  N   UNL     1      -8.114  11.589  68.639  1.00  0.00    -0.147 NA 
HETATM   11  C   UNL     1      -7.097  11.332  69.510  1.00  0.00    -0.058 A  
HETATM   12  C   UNL     1      -6.178  12.307  69.818  1.00  0.00    -0.125 A  
HETATM   13  C   UNL     1      -7.391  13.855  68.311  1.00  0.00    -0.117 A  
HETATM   14  C   UNL     1      -6.328  13.560  69.208  1.00  0.00    -0.109 A  
BRANCH  11  15
HETATM   15  N   UNL     1      -6.985  10.010  70.095  1.00  0.00    -0.133 NA 
HETATM   16  C   UNL     1      -5.954   9.108  69.868  1.00  0.00    -0.035 A  
HETATM   17  C   UNL     1      -6.228   7.973  70.584  1.00  0.00    -0.036 A  
HETATM   18  N   UNL     1      -7.904   9.482  70.978  1.00  0.00    -0.310 NA 
HETATM   19  C   UNL     1      -7.431   8.256  71.234  1.00  0.00    -0.081 A  
BRANCH  19  20
HETATM   20  O   UNL     1      -8.054   7.372  72.045  1.00  0.00    -0.092 OA 
BRANCH  20  21
HETATM   21  C   UNL     1      -8.982   6.483  71.427  1.00  0.00    -0.140 C  
BRANCH  21  22
HETATM   22  C   UNL     1     -10.409   6.751  71.980  1.00  0.00    -0.217 C  
HETATM   23  F   UNL     1     -11.657   8.671  71.259  1.00  0.00    -0.277 F  
HETATM   24  F   UNL     1     -10.563   7.585  69.732  1.00  0.00    -0.218 F  
HETATM   25  C   UNL     1     -10.338   7.649  73.233  1.00  0.00    -0.405 C  
HETATM   26  C   UNL     1     -11.075   5.425  72.405  1.00  0.00    -0.289 C  
HETATM   27  C   UNL     1     -11.250   7.436  70.886  1.00  0.00    -0.270 C  
HETATM   28  F   UNL     1     -12.366   6.732  70.587  1.00  0.00    -0.429 F  
ENDBRANCH  21  22
ENDBRANCH  20  21
ENDBRANCH  19  20
ENDBRANCH  11  15
BRANCH  13  29
HETATM   29  C   UNL     1      -7.340  15.285  67.797  1.00  0.00    -0.163 C  
HETATM   30  H   UNL     1      -6.424  16.048  69.505  1.00  0.00     0.000 HD 
HETATM   31  N   UNL     1      -6.860  16.319  68.624  1.00  0.00    -0.135 N  
HETATM   32  O   UNL     1      -7.630  15.497  66.627  1.00  0.00    -0.120 OA 
BRANCH  31  33
HETATM   33  S   UNL     1      -6.946  17.979  68.276  1.00  0.00    -0.235 S  
HETATM   34  O   UNL     1      -6.716  18.696  69.505  1.00  0.00    -0.240 OA 
HETATM   35  O   UNL     1      -6.043  18.155  67.155  1.00  0.00    -0.149 OA 
BRANCH  33  36
HETATM   36  C   UNL     1      -8.466  18.598  67.689  1.00  0.00    -0.267 A  
HETATM   37  C   UNL     1      -8.666  19.322  66.521  1.00  0.00    -0.345 A  
HETATM   38  N   UNL     1     -10.011  19.501  66.392  1.00  0.00    -0.402 NA 
HETATM   39  N   UNL     1     -10.718  18.933  67.374  1.00  0.00    -0.459 NA 
HETATM   40  C   UNL     1     -10.749  20.158  65.339  1.00  0.00     0.017 C  
HETATM   41  C   UNL     1      -9.804  18.317  68.138  1.00  0.00    -0.341 A  
HETATM   42  C   UNL     1     -10.371  17.441  69.202  1.00  0.00    -0.271 C  
ENDBRANCH  33  36
ENDBRANCH  31  33
ENDBRANCH  13  29
ENDBRANCH   4   9
TORSDOF 8
ENDMDL
MODEL       27
REMARK 921   NORMALIZED FREE ENERGY PREDICTED BY IDOCK:   -6.75 KCAL/MOL
REMARK 922        TOTAL FREE ENERGY PREDICTED BY IDOCK:  -11.53 KCAL/MOL
REMARK 923 INTER-LIGAND FREE ENERGY PREDICTED BY IDOCK:   -9.74 KCAL/MOL
REMARK 924 INTRA-LIGAND FREE ENERGY PREDICTED BY IDOCK:   -1.79 KCAL/MOL
REMARK 927      BINDING AFFINITY PREDICTED BY RF-SCORE:    0.00 PKD
ROOT
HETATM    1  C   UNL     1     -12.997   9.252  71.988  1.00  0.00    -0.504 C  
HETATM    2  C   UNL     1     -11.901   8.281  72.427  1.00  0.00    -0.461 C  
HETATM    3  C   UNL     1     -10.515   8.796  72.052  1.00  0.00    -0.344 C  
HETATM    4  N   UNL     1     -10.216   8.205  70.743  1.00  0.00    -0.193 NA 
HETATM    5  C   UNL     1      -9.864   5.790  70.954  1.00  0.00    -0.229 C  
HETATM    6  C   UNL     1     -10.916   6.872  70.646  1.00  0.00    -0.264 C  
HETATM    7  C   UNL     1     -12.010   6.918  71.749  1.00  0.00    -0.372 C  
HETATM    8  C   UNL     1     -11.609   6.442  69.349  1.00  0.00    -0.238 C  
ENDROOT
BRANCH   4   9
HETATM    9  C   UNL     1      -9.846   9.010  69.679  1.00  0.00    -0.178 A  
HETATM   10  N   UNL     1     -10.445  10.246  69.665  1.00  0.00    -0.241 NA 
HETATM   11  C   UNL     1     -10.167  11.202  68.734  1.00  0.00    -0.206 A  
HETATM   12  C   UNL     1      -9.249  10.962  67.739  1.00  0.00    -0.155 A  
HETATM   13  C   UNL     1      -8.908   8.692  68.670  1.00  0.00    -0.142 A  
HETATM   14  C   UNL     1      -8.620   9.710  67.721  1.00  0.00    -0.125 A  
BRANCH  11  15
HETATM   15  N   UNL     1     -10.838  12.485  68.816  1.00  0.00    -0.247 NA 
HETATM   16  C   UNL     1     -11.799  12.837  69.754  1.00  0.00    -0.310 A  
HETATM   17  C   UNL     1     -12.199  14.118  69.480  1.00  0.00    -0.351 A  
HETATM   18  N   UNL     1     -10.589  13.537  67.961  1.00  0.00    -0.234 NA 
HETATM   19  C   UNL     1     -11.434  14.490  68.373  1.00  0.00    -0.302 A  
BRANCH  19  20
HETATM   20  O   UNL     1     -11.538  15.700  67.781  1.00  0.00    -0.270 OA 
BRANCH  20  21
HETATM   21  C   UNL     1     -10.677  16.726  68.271  1.00  0.00    -0.364 C  
BRANCH  21  22
HETATM   22  C   UNL     1      -9.842  17.312  67.099  1.00  0.00    -0.269 C  
HETATM   23  F   UNL     1     -10.858  18.775  65.488  1.00  0.00    -0.509 F  
HETATM   24  F   UNL     1     -11.389  19.090  67.569  1.00  0.00    -0.434 F  
HETATM   25  C   UNL     1      -9.933  16.391  65.865  1.00  0.00    -0.358 C  
HETATM   26  C   UNL     1      -8.353  17.401  67.496  1.00  0.00    -0.212 C  
HETATM   27  C   UNL     1     -10.380  18.713  66.753  1.00  0.00    -0.407 C  
HETATM   28  F   UNL     1      -9.423  19.664  66.852  1.00  0.00    -0.347 F  
ENDBRANCH  21  22
ENDBRANCH  20  21
ENDBRANCH  19  20
ENDBRANCH  11  15
BRANCH  13  29
HETATM   29  C   UNL     1      -8.105   7.424  68.428  1.00  0.00    -0.125 C  
HETATM   30  H   UNL     1      -9.219   6.830  66.771  1.00  0.00     0.000 HD 
HETATM   31  N   UNL     1      -8.488   6.526  67.412  1.00  0.00    -0.119 N  
HETATM   32  O   UNL     1      -7.073   7.253  69.064  1.00  0.00    -0.075 OA 
BRANCH  31  33
HETATM   33  S   UNL     1      -7.832   4.978  67.167  1.00  0.00    -0.096 S  
HETATM   34  O   UNL     1      -6.503   5.147  66.634  1.00  0.00    -0.039 OA 
HETATM   35  O   UNL     1      -8.023   4.306  68.438  1.00  0.00    -0.077 OA 
BRANCH  33  36
HETATM   36  C   UNL     1      -8.633   3.940  66.020  1.00  0.00    -0.112 A  
HETATM   37  C   UNL     1      -9.639   4.307  65.137  1.00  0.00    -0.183 A  
HETATM   38  N   UNL     1      -9.892   3.223  64.351  1.00  0.00    -0.165 NA 
HETATM   39  N   UNL     1      -9.114   2.173  64.631  1.00  0.00    -0.121 NA 
HETATM   40  C   UNL     1     -10.823   3.084  63.256  1.00  0.00    -0.214 C  
HETATM   41  C   UNL     1      -8.291   2.607  65.597  1.00  0.00    -0.094 A  
HETATM   42  C   UNL     1      -7.190   1.665  65.946  1.00  0.00    -0.055 C  
ENDBRANCH  33  36
ENDBRANCH  31  33
ENDBRANCH  13  29
ENDBRANCH   4   9
TORSDOF 8
ENDMDL
MODEL       28
REMARK 921   NORMALIZED FREE ENERGY PREDICTED BY IDOCK:   -6.73 KCAL/MOL
REMARK 922        TOTAL FREE ENERGY PREDICTED BY IDOCK:  -11.52 KCAL/MOL
REMARK 923 INTER-LIGAND FREE ENERGY PREDICTED BY IDOCK:   -9.97 KCAL/MOL
REMARK 924 INTRA-LIGAND FREE ENERGY PREDICTED BY IDOCK:   -1.54 KCAL/MOL
REMARK 927      BINDING AFFINITY PREDICTED BY RF-SCORE:    0.00 PKD
ROOT
HETATM    1  C   UNL     1     -10.631  11.200  64.026  1.00  0.00    -0.436 C  
HETATM    2  C   UNL     1     -11.205  12.591  64.295  1.00  0.00    -0.407 C  
HETATM    3  C   UNL     1     -10.120  13.569  64.732  1.00  0.00    -0.240 C  
HETATM    4  N   UNL     1     -10.114  13.522  66.198  1.00  0.00    -0.298 NA 
HETATM    5  C   UNL     1     -12.155  14.535  67.096  1.00  0.00    -0.301 C  
HETATM    6  C   UNL     1     -11.508  13.202  66.675  1.00  0.00    -0.348 C  
HETATM    7  C   UNL     1     -12.224  12.601  65.432  1.00  0.00    -0.517 C  
HETATM    8  C   UNL     1     -11.738  12.227  67.834  1.00  0.00    -0.410 C  
ENDROOT
BRANCH   4   9
HETATM    9  C   UNL     1      -8.939  13.266  66.886  1.00  0.00    -0.207 A  
HETATM   10  N   UNL     1      -8.745  11.947  67.212  1.00  0.00    -0.164 NA 
HETATM   11  C   UNL     1      -7.624  11.486  67.836  1.00  0.00    -0.113 A  
HETATM   12  C   UNL     1      -6.611  12.350  68.178  1.00  0.00    -0.073 A  
HETATM   13  C   UNL     1      -7.943  14.209  67.229  1.00  0.00    -0.171 A  
HETATM   14  C   UNL     1      -6.775  13.706  67.862  1.00  0.00    -0.156 A  
BRANCH  11  15
HETATM   15  N   UNL     1      -7.505  10.069  68.120  1.00  0.00    -0.083 NA 
HETATM   16  C   UNL     1      -6.417   9.268  67.800  1.00  0.00    -0.059 A  
HETATM   17  C   UNL     1      -6.702   7.994  68.215  1.00  0.00    -0.067 A  
HETATM   18  N   UNL     1      -8.474   9.333  68.768  1.00  0.00    -0.127 NA 
HETATM   19  C   UNL     1      -7.970   8.093  68.790  1.00  0.00    -0.115 A  
BRANCH  19  20
HETATM   20  O   UNL     1      -8.622   7.034  69.319  1.00  0.00    -0.134 OA 
BRANCH  20  21
HETATM   21  C   UNL     1      -9.928   7.282  69.836  1.00  0.00    -0.183 C  
BRANCH  21  22
HETATM   22  C   UNL     1      -9.950   6.996  71.363  1.00  0.00    -0.190 C  
HETATM   23  F   UNL     1      -9.162   8.642  72.923  1.00  0.00    -0.311 F  
HETATM   24  F   UNL     1     -10.377   9.359  71.274  1.00  0.00    -0.338 F  
HETATM   25  C   UNL     1      -8.610   6.376  71.809  1.00  0.00    -0.128 C  
HETATM   26  C   UNL     1     -11.061   5.979  71.700  1.00  0.00    -0.333 C  
HETATM   27  C   UNL     1     -10.198   8.316  72.115  1.00  0.00    -0.285 C  
HETATM   28  F   UNL     1     -11.298   8.256  72.901  1.00  0.00    -0.435 F  
ENDBRANCH  21  22
ENDBRANCH  20  21
ENDBRANCH  19  20
ENDBRANCH  11  15
BRANCH  13  29
HETATM   29  C   UNL     1      -7.885  15.713  67.008  1.00  0.00    -0.231 C  
HETATM   30  H   UNL     1      -9.653  16.106  68.037  1.00  0.00     0.000 HD 
HETATM   31  N   UNL     1      -8.939  16.536  67.450  1.00  0.00    -0.198 N  
HETATM   32  O   UNL     1      -6.866  16.196  66.531  1.00  0.00    -0.198 OA 
BRANCH  31  33
HETATM   33  S   UNL     1      -9.121  18.185  67.085  1.00  0.00    -0.262 S  
HETATM   34  O   UNL     1      -9.717  18.280  65.777  1.00  0.00    -0.494 OA 
HETATM   35  O   UNL     1      -9.812  18.730  68.238  1.00  0.00    -0.332 OA 
BRANCH  33  36
HETATM   36  C   UNL     1      -7.672  19.147  66.974  1.00  0.00    -0.243 A  
HETATM   37  C   UNL     1      -7.180  19.769  65.835  1.00  0.00    -0.306 A  
HETATM   38  N   UNL     1      -6.099  20.504  66.220  1.00  0.00    -0.193 NA 
HETATM   39  N   UNL     1      -5.851  20.434  67.532  1.00  0.00    -0.187 NA 
HETATM   40  C   UNL     1      -5.249  21.363  65.430  1.00  0.00    -0.097 C  
HETATM   41  C   UNL     1      -6.836  19.668  68.023  1.00  0.00    -0.253 A  
HETATM   42  C   UNL     1      -6.887  19.601  69.512  1.00  0.00    -0.350 C  
ENDBRANCH  33  36
ENDBRANCH  31  33
ENDBRANCH  13  29
ENDBRANCH   4   9
TORSDOF 8
ENDMDL
MODEL       29
REMARK 921   NORMALIZED FREE ENERGY PREDICTED BY IDOCK:   -6.70 KCAL/MOL
REMARK 922        TOTAL FREE ENERGY PREDICTED BY IDOCK:  -11.46 KCAL/MOL
REMARK 923 INTER-LIGAND FREE ENERGY PREDICTED BY IDOCK:   -9.94 KCAL/MOL
REMARK 924 INTRA-LIGAND FREE ENERGY PREDICTED BY IDOCK:   -1.52 KCAL/MOL
REMARK 927      BINDING AFFINITY PREDICTED BY RF-SCORE:    0.00 PKD
ROOT
HETATM    1  C   UNL     1     -12.359  10.205  70.794  1.00  0.00    -0.422 C  
HETATM    2  C   UNL     1     -11.121   9.413  71.213  1.00  0.00    -0.446 C  
HETATM    3  C   UNL     1      -9.922   9.741  70.329  1.00  0.00    -0.253 C  
HETATM    4  N   UNL     1      -9.936   8.740  69.258  1.00  0.00    -0.188 NA 
HETATM    5  C   UNL     1      -9.372   6.528  70.145  1.00  0.00    -0.162 C  
HETATM    6  C   UNL     1     -10.541   7.468  69.796  1.00  0.00    -0.241 C  
HETATM    7  C   UNL     1     -11.308   7.904  71.076  1.00  0.00    -0.292 C  
HETATM    8  C   UNL     1     -11.518   6.643  68.952  1.00  0.00    -0.103 C  
ENDROOT
BRANCH   4   9
HETATM    9  C   UNL     1      -9.917   9.135  67.931  1.00  0.00    -0.186 A  
HETATM   10  N   UNL     1     -10.483  10.363  67.692  1.00  0.00    -0.215 NA 
HETATM   11  C   UNL     1     -10.508  10.951  66.462  1.00  0.00    -0.253 A  
HETATM   12  C   UNL     1      -9.952  10.319  65.375  1.00  0.00    -0.371 A  
HETATM   13  C   UNL     1      -9.346   8.423  66.850  1.00  0.00    -0.221 A  
HETATM   14  C   UNL     1      -9.367   9.062  65.581  1.00  0.00    -0.289 A  
BRANCH  11  15
HETATM   15  N   UNL     1     -11.113  12.260  66.318  1.00  0.00    -0.287 NA 
HETATM   16  C   UNL     1     -12.241  12.552  65.563  1.00  0.00    -0.377 A  
HETATM   17  C   UNL     1     -12.475  13.898  65.667  1.00  0.00    -0.538 A  
HETATM   18  N   UNL     1     -10.637  13.397  66.936  1.00  0.00    -0.271 NA 
HETATM   19  C   UNL     1     -11.463  14.361  66.510  1.00  0.00    -0.362 A  
BRANCH  19  20
HETATM   20  O   UNL     1     -11.335  15.660  66.860  1.00  0.00    -0.185 OA 
BRANCH  20  21
HETATM   21  C   UNL     1     -10.518  16.470  66.017  1.00  0.00    -0.310 C  
BRANCH  21  22
HETATM   22  C   UNL     1      -9.920  17.645  66.839  1.00  0.00    -0.323 C  
HETATM   23  F   UNL     1      -9.225  19.669  65.750  1.00  0.00    -0.346 F  
HETATM   24  F   UNL     1     -11.096  18.791  65.085  1.00  0.00    -0.368 F  
HETATM   25  C   UNL     1      -8.384  17.518  66.912  1.00  0.00    -0.255 C  
HETATM   26  C   UNL     1     -10.452  17.608  68.288  1.00  0.00    -0.376 C  
HETATM   27  C   UNL     1     -10.309  18.975  66.169  1.00  0.00    -0.468 C  
HETATM   28  F   UNL     1     -10.989  19.789  67.009  1.00  0.00    -0.567 F  
ENDBRANCH  21  22
ENDBRANCH  20  21
ENDBRANCH  19  20
ENDBRANCH  11  15
BRANCH  13  29
HETATM   29  C   UNL     1      -8.667   7.063  66.807  1.00  0.00    -0.123 C  
HETATM   30  H   UNL     1     -10.038   6.229  65.478  1.00  0.00     0.000 HD 
HETATM   31  N   UNL     1      -9.244   6.005  66.078  1.00  0.00    -0.145 N  
HETATM   32  O   UNL     1      -7.569   6.939  67.335  1.00  0.00    -0.103 OA 
BRANCH  31  33
HETATM   33  S   UNL     1      -8.729   4.387  66.114  1.00  0.00    -0.115 S  
HETATM   34  O   UNL     1      -9.764   3.586  65.512  1.00  0.00    -0.155 OA 
HETATM   35  O   UNL     1      -7.405   4.423  65.524  1.00  0.00    -0.074 OA 
BRANCH  33  36
HETATM   36  C   UNL     1      -8.471   3.662  67.678  1.00  0.00    -0.095 A  
HETATM   37  C   UNL     1      -9.453   3.254  68.570  1.00  0.00    -0.139 A  
HETATM   38  N   UNL     1      -8.816   2.641  69.607  1.00  0.00    -0.078 NA 
HETATM   39  N   UNL     1      -7.488   2.592  69.459  1.00  0.00    -0.044 NA 
HETATM   40  C   UNL     1      -9.375   2.011  70.780  1.00  0.00    -0.125 C  
HETATM   41  C   UNL     1      -7.260   3.146  68.259  1.00  0.00    -0.050 A  
HETATM   42  C   UNL     1      -5.853   3.031  67.779  1.00  0.00    -0.023 C  
ENDBRANCH  33  36
ENDBRANCH  31  33
ENDBRANCH  13  29
ENDBRANCH   4   9
TORSDOF 8
ENDMDL
MODEL       30
REMARK 921   NORMALIZED FREE ENERGY PREDICTED BY IDOCK:   -6.69 KCAL/MOL
REMARK 922        TOTAL FREE ENERGY PREDICTED BY IDOCK:  -11.44 KCAL/MOL
REMARK 923 INTER-LIGAND FREE ENERGY PREDICTED BY IDOCK:   -9.87 KCAL/MOL
REMARK 924 INTRA-LIGAND FREE ENERGY PREDICTED BY IDOCK:   -1.57 KCAL/MOL
REMARK 927      BINDING AFFINITY PREDICTED BY RF-SCORE:    0.00 PKD
ROOT
HETATM    1  C   UNL     1     -11.650  14.515  68.281  1.00  0.00    -0.358 C  
HETATM    2  C   UNL     1     -12.286  13.355  67.516  1.00  0.00    -0.231 C  
HETATM    3  C   UNL     1     -11.481  12.069  67.681  1.00  0.00    -0.322 C  
HETATM    4  N   UNL     1     -10.557  12.034  66.542  1.00  0.00    -0.228 NA 
HETATM    5  C   UNL     1     -11.783  11.648  64.456  1.00  0.00    -0.190 C  
HETATM    6  C   UNL     1     -11.204  12.739  65.376  1.00  0.00    -0.292 C  
HETATM    7  C   UNL     1     -12.336  13.595  66.009  1.00  0.00    -0.493 C  
HETATM    8  C   UNL     1     -10.391  13.674  64.475  1.00  0.00    -0.355 C  
ENDROOT
BRANCH   4   9
HETATM    9  C   UNL     1      -9.197  11.880  66.749  1.00  0.00    -0.194 A  
HETATM   10  N   UNL     1      -8.515  13.054  66.953  1.00  0.00    -0.135 NA 
HETATM   11  C   UNL     1      -7.181  13.108  67.232  1.00  0.00    -0.032 A  
HETATM   12  C   UNL     1      -6.440  11.953  67.321  1.00  0.00    -0.141 A  
HETATM   13  C   UNL     1      -8.488  10.658  66.807  1.00  0.00    -0.134 A  
HETATM   14  C   UNL     1      -7.103  10.736  67.116  1.00  0.00    -0.099 A  
BRANCH  11  15
HETATM   15  N   UNL     1      -6.557  14.398  67.451  1.00  0.00    -0.294 NA 
HETATM   16  C   UNL     1      -5.369  14.616  68.136  1.00  0.00    -0.120 A  
HETATM   17  C   UNL     1      -5.134  15.966  68.141  1.00  0.00    -0.113 A  
HETATM   18  N   UNL     1      -7.072  15.588  66.984  1.00  0.00    -0.222 NA 
HETATM   19  C   UNL     1      -6.207  16.507  67.432  1.00  0.00    -0.161 A  
BRANCH  19  20
HETATM   20  O   UNL     1      -6.353  17.834  67.218  1.00  0.00    -0.149 OA 
BRANCH  20  21
HETATM   21  C   UNL     1      -7.501  18.237  66.474  1.00  0.00    -0.236 C  
BRANCH  21  22
HETATM   22  C   UNL     1      -8.630  18.673  67.448  1.00  0.00    -0.281 C  
HETATM   23  F   UNL     1      -9.465  20.924  67.419  1.00  0.00    -0.552 F  
HETATM   24  F   UNL     1      -9.097  19.991  65.494  1.00  0.00    -0.280 F  
HETATM   25  C   UNL     1      -8.024  19.240  68.748  1.00  0.00    -0.392 C  
HETATM   26  C   UNL     1      -9.498  17.458  67.838  1.00  0.00    -0.265 C  
HETATM   27  C   UNL     1      -9.499  19.742  66.760  1.00  0.00    -0.382 C  
HETATM   28  F   UNL     1     -10.799  19.374  66.691  1.00  0.00    -0.510 F  
ENDBRANCH  21  22
ENDBRANCH  20  21
ENDBRANCH  19  20
ENDBRANCH  11  15
BRANCH  13  29
HETATM   29  C   UNL     1      -8.964   9.226  66.618  1.00  0.00    -0.140 C  
HETATM   30  H   UNL     1      -9.703   9.035  68.556  1.00  0.00     0.000 HD 
HETATM   31  N   UNL     1      -9.512   8.512  67.702  1.00  0.00    -0.143 N  
HETATM   32  O   UNL     1      -8.951   8.748  65.491  1.00  0.00    -0.193 OA 
BRANCH  31  33
HETATM   33  S   UNL     1      -9.880   6.854  67.704  1.00  0.00    -0.142 S  
HETATM   34  O   UNL     1     -11.093   6.676  66.948  1.00  0.00    -0.400 OA 
HETATM   35  O   UNL     1      -8.653   6.217  67.267  1.00  0.00    -0.108 OA 
BRANCH  33  36
HETATM   36  C   UNL     1     -10.213   6.108  69.244  1.00  0.00    -0.201 A  
HETATM   37  C   UNL     1      -9.739   4.880  69.685  1.00  0.00    -0.196 A  
HETATM   38  N   UNL     1     -10.145   4.740  70.978  1.00  0.00    -0.211 NA 
HETATM   39  N   UNL     1     -10.832   5.792  71.435  1.00  0.00    -0.260 NA 
HETATM   40  C   UNL     1      -9.892   3.663  71.905  1.00  0.00    -0.171 C  
HETATM   41  C   UNL     1     -10.826   6.668  70.419  1.00  0.00    -0.266 A  
HETATM   42  C   UNL     1     -11.371   8.014  70.756  1.00  0.00    -0.282 C  
ENDBRANCH  33  36
ENDBRANCH  31  33
ENDBRANCH  13  29
ENDBRANCH   4   9
TORSDOF 8
ENDMDL
MODEL       31
REMARK 921   NORMALIZED FREE ENERGY PREDICTED BY IDOCK:   -6.61 KCAL/MOL
REMARK 922        TOTAL FREE ENERGY PREDICTED BY IDOCK:  -11.34 KCAL/MOL
REMARK 923 INTER-LIGAND FREE ENERGY PREDICTED BY IDOCK:   -9.86 KCAL/MOL
REMARK 924 INTRA-LIGAND FREE ENERGY PREDICTED BY IDOCK:   -1.47 KCAL/MOL
REMARK 927      BINDING AFFINITY PREDICTED BY RF-SCORE:    0.00 PKD
ROOT
HETATM    1  C   UNL     1     -10.960   9.997  70.700  1.00  0.00    -0.392 C  
HETATM    2  C   UNL     1     -11.481  10.184  69.275  1.00  0.00    -0.168 C  
HETATM    3  C   UNL     1     -10.348  10.145  68.256  1.00  0.00    -0.186 C  
HETATM    4  N   UNL     1      -9.943  11.541  68.062  1.00  0.00    -0.183 NA 
HETATM    5  C   UNL     1     -11.695  12.785  66.885  1.00  0.00    -0.447 C  
HETATM    6  C   UNL     1     -11.147  12.424  68.278  1.00  0.00    -0.243 C  
HETATM    7  C   UNL     1     -12.154  11.538  69.063  1.00  0.00    -0.303 C  
HETATM    8  C   UNL     1     -11.025  13.745  69.046  1.00  0.00    -0.277 C  
ENDROOT
BRANCH   4   9
HETATM    9  C   UNL     1      -8.620  11.915  68.220  1.00  0.00    -0.162 A  
HETATM   10  N   UNL     1      -8.326  13.178  67.765  1.00  0.00    -0.157 NA 
HETATM   11  C   UNL     1      -7.094  13.749  67.885  1.00  0.00    -0.158 A  
HETATM   12  C   UNL     1      -6.062  13.065  68.481  1.00  0.00    -0.076 A  
HETATM   13  C   UNL     1      -7.596  11.150  68.824  1.00  0.00    -0.129 A  
HETATM   14  C   UNL     1      -6.325  11.772  68.955  1.00  0.00    -0.078 A  
BRANCH  11  15
HETATM   15  N   UNL     1      -6.889  15.097  67.391  1.00  0.00    -0.232 NA 
HETATM   16  C   UNL     1      -5.705  15.817  67.469  1.00  0.00    -0.084 A  
HETATM   17  C   UNL     1      -5.929  17.049  66.912  1.00  0.00    -0.226 A  
HETATM   18  N   UNL     1      -7.865  15.837  66.757  1.00  0.00    -0.235 NA 
HETATM   19  C   UNL     1      -7.263  17.006  66.503  1.00  0.00    -0.276 A  
BRANCH  19  20
HETATM   20  O   UNL     1      -7.882  18.048  65.905  1.00  0.00    -0.511 OA 
BRANCH  20  21
HETATM   21  C   UNL     1      -9.148  18.429  66.439  1.00  0.00    -0.261 C  
BRANCH  21  22
HETATM   22  C   UNL     1      -8.994  19.733  67.270  1.00  0.00    -0.403 C  
HETATM   23  F   UNL     1     -10.033  19.936  69.425  1.00  0.00    -0.468 F  
HETATM   24  F   UNL     1      -9.075  18.041  68.975  1.00  0.00    -0.265 F  
HETATM   25  C   UNL     1     -10.152  20.704  66.960  1.00  0.00    -0.295 C  
HETATM   26  C   UNL     1      -7.680  20.452  66.897  1.00  0.00    -0.346 C  
HETATM   27  C   UNL     1      -8.992  19.375  68.768  1.00  0.00    -0.349 C  
HETATM   28  F   UNL     1      -7.867  19.796  69.390  1.00  0.00    -0.366 F  
ENDBRANCH  21  22
ENDBRANCH  20  21
ENDBRANCH  19  20
ENDBRANCH  11  15
BRANCH  13  29
HETATM   29  C   UNL     1      -7.620   9.745  69.405  1.00  0.00    -0.104 C  
HETATM   30  H   UNL     1      -7.160   8.808  67.601  1.00  0.00     0.000 HD 
HETATM   31  N   UNL     1      -7.443   8.628  68.564  1.00  0.00    -0.092 N  
HETATM   32  O   UNL     1      -7.698   9.613  70.619  1.00  0.00    -0.225 OA 
BRANCH  31  33
HETATM   33  S   UNL     1      -7.663   7.007  69.021  1.00  0.00    -0.111 S  
HETATM   34  O   UNL     1      -7.583   6.203  67.828  1.00  0.00    -0.093 OA 
HETATM   35  O   UNL     1      -6.708   6.808  70.095  1.00  0.00    -0.049 OA 
BRANCH  33  36
HETATM   36  C   UNL     1      -9.192   6.574  69.736  1.00  0.00    -0.145 A  
HETATM   37  C   UNL     1      -9.501   6.582  71.090  1.00  0.00    -0.167 A  
HETATM   38  N   UNL     1     -10.829   6.291  71.194  1.00  0.00    -0.254 NA 
HETATM   39  N   UNL     1     -11.426   6.112  70.012  1.00  0.00    -0.382 NA 
HETATM   40  C   UNL     1     -11.656   6.205  72.374  1.00  0.00    -0.292 C  
HETATM   41  C   UNL     1     -10.466   6.348  69.106  1.00  0.00    -0.229 A  
HETATM   42  C   UNL     1     -10.942   6.400  67.695  1.00  0.00    -0.441 C  
ENDBRANCH  33  36
ENDBRANCH  31  33
ENDBRANCH  13  29
ENDBRANCH   4   9
TORSDOF 8
ENDMDL
MODEL       32
REMARK 921   NORMALIZED FREE ENERGY PREDICTED BY IDOCK:   -6.53 KCAL/MOL
REMARK 922        TOTAL FREE ENERGY PREDICTED BY IDOCK:  -11.21 KCAL/MOL
REMARK 923 INTER-LIGAND FREE ENERGY PREDICTED BY IDOCK:  -11.44 KCAL/MOL
REMARK 924 INTRA-LIGAND FREE ENERGY PREDICTED BY IDOCK:    0.23 KCAL/MOL
REMARK 927      BINDING AFFINITY PREDICTED BY RF-SCORE:    0.00 PKD
ROOT
HETATM    1  C   UNL     1     -11.023  15.927  64.889  1.00  0.00    -0.427 C  
HETATM    2  C   UNL     1     -12.203  15.051  64.467  1.00  0.00    -0.344 C  
HETATM    3  C   UNL     1     -12.797  14.302  65.656  1.00  0.00    -0.296 C  
HETATM    4  N   UNL     1     -12.117  13.003  65.684  1.00  0.00    -0.431 NA 
HETATM    5  C   UNL     1     -12.809  11.633  63.774  1.00  0.00    -0.138 C  
HETATM    6  C   UNL     1     -11.742  12.627  64.272  1.00  0.00    -0.381 C  
HETATM    7  C   UNL     1     -11.805  13.960  63.476  1.00  0.00     0.016 C  
HETATM    8  C   UNL     1     -10.384  11.988  63.964  1.00  0.00    -0.406 C  
ENDROOT
BRANCH   4   9
HETATM    9  C   UNL     1     -11.489  12.566  66.837  1.00  0.00    -0.353 A  
HETATM   10  N   UNL     1     -11.423  11.201  66.969  1.00  0.00    -0.439 NA 
HETATM   11  C   UNL     1     -10.793  10.577  68.004  1.00  0.00    -0.263 A  
HETATM   12  C   UNL     1     -10.179  11.311  68.992  1.00  0.00    -0.169 A  
HETATM   13  C   UNL     1     -10.895  13.378  67.831  1.00  0.00    -0.263 A  
HETATM   14  C   UNL     1     -10.228  12.708  68.892  1.00  0.00    -0.004 A  
BRANCH  11  15
HETATM   15  N   UNL     1     -10.762   9.128  68.042  1.00  0.00    -0.191 NA 
HETATM   16  C   UNL     1     -10.478   8.295  66.968  1.00  0.00    -0.314 A  
HETATM   17  C   UNL     1     -10.572   7.001  67.407  1.00  0.00    -0.372 A  
HETATM   18  N   UNL     1     -11.002   8.385  69.179  1.00  0.00    -0.007 NA 
HETATM   19  C   UNL     1     -10.901   7.118  68.759  1.00  0.00    -0.120 A  
BRANCH  19  20
HETATM   20  O   UNL     1     -11.095   6.049  69.563  1.00  0.00    -0.373 OA 
BRANCH  20  21
HETATM   21  C   UNL     1     -10.325   6.006  70.763  1.00  0.00    -0.224 C  
BRANCH  21  22
HETATM   22  C   UNL     1     -11.220   6.394  71.973  1.00  0.00    -0.324 C  
HETATM   23  F   UNL     1     -10.274   7.489  73.889  1.00  0.00    -0.366 F  
HETATM   24  F   UNL     1      -9.598   8.167  71.941  1.00  0.00    -0.189 F  
HETATM   25  C   UNL     1     -11.235   5.255  73.013  1.00  0.00    -0.387 C  
HETATM   26  C   UNL     1     -12.676   6.613  71.512  1.00  0.00    -0.248 C  
HETATM   27  C   UNL     1     -10.669   7.683  72.609  1.00  0.00    -0.321 C  
HETATM   28  F   UNL     1     -11.592   8.673  72.635  1.00  0.00    -0.429 F  
ENDBRANCH  21  22
ENDBRANCH  20  21
ENDBRANCH  19  20
ENDBRANCH  11  15
BRANCH  13  29
HETATM   29  C   UNL     1     -10.816  14.892  67.957  1.00  0.00    -0.263 C  
HETATM   30  H   UNL     1      -8.796  14.999  67.461  1.00  0.00     0.000 HD 
HETATM   31  N   UNL     1      -9.582  15.553  67.799  1.00  0.00    -0.209 N  
HETATM   32  O   UNL     1     -11.856  15.523  68.099  1.00  0.00    -0.301 OA 
BRANCH  31  33
HETATM   33  S   UNL     1      -9.296  17.195  68.124  1.00  0.00    -0.272 S  
HETATM   34  O   UNL     1     -10.575  17.854  68.201  1.00  0.00    -0.387 OA 
HETATM   35  O   UNL     1      -8.418  17.181  69.278  1.00  0.00    -0.061 OA 
BRANCH  33  36
HETATM   36  C   UNL     1      -8.408  18.106  66.934  1.00  0.00    -0.245 A  
HETATM   37  C   UNL     1      -7.163  17.785  66.409  1.00  0.00    -0.273 A  
HETATM   38  N   UNL     1      -6.897  18.698  65.433  1.00  0.00    -0.510 NA 
HETATM   39  N   UNL     1      -7.880  19.586  65.256  1.00  0.00    -0.137 NA 
HETATM   40  C   UNL     1      -5.752  18.794  64.559  1.00  0.00    -0.219 C  
HETATM   41  C   UNL     1      -8.841  19.204  66.111  1.00  0.00    -0.212 A  
HETATM   42  C   UNL     1     -10.132  19.934  65.960  1.00  0.00    -0.589 C  
ENDBRANCH  33  36
ENDBRANCH  31  33
ENDBRANCH  13  29
ENDBRANCH   4   9
TORSDOF 8
ENDMDL
MODEL       33
REMARK 921   NORMALIZED FREE ENERGY PREDICTED BY IDOCK:   -6.51 KCAL/MOL
REMARK 922        TOTAL FREE ENERGY PREDICTED BY IDOCK:  -11.19 KCAL/MOL
REMARK 923 INTER-LIGAND FREE ENERGY PREDICTED BY IDOCK:   -9.24 KCAL/MOL
REMARK 924 INTRA-LIGAND FREE ENERGY PREDICTED BY IDOCK:   -1.95 KCAL/MOL
REMARK 927      BINDING AFFINITY PREDICTED BY RF-SCORE:    0.00 PKD
ROOT
HETATM    1  C   UNL     1      -6.192  13.763  68.003  1.00  0.00    -0.141 C  
HETATM    2  C   UNL     1      -5.835  12.392  67.428  1.00  0.00    -0.149 C  
HETATM    3  C   UNL     1      -7.028  11.752  66.725  1.00  0.00    -0.047 C  
HETATM    4  N   UNL     1      -7.683  10.919  67.739  1.00  0.00    -0.106 NA 
HETATM    5  C   UNL     1      -6.280   8.991  68.300  1.00  0.00    -0.054 C  
HETATM    6  C   UNL     1      -6.636  10.432  68.710  1.00  0.00    -0.052 C  
HETATM    7  C   UNL     1      -5.428  11.387  68.503  1.00  0.00    -0.042 C  
HETATM    8  C   UNL     1      -6.919  10.393  70.216  1.00  0.00    -0.104 C  
ENDROOT
BRANCH   4   9
HETATM    9  C   UNL     1      -9.033  11.072  68.006  1.00  0.00    -0.145 A  
HETATM   10  N   UNL     1      -9.390  12.323  68.444  1.00  0.00    -0.192 NA 
HETATM   11  C   UNL     1     -10.678  12.688  68.702  1.00  0.00    -0.242 A  
HETATM   12  C   UNL     1     -11.705  11.790  68.531  1.00  0.00    -0.390 A  
HETATM   13  C   UNL     1     -10.040  10.095  67.830  1.00  0.00    -0.216 A  
HETATM   14  C   UNL     1     -11.377  10.502  68.087  1.00  0.00    -0.324 A  
BRANCH  11  15
HETATM   15  N   UNL     1     -10.955  14.041  69.142  1.00  0.00    -0.245 NA 
HETATM   16  C   UNL     1     -11.928  14.411  70.060  1.00  0.00    -0.334 A  
HETATM   17  C   UNL     1     -11.885  15.775  70.187  1.00  0.00    -0.369 A  
HETATM   18  N   UNL     1     -10.260  15.148  68.701  1.00  0.00    -0.221 NA 
HETATM   19  C   UNL     1     -10.855  16.169  69.330  1.00  0.00    -0.320 A  
BRANCH  19  20
HETATM   20  O   UNL     1     -10.496  17.461  69.159  1.00  0.00    -0.341 OA 
BRANCH  20  21
HETATM   21  C   UNL     1      -9.378  17.704  68.307  1.00  0.00    -0.290 C  
BRANCH  21  22
HETATM   22  C   UNL     1      -9.134  19.233  68.188  1.00  0.00    -0.381 C  
HETATM   23  F   UNL     1      -8.205  20.169  66.180  1.00  0.00    -0.313 F  
HETATM   24  F   UNL     1      -9.714  18.627  65.936  1.00  0.00    -0.306 F  
HETATM   25  C   UNL     1      -7.704  19.584  68.648  1.00  0.00    -0.390 C  
HETATM   26  C   UNL     1     -10.111  20.003  69.102  1.00  0.00    -0.271 C  
HETATM   27  C   UNL     1      -9.337  19.660  66.722  1.00  0.00    -0.364 C  
HETATM   28  F   UNL     1     -10.289  20.613  66.596  1.00  0.00    -0.490 F  
ENDBRANCH  21  22
ENDBRANCH  20  21
ENDBRANCH  19  20
ENDBRANCH  11  15
BRANCH  13  29
HETATM   29  C   UNL     1      -9.948   8.648  67.372  1.00  0.00    -0.210 C  
HETATM   30  H   UNL     1     -10.289   7.849  69.266  1.00  0.00     0.000 HD 
HETATM   31  N   UNL     1     -10.027   7.601  68.312  1.00  0.00    -0.170 N  
HETATM   32  O   UNL     1      -9.903   8.414  66.172  1.00  0.00    -0.221 OA 
BRANCH  31  33
HETATM   33  S   UNL     1      -9.723   5.962  67.989  1.00  0.00    -0.125 S  
HETATM   34  O   UNL     1     -10.798   5.474  67.162  1.00  0.00    -0.234 OA 
HETATM   35  O   UNL     1      -8.361   5.944  67.492  1.00  0.00    -0.106 OA 
BRANCH  33  36
HETATM   36  C   UNL     1      -9.687   4.869  69.346  1.00  0.00    -0.191 A  
HETATM   37  C   UNL     1     -10.049   5.165  70.653  1.00  0.00    -0.239 A  
HETATM   38  N   UNL     1      -9.980   4.000  71.357  1.00  0.00    -0.172 NA 
HETATM   39  N   UNL     1      -9.622   2.951  70.611  1.00  0.00    -0.146 NA 
HETATM   40  C   UNL     1     -10.285   3.752  72.746  1.00  0.00    -0.166 C  
HETATM   41  C   UNL     1      -9.506   3.442  69.368  1.00  0.00    -0.151 A  
HETATM   42  C   UNL     1      -9.300   2.412  68.310  1.00  0.00    -0.265 C  
ENDBRANCH  33  36
ENDBRANCH  31  33
ENDBRANCH  13  29
ENDBRANCH   4   9
TORSDOF 8
ENDMDL
MODEL       34
REMARK 921   NORMALIZED FREE ENERGY PREDICTED BY IDOCK:   -6.51 KCAL/MOL
REMARK 922        TOTAL FREE ENERGY PREDICTED BY IDOCK:  -11.18 KCAL/MOL
REMARK 923 INTER-LIGAND FREE ENERGY PREDICTED BY IDOCK:   -8.95 KCAL/MOL
REMARK 924 INTRA-LIGAND FREE ENERGY PREDICTED BY IDOCK:   -2.24 KCAL/MOL
REMARK 927      BINDING AFFINITY PREDICTED BY RF-SCORE:    0.00 PKD
ROOT
HETATM    1  C   UNL     1     -11.463  14.348  67.042  1.00  0.00    -0.376 C  
HETATM    2  C   UNL     1     -11.867  12.962  67.546  1.00  0.00    -0.407 C  
HETATM    3  C   UNL     1     -10.975  12.504  68.695  1.00  0.00    -0.255 C  
HETATM    4  N   UNL     1      -9.897  11.729  68.072  1.00  0.00    -0.178 NA 
HETATM    5  C   UNL     1     -10.764   9.619  67.179  1.00  0.00    -0.258 C  
HETATM    6  C   UNL     1     -10.432  11.080  66.821  1.00  0.00    -0.251 C  
HETATM    7  C   UNL     1     -11.721  11.879  66.480  1.00  0.00    -0.247 C  
HETATM    8  C   UNL     1      -9.590  11.028  65.541  1.00  0.00    -0.263 C  
ENDROOT
BRANCH   4   9
HETATM    9  C   UNL     1      -8.572  12.044  68.324  1.00  0.00    -0.174 A  
HETATM   10  N   UNL     1      -8.175  13.267  67.841  1.00  0.00    -0.149 NA 
HETATM   11  C   UNL     1      -6.928  13.782  68.038  1.00  0.00    -0.137 A  
HETATM   12  C   UNL     1      -5.986  13.076  68.749  1.00  0.00    -0.076 A  
HETATM   13  C   UNL     1      -7.643  11.259  69.045  1.00  0.00    -0.106 A  
HETATM   14  C   UNL     1      -6.355  11.822  69.255  1.00  0.00    -0.103 A  
BRANCH  11  15
HETATM   15  N   UNL     1      -6.613  15.092  67.504  1.00  0.00    -0.239 NA 
HETATM   16  C   UNL     1      -5.370  15.709  67.554  1.00  0.00    -0.008 A  
HETATM   17  C   UNL     1      -5.491  16.939  66.963  1.00  0.00    -0.190 A  
HETATM   18  N   UNL     1      -7.526  15.896  66.857  1.00  0.00    -0.220 NA 
HETATM   19  C   UNL     1      -6.828  17.001  66.565  1.00  0.00    -0.246 A  
BRANCH  19  20
HETATM   20  O   UNL     1      -7.360  18.076  65.942  1.00  0.00    -0.428 OA 
BRANCH  20  21
HETATM   21  C   UNL     1      -8.707  18.403  66.275  1.00  0.00    -0.191 C  
BRANCH  21  22
HETATM   22  C   UNL     1      -8.729  19.653  67.199  1.00  0.00    -0.367 C  
HETATM   23  F   UNL     1      -9.983  19.635  69.246  1.00  0.00    -0.478 F  
HETATM   24  F   UNL     1      -8.851  17.843  68.775  1.00  0.00    -0.287 F  
HETATM   25  C   UNL     1      -9.918  20.565  66.835  1.00  0.00    -0.465 C  
HETATM   26  C   UNL     1      -7.440  20.481  67.007  1.00  0.00    -0.362 C  
HETATM   27  C   UNL     1      -8.845  19.190  68.663  1.00  0.00    -0.365 C  
HETATM   28  F   UNL     1      -7.819  19.639  69.422  1.00  0.00    -0.382 F  
ENDBRANCH  21  22
ENDBRANCH  20  21
ENDBRANCH  19  20
ENDBRANCH  11  15
BRANCH  13  29
HETATM   29  C   UNL     1      -7.790   9.886  69.683  1.00  0.00    -0.154 C  
HETATM   30  H   UNL     1      -7.675   8.848  67.879  1.00  0.00     0.000 HD 
HETATM   31  N   UNL     1      -7.866   8.734  68.875  1.00  0.00    -0.102 N  
HETATM   32  O   UNL     1      -7.742   9.798  70.903  1.00  0.00    -0.312 OA 
BRANCH  31  33
HETATM   33  S   UNL     1      -8.247   7.172  69.420  1.00  0.00    -0.133 S  
HETATM   34  O   UNL     1      -7.161   6.723  70.254  1.00  0.00    -0.072 OA 
HETATM   35  O   UNL     1      -9.580   7.305  69.976  1.00  0.00    -0.167 OA 
BRANCH  33  36
HETATM   36  C   UNL     1      -8.419   5.921  68.218  1.00  0.00    -0.114 A  
HETATM   37  C   UNL     1      -8.736   4.590  68.452  1.00  0.00    -0.099 A  
HETATM   38  N   UNL     1      -8.881   3.998  67.234  1.00  0.00    -0.112 NA 
HETATM   39  N   UNL     1      -8.705   4.840  66.211  1.00  0.00    -0.113 NA 
HETATM   40  C   UNL     1      -9.239   2.636  66.916  1.00  0.00    -0.097 C  
HETATM   41  C   UNL     1      -8.491   6.033  66.786  1.00  0.00    -0.110 A  
HETATM   42  C   UNL     1      -8.459   7.182  65.838  1.00  0.00    -0.151 C  
ENDBRANCH  33  36
ENDBRANCH  31  33
ENDBRANCH  13  29
ENDBRANCH   4   9
TORSDOF 8
ENDMDL
MODEL       35
REMARK 921   NORMALIZED FREE ENERGY PREDICTED BY IDOCK:   -6.50 KCAL/MOL
REMARK 922        TOTAL FREE ENERGY PREDICTED BY IDOCK:  -11.17 KCAL/MOL
REMARK 923 INTER-LIGAND FREE ENERGY PREDICTED BY IDOCK:  -10.13 KCAL/MOL
REMARK 924 INTRA-LIGAND FREE ENERGY PREDICTED BY IDOCK:   -1.04 KCAL/MOL
REMARK 927      BINDING AFFINITY PREDICTED BY RF-SCORE:    0.00 PKD
ROOT
HETATM    1  C   UNL     1     -10.269  16.487  69.356  1.00  0.00    -0.264 C  
HETATM    2  C   UNL     1     -11.550  15.836  68.837  1.00  0.00    -0.400 C  
HETATM    3  C   UNL     1     -11.572  14.338  69.123  1.00  0.00    -0.305 C  
HETATM    4  N   UNL     1     -11.016  13.699  67.926  1.00  0.00    -0.254 NA 
HETATM    5  C   UNL     1     -12.565  13.918  66.041  1.00  0.00    -0.467 C  
HETATM    6  C   UNL     1     -11.343  14.556  66.728  1.00  0.00    -0.352 C  
HETATM    7  C   UNL     1     -11.699  15.947  67.321  1.00  0.00     0.362 C  
HETATM    8  C   UNL     1     -10.306  14.794  65.626  1.00  0.00    -0.369 C  
ENDROOT
BRANCH   4   9
HETATM    9  C   UNL     1      -9.952  12.819  68.031  1.00  0.00    -0.225 A  
HETATM   10  N   UNL     1     -10.307  11.493  68.028  1.00  0.00    -0.184 NA 
HETATM   11  C   UNL     1      -9.401  10.474  68.063  1.00  0.00    -0.145 A  
HETATM   12  C   UNL     1      -8.053  10.741  68.108  1.00  0.00    -0.117 A  
HETATM   13  C   UNL     1      -8.582  13.160  68.097  1.00  0.00    -0.181 A  
HETATM   14  C   UNL     1      -7.654  12.084  68.116  1.00  0.00    -0.120 A  
BRANCH  11  15
HETATM   15  N   UNL     1      -9.877   9.105  68.036  1.00  0.00    -0.162 NA 
HETATM   16  C   UNL     1     -10.014   8.318  66.900  1.00  0.00    -0.273 A  
HETATM   17  C   UNL     1     -10.510   7.103  67.292  1.00  0.00    -0.372 A  
HETATM   18  N   UNL     1     -10.246   8.399  69.161  1.00  0.00    -0.207 NA 
HETATM   19  C   UNL     1     -10.638   7.213  68.678  1.00  0.00    -0.189 A  
BRANCH  19  20
HETATM   20  O   UNL     1     -11.112   6.213  69.454  1.00  0.00    -0.356 OA 
BRANCH  20  21
HETATM   21  C   UNL     1     -11.773   6.598  70.657  1.00  0.00    -0.394 C  
BRANCH  21  22
HETATM   22  C   UNL     1     -10.963   6.094  71.884  1.00  0.00    -0.311 C  
HETATM   23  F   UNL     1      -9.167   7.409  72.784  1.00  0.00    -0.151 F  
HETATM   24  F   UNL     1     -10.970   8.474  72.213  1.00  0.00    -0.355 F  
HETATM   25  C   UNL     1      -9.733   5.289  71.417  1.00  0.00    -0.219 C  
HETATM   26  C   UNL     1     -11.829   5.149  72.744  1.00  0.00    -0.116 C  
HETATM   27  C   UNL     1     -10.515   7.307  72.720  1.00  0.00    -0.260 C  
HETATM   28  F   UNL     1     -10.960   7.237  73.997  1.00  0.00    -0.308 F  
ENDBRANCH  21  22
ENDBRANCH  20  21
ENDBRANCH  19  20
ENDBRANCH  11  15
BRANCH  13  29
HETATM   29  C   UNL     1      -7.899  14.519  68.125  1.00  0.00    -0.135 C  
HETATM   30  H   UNL     1      -8.504  15.053  66.204  1.00  0.00     0.000 HD 
HETATM   31  N   UNL     1      -7.909  15.341  66.981  1.00  0.00    -0.215 N  
HETATM   32  O   UNL     1      -7.432  14.919  69.183  1.00  0.00    -0.136 OA 
BRANCH  31  33
HETATM   33  S   UNL     1      -7.014  16.771  66.787  1.00  0.00    -0.233 S  
HETATM   34  O   UNL     1      -5.631  16.401  66.623  1.00  0.00    -0.328 OA 
HETATM   35  O   UNL     1      -7.704  17.482  65.728  1.00  0.00    -0.530 OA 
BRANCH  33  36
HETATM   36  C   UNL     1      -7.008  17.900  68.114  1.00  0.00    -0.218 A  
HETATM   37  C   UNL     1      -5.989  18.079  69.041  1.00  0.00    -0.217 A  
HETATM   38  N   UNL     1      -6.348  19.134  69.825  1.00  0.00    -0.257 NA 
HETATM   39  N   UNL     1      -7.515  19.682  69.475  1.00  0.00    -0.183 NA 
HETATM   40  C   UNL     1      -5.628  19.749  70.915  1.00  0.00    -0.270 C  
HETATM   41  C   UNL     1      -7.903  18.992  68.392  1.00  0.00    -0.337 A  
HETATM   42  C   UNL     1      -9.098  19.548  67.695  1.00  0.00    -0.381 C  
ENDBRANCH  33  36
ENDBRANCH  31  33
ENDBRANCH  13  29
ENDBRANCH   4   9
TORSDOF 8
ENDMDL
MODEL       36
REMARK 921   NORMALIZED FREE ENERGY PREDICTED BY IDOCK:   -6.50 KCAL/MOL
REMARK 922        TOTAL FREE ENERGY PREDICTED BY IDOCK:  -11.17 KCAL/MOL
REMARK 923 INTER-LIGAND FREE ENERGY PREDICTED BY IDOCK:   -9.99 KCAL/MOL
REMARK 924 INTRA-LIGAND FREE ENERGY PREDICTED BY IDOCK:   -1.18 KCAL/MOL
REMARK 927      BINDING AFFINITY PREDICTED BY RF-SCORE:    0.00 PKD
ROOT
HETATM    1  C   UNL     1      -6.685   9.485  70.924  1.00  0.00    -0.085 C  
HETATM    2  C   UNL     1      -5.836  10.354  69.997  1.00  0.00    -0.062 C  
HETATM    3  C   UNL     1      -6.545  11.659  69.649  1.00  0.00    -0.096 C  
HETATM    4  N   UNL     1      -7.260  11.396  68.395  1.00  0.00    -0.081 NA 
HETATM    5  C   UNL     1      -5.676  11.124  66.546  1.00  0.00    -0.132 C  
HETATM    6  C   UNL     1      -6.490  10.364  67.610  1.00  0.00    -0.058 C  
HETATM    7  C   UNL     1      -5.556   9.688  68.652  1.00  0.00    -0.036 C  
HETATM    8  C   UNL     1      -7.218   9.237  66.869  1.00  0.00    -0.086 C  
ENDROOT
BRANCH   4   9
HETATM    9  C   UNL     1      -8.618  11.648  68.298  1.00  0.00    -0.162 A  
HETATM   10  N   UNL     1      -8.940  12.755  67.551  1.00  0.00    -0.182 NA 
HETATM   11  C   UNL     1     -10.223  13.134  67.289  1.00  0.00    -0.243 A  
HETATM   12  C   UNL     1     -11.281  12.404  67.778  1.00  0.00    -0.327 A  
HETATM   13  C   UNL     1      -9.660  10.866  68.847  1.00  0.00    -0.192 A  
HETATM   14  C   UNL     1     -10.989  11.269  68.547  1.00  0.00    -0.266 A  
BRANCH  11  15
HETATM   15  N   UNL     1     -10.460  14.308  66.472  1.00  0.00    -0.283 NA 
HETATM   16  C   UNL     1     -11.355  14.391  65.413  1.00  0.00    -0.339 A  
HETATM   17  C   UNL     1     -11.266  15.655  64.891  1.00  0.00    -0.376 A  
HETATM   18  N   UNL     1      -9.821  15.515  66.661  1.00  0.00    -0.245 NA 
HETATM   19  C   UNL     1     -10.311  16.291  65.686  1.00  0.00    -0.363 A  
BRANCH  19  20
HETATM   20  O   UNL     1      -9.924  17.571  65.488  1.00  0.00    -0.552 OA 
BRANCH  20  21
HETATM   21  C   UNL     1     -10.433  18.540  66.402  1.00  0.00    -0.406 C  
BRANCH  21  22
HETATM   22  C   UNL     1      -9.267  19.129  67.242  1.00  0.00    -0.335 C  
HETATM   23  F   UNL     1      -9.592  19.691  69.554  1.00  0.00    -0.401 F  
HETATM   24  F   UNL     1     -10.468  17.828  68.867  1.00  0.00    -0.347 F  
HETATM   25  C   UNL     1      -9.290  20.671  67.181  1.00  0.00    -0.464 C  
HETATM   26  C   UNL     1      -7.910  18.668  66.671  1.00  0.00    -0.271 C  
HETATM   27  C   UNL     1      -9.413  18.656  68.701  1.00  0.00    -0.359 C  
HETATM   28  F   UNL     1      -8.319  17.985  69.130  1.00  0.00    -0.206 F  
ENDBRANCH  21  22
ENDBRANCH  20  21
ENDBRANCH  19  20
ENDBRANCH  11  15
BRANCH  13  29
HETATM   29  C   UNL     1      -9.610   9.613  69.708  1.00  0.00    -0.219 C  
HETATM   30  H   UNL     1     -11.031  10.288  71.073  1.00  0.00     0.000 HD 
HETATM   31  N   UNL     1     -10.360   9.540  70.898  1.00  0.00    -0.307 N  
HETATM   32  O   UNL     1      -8.987   8.643  69.295  1.00  0.00    -0.142 OA 
BRANCH  31  33
HETATM   33  S   UNL     1     -10.240   8.312  72.065  1.00  0.00    -0.297 S  
HETATM   34  O   UNL     1      -9.113   8.621  72.908  1.00  0.00    -0.314 OA 
HETATM   35  O   UNL     1     -11.571   8.231  72.634  1.00  0.00    -0.399 OA 
BRANCH  33  36
HETATM   36  C   UNL     1      -9.928   6.694  71.497  1.00  0.00    -0.175 A  
HETATM   37  C   UNL     1      -9.242   5.698  72.179  1.00  0.00    -0.146 A  
HETATM   38  N   UNL     1      -9.333   4.567  71.425  1.00  0.00    -0.139 NA 
HETATM   39  N   UNL     1     -10.046   4.731  70.307  1.00  0.00    -0.247 NA 
HETATM   40  C   UNL     1      -8.821   3.244  71.696  1.00  0.00    -0.087 C  
HETATM   41  C   UNL     1     -10.477   6.000  70.362  1.00  0.00    -0.246 A  
HETATM   42  C   UNL     1     -11.465   6.367  69.308  1.00  0.00    -0.318 C  
ENDBRANCH  33  36
ENDBRANCH  31  33
ENDBRANCH  13  29
ENDBRANCH   4   9
TORSDOF 8
ENDMDL
MODEL       37
REMARK 921   NORMALIZED FREE ENERGY PREDICTED BY IDOCK:   -6.48 KCAL/MOL
REMARK 922        TOTAL FREE ENERGY PREDICTED BY IDOCK:  -11.15 KCAL/MOL
REMARK 923 INTER-LIGAND FREE ENERGY PREDICTED BY IDOCK:   -9.38 KCAL/MOL
REMARK 924 INTRA-LIGAND FREE ENERGY PREDICTED BY IDOCK:   -1.76 KCAL/MOL
REMARK 927      BINDING AFFINITY PREDICTED BY RF-SCORE:    0.00 PKD
ROOT
HETATM    1  C   UNL     1     -11.323  11.489  66.609  1.00  0.00    -0.285 C  
HETATM    2  C   UNL     1     -11.329  12.938  66.123  1.00  0.00    -0.356 C  
HETATM    3  C   UNL     1      -9.912  13.470  65.932  1.00  0.00    -0.283 C  
HETATM    4  N   UNL     1      -9.562  14.121  67.199  1.00  0.00    -0.236 NA 
HETATM    5  C   UNL     1     -10.877  16.165  67.504  1.00  0.00    -0.284 C  
HETATM    6  C   UNL     1     -10.822  14.660  67.827  1.00  0.00    -0.267 C  
HETATM    7  C   UNL     1     -11.976  13.895  67.121  1.00  0.00    -0.455 C  
HETATM    8  C   UNL     1     -11.064  14.536  69.335  1.00  0.00    -0.297 C  
ENDROOT
BRANCH   4   9
HETATM    9  C   UNL     1      -8.403  13.768  67.870  1.00  0.00    -0.172 A  
HETATM   10  N   UNL     1      -8.358  12.459  68.281  1.00  0.00    -0.171 NA 
HETATM   11  C   UNL     1      -7.279  11.906  68.905  1.00  0.00    -0.098 A  
HETATM   12  C   UNL     1      -6.158  12.659  69.158  1.00  0.00    -0.092 A  
HETATM   13  C   UNL     1      -7.289  14.603  68.119  1.00  0.00    -0.127 A  
HETATM   14  C   UNL     1      -6.169  14.001  68.754  1.00  0.00    -0.087 A  
BRANCH  11  15
HETATM   15  N   UNL     1      -7.322  10.507  69.283  1.00  0.00    -0.100 NA 
HETATM   16  C   UNL     1      -6.659   9.473  68.635  1.00  0.00    -0.052 A  
HETATM   17  C   UNL     1      -6.973   8.307  69.283  1.00  0.00    -0.058 A  
HETATM   18  N   UNL     1      -8.032  10.026  70.362  1.00  0.00    -0.188 NA 
HETATM   19  C   UNL     1      -7.818   8.705  70.321  1.00  0.00    -0.097 A  
BRANCH  19  20
HETATM   20  O   UNL     1      -8.363   7.834  71.199  1.00  0.00    -0.107 OA 
BRANCH  20  21
HETATM   21  C   UNL     1      -9.175   8.393  72.230  1.00  0.00    -0.259 C  
BRANCH  21  22
HETATM   22  C   UNL     1     -10.545   7.662  72.271  1.00  0.00    -0.298 C  
HETATM   23  F   UNL     1     -12.537   8.837  72.917  1.00  0.00    -0.441 F  
HETATM   24  F   UNL     1     -11.166   9.884  71.599  1.00  0.00    -0.419 F  
HETATM   25  C   UNL     1     -10.799   7.081  73.678  1.00  0.00    -0.199 C  
HETATM   26  C   UNL     1     -10.549   6.479  71.280  1.00  0.00    -0.268 C  
HETATM   27  C   UNL     1     -11.657   8.662  71.903  1.00  0.00    -0.350 C  
HETATM   28  F   UNL     1     -12.376   8.253  70.832  1.00  0.00    -0.284 F  
ENDBRANCH  21  22
ENDBRANCH  20  21
ENDBRANCH  19  20
ENDBRANCH  11  15
BRANCH  13  29
HETATM   29  C   UNL     1      -7.057  16.070  67.794  1.00  0.00    -0.143 C  
HETATM   30  H   UNL     1      -6.969  16.675  69.786  1.00  0.00     0.000 HD 
HETATM   31  N   UNL     1      -6.996  17.024  68.828  1.00  0.00    -0.199 N  
HETATM   32  O   UNL     1      -6.829  16.384  66.633  1.00  0.00    -0.199 OA 
BRANCH  31  33
HETATM   33  S   UNL     1      -6.964  18.709  68.613  1.00  0.00    -0.284 S  
HETATM   34  O   UNL     1      -8.192  19.240  69.148  1.00  0.00    -0.291 OA 
HETATM   35  O   UNL     1      -5.692  19.115  69.179  1.00  0.00    -0.208 OA 
BRANCH  33  36
HETATM   36  C   UNL     1      -6.905  19.308  66.978  1.00  0.00    -0.197 A  
HETATM   37  C   UNL     1      -5.785  19.365  66.160  1.00  0.00    -0.162 A  
HETATM   38  N   UNL     1      -6.210  19.789  64.936  1.00  0.00    -0.262 NA 
HETATM   39  N   UNL     1      -7.529  19.997  64.875  1.00  0.00    -0.089 NA 
HETATM   40  C   UNL     1      -5.452  19.986  63.723  1.00  0.00    -0.233 C  
HETATM   41  C   UNL     1      -7.984  19.644  66.087  1.00  0.00    -0.343 A  
HETATM   42  C   UNL     1      -9.470  19.604  66.205  1.00  0.00    -0.441 C  
ENDBRANCH  33  36
ENDBRANCH  31  33
ENDBRANCH  13  29
ENDBRANCH   4   9
TORSDOF 8
ENDMDL
MODEL       38
REMARK 921   NORMALIZED FREE ENERGY PREDICTED BY IDOCK:   -6.46 KCAL/MOL
REMARK 922        TOTAL FREE ENERGY PREDICTED BY IDOCK:  -11.11 KCAL/MOL
REMARK 923 INTER-LIGAND FREE ENERGY PREDICTED BY IDOCK:  -10.74 KCAL/MOL
REMARK 924 INTRA-LIGAND FREE ENERGY PREDICTED BY IDOCK:   -0.37 KCAL/MOL
REMARK 927      BINDING AFFINITY PREDICTED BY RF-SCORE:    0.00 PKD
ROOT
HETATM    1  C   UNL     1      -8.785   6.271  65.447  1.00  0.00    -0.055 C  
HETATM    2  C   UNL     1      -7.542   7.138  65.250  1.00  0.00    -0.103 C  
HETATM    3  C   UNL     1      -7.486   8.274  66.267  1.00  0.00    -0.079 C  
HETATM    4  N   UNL     1      -8.128   9.420  65.614  1.00  0.00    -0.109 NA 
HETATM    5  C   UNL     1      -6.730  10.256  63.784  1.00  0.00    -0.069 C  
HETATM    6  C   UNL     1      -7.901   9.315  64.127  1.00  0.00    -0.125 C  
HETATM    7  C   UNL     1      -7.512   7.829  63.889  1.00  0.00    -0.107 C  
HETATM    8  C   UNL     1      -9.022   9.645  63.135  1.00  0.00    -0.253 C  
ENDROOT
BRANCH   4   9
HETATM    9  C   UNL     1      -9.173  10.084  66.234  1.00  0.00    -0.162 A  
HETATM   10  N   UNL     1      -9.280  11.412  65.903  1.00  0.00    -0.216 NA 
HETATM   11  C   UNL     1     -10.278  12.220  66.362  1.00  0.00    -0.225 A  
HETATM   12  C   UNL     1     -11.247  11.725  67.202  1.00  0.00    -0.375 A  
HETATM   13  C   UNL     1     -10.126   9.518  67.111  1.00  0.00    -0.290 A  
HETATM   14  C   UNL     1     -11.167  10.373  67.563  1.00  0.00    -0.254 A  
BRANCH  11  15
HETATM   15  N   UNL     1     -10.315  13.606  65.938  1.00  0.00    -0.294 NA 
HETATM   16  C   UNL     1     -11.246  14.163  65.070  1.00  0.00    -0.356 A  
HETATM   17  C   UNL     1     -10.925  15.485  64.909  1.00  0.00    -0.452 A  
HETATM   18  N   UNL     1      -9.420  14.563  66.365  1.00  0.00    -0.290 NA 
HETATM   19  C   UNL     1      -9.801  15.670  65.715  1.00  0.00    -0.351 A  
BRANCH  19  20
HETATM   20  O   UNL     1      -9.163  16.856  65.826  1.00  0.00    -0.527 OA 
BRANCH  20  21
HETATM   21  C   UNL     1      -9.963  17.978  66.194  1.00  0.00    -0.285 C  
BRANCH  21  22
HETATM   22  C   UNL     1      -9.185  18.868  67.202  1.00  0.00    -0.313 C  
HETATM   23  F   UNL     1      -9.714  21.199  67.433  1.00  0.00    -0.616 F  
HETATM   24  F   UNL     1     -11.387  19.827  67.261  1.00  0.00    -0.489 F  
HETATM   25  C   UNL     1      -7.974  19.526  66.509  1.00  0.00    -0.316 C  
HETATM   26  C   UNL     1      -8.638  18.009  68.362  1.00  0.00    -0.298 C  
HETATM   27  C   UNL     1     -10.133  19.951  67.749  1.00  0.00    -0.429 C  
HETATM   28  F   UNL     1     -10.234  19.905  69.098  1.00  0.00    -0.512 F  
ENDBRANCH  21  22
ENDBRANCH  20  21
ENDBRANCH  19  20
ENDBRANCH  11  15
BRANCH  13  29
HETATM   29  C   UNL     1     -10.257   8.103  67.654  1.00  0.00    -0.234 C  
HETATM   30  H   UNL     1      -8.928   8.402  69.231  1.00  0.00     0.000 HD 
HETATM   31  N   UNL     1      -9.467   7.687  68.744  1.00  0.00    -0.151 N  
HETATM   32  O   UNL     1     -11.124   7.375  67.190  1.00  0.00    -0.263 OA 
BRANCH  31  33
HETATM   33  S   UNL     1      -9.340   6.092  69.316  1.00  0.00    -0.134 S  
HETATM   34  O   UNL     1      -9.936   5.227  68.330  1.00  0.00    -0.148 OA 
HETATM   35  O   UNL     1      -7.938   5.947  69.655  1.00  0.00    -0.098 OA 
BRANCH  33  36
HETATM   36  C   UNL     1     -10.171   5.702  70.797  1.00  0.00    -0.227 A  
HETATM   37  C   UNL     1      -9.682   4.921  71.836  1.00  0.00    -0.163 A  
HETATM   38  N   UNL     1     -10.605   4.973  72.838  1.00  0.00    -0.213 NA 
HETATM   39  N   UNL     1     -11.657   5.746  72.550  1.00  0.00    -0.303 NA 
HETATM   40  C   UNL     1     -10.569   4.364  74.146  1.00  0.00    -0.270 C  
HETATM   41  C   UNL     1     -11.383   6.256  71.341  1.00  0.00    -0.296 A  
HETATM   42  C   UNL     1     -12.329   7.313  70.883  1.00  0.00    -0.287 C  
ENDBRANCH  33  36
ENDBRANCH  31  33
ENDBRANCH  13  29
ENDBRANCH   4   9
TORSDOF 8
ENDMDL
MODEL       39
REMARK 921   NORMALIZED FREE ENERGY PREDICTED BY IDOCK:   -6.46 KCAL/MOL
REMARK 922        TOTAL FREE ENERGY PREDICTED BY IDOCK:  -11.11 KCAL/MOL
REMARK 923 INTER-LIGAND FREE ENERGY PREDICTED BY IDOCK:   -8.97 KCAL/MOL
REMARK 924 INTRA-LIGAND FREE ENERGY PREDICTED BY IDOCK:   -2.13 KCAL/MOL
REMARK 927      BINDING AFFINITY PREDICTED BY RF-SCORE:    0.00 PKD
ROOT
HETATM    1  C   UNL     1     -13.289   9.265  71.466  1.00  0.00    -0.436 C  
HETATM    2  C   UNL     1     -12.367   8.294  72.204  1.00  0.00    -0.410 C  
HETATM    3  C   UNL     1     -10.916   8.763  72.166  1.00  0.00    -0.334 C  
HETATM    4  N   UNL     1     -10.320   8.107  70.998  1.00  0.00    -0.194 NA 
HETATM    5  C   UNL     1     -10.106   5.697  71.386  1.00  0.00    -0.254 C  
HETATM    6  C   UNL     1     -11.014   6.786  70.782  1.00  0.00    -0.262 C  
HETATM    7  C   UNL     1     -12.346   6.903  71.574  1.00  0.00    -0.420 C  
HETATM    8  C   UNL     1     -11.377   6.309  69.372  1.00  0.00    -0.448 C  
ENDROOT
BRANCH   4   9
HETATM    9  C   UNL     1      -9.673   8.855  70.029  1.00  0.00    -0.174 A  
HETATM   10  N   UNL     1     -10.280  10.050  69.731  1.00  0.00    -0.238 NA 
HETATM   11  C   UNL     1      -9.766  10.952  68.848  1.00  0.00    -0.187 A  
HETATM   12  C   UNL     1      -8.583  10.695  68.197  1.00  0.00    -0.123 A  
HETATM   13  C   UNL     1      -8.463   8.521  69.377  1.00  0.00    -0.127 A  
HETATM   14  C   UNL     1      -7.936   9.483  68.474  1.00  0.00    -0.093 A  
BRANCH  11  15
HETATM   15  N   UNL     1     -10.473  12.197  68.617  1.00  0.00    -0.230 NA 
HETATM   16  C   UNL     1     -11.662  12.577  69.225  1.00  0.00    -0.321 A  
HETATM   17  C   UNL     1     -12.012  13.804  68.724  1.00  0.00    -0.400 A  
HETATM   18  N   UNL     1     -10.034  13.179  67.755  1.00  0.00    -0.221 NA 
HETATM   19  C   UNL     1     -10.988  14.116  67.828  1.00  0.00    -0.262 A  
BRANCH  19  20
HETATM   20  O   UNL     1     -10.965  15.259  67.107  1.00  0.00    -0.324 OA 
BRANCH  20  21
HETATM   21  C   UNL     1     -10.874  16.477  67.846  1.00  0.00    -0.326 C  
BRANCH  21  22
HETATM   22  C   UNL     1      -9.505  17.156  67.566  1.00  0.00    -0.247 C  
HETATM   23  F   UNL     1      -9.383  19.153  66.238  1.00  0.00    -0.318 F  
HETATM   24  F   UNL     1     -11.000  19.034  67.680  1.00  0.00    -0.490 F  
HETATM   25  C   UNL     1      -8.897  16.614  66.257  1.00  0.00    -0.348 C  
HETATM   26  C   UNL     1      -8.509  16.838  68.702  1.00  0.00    -0.259 C  
HETATM   27  C   UNL     1      -9.715  18.678  67.461  1.00  0.00    -0.310 C  
HETATM   28  F   UNL     1      -8.964  19.359  68.358  1.00  0.00    -0.343 F  
ENDBRANCH  21  22
ENDBRANCH  20  21
ENDBRANCH  19  20
ENDBRANCH  11  15
BRANCH  13  29
HETATM   29  C   UNL     1      -7.583   7.286  69.494  1.00  0.00    -0.100 C  
HETATM   30  H   UNL     1      -7.652   6.834  67.462  1.00  0.00     0.000 HD 
HETATM   31  N   UNL     1      -7.339   6.479  68.365  1.00  0.00    -0.085 N  
HETATM   32  O   UNL     1      -7.017   7.069  70.558  1.00  0.00    -0.059 OA 
BRANCH  31  33
HETATM   33  S   UNL     1      -6.568   4.966  68.384  1.00  0.00    -0.050 S  
HETATM   34  O   UNL     1      -6.725   4.380  67.077  1.00  0.00    -0.049 OA 
HETATM   35  O   UNL     1      -5.241   5.250  68.896  1.00  0.00     0.000 OA 
BRANCH  33  36
HETATM   36  C   UNL     1      -7.190   3.762  69.479  1.00  0.00    -0.045 A  
HETATM   37  C   UNL     1      -6.807   3.572  70.800  1.00  0.00    -0.033 A  
HETATM   38  N   UNL     1      -7.622   2.608  71.314  1.00  0.00    -0.040 NA 
HETATM   39  N   UNL     1      -8.531   2.162  70.441  1.00  0.00    -0.045 NA 
HETATM   40  C   UNL     1      -7.665   2.064  72.650  1.00  0.00    -0.051 C  
HETATM   41  C   UNL     1      -8.333   2.899  69.338  1.00  0.00    -0.059 A  
HETATM   42  C   UNL     1      -9.363   2.718  68.276  1.00  0.00    -0.258 C  
ENDBRANCH  33  36
ENDBRANCH  31  33
ENDBRANCH  13  29
ENDBRANCH   4   9
TORSDOF 8
ENDMDL
MODEL       40
REMARK 921   NORMALIZED FREE ENERGY PREDICTED BY IDOCK:   -6.45 KCAL/MOL
REMARK 922        TOTAL FREE ENERGY PREDICTED BY IDOCK:  -11.10 KCAL/MOL
REMARK 923 INTER-LIGAND FREE ENERGY PREDICTED BY IDOCK:   -9.55 KCAL/MOL
REMARK 924 INTRA-LIGAND FREE ENERGY PREDICTED BY IDOCK:   -1.55 KCAL/MOL
REMARK 927      BINDING AFFINITY PREDICTED BY RF-SCORE:    0.00 PKD
ROOT
HETATM    1  C   UNL     1     -11.935  12.250  64.023  1.00  0.00    -0.551 C  
HETATM    2  C   UNL     1     -11.874  13.703  64.492  1.00  0.00    -0.445 C  
HETATM    3  C   UNL     1     -10.441  14.139  64.779  1.00  0.00    -0.408 C  
HETATM    4  N   UNL     1     -10.233  13.892  66.210  1.00  0.00    -0.289 NA 
HETATM    5  C   UNL     1     -11.558  15.457  67.550  1.00  0.00    -0.176 C  
HETATM    6  C   UNL     1     -11.553  14.051  66.922  1.00  0.00    -0.386 C  
HETATM    7  C   UNL     1     -12.624  13.935  65.802  1.00  0.00    -0.533 C  
HETATM    8  C   UNL     1     -11.967  13.082  68.034  1.00  0.00    -0.335 C  
ENDROOT
BRANCH   4   9
HETATM    9  C   UNL     1      -9.162  13.128  66.640  1.00  0.00    -0.215 A  
HETATM   10  N   UNL     1      -9.309  11.777  66.440  1.00  0.00    -0.215 NA 
HETATM   11  C   UNL     1      -8.341  10.865  66.742  1.00  0.00    -0.138 A  
HETATM   12  C   UNL     1      -7.142  11.272  67.277  1.00  0.00    -0.114 A  
HETATM   13  C   UNL     1      -7.959  13.608  67.208  1.00  0.00    -0.129 A  
HETATM   14  C   UNL     1      -6.958  12.643  67.498  1.00  0.00    -0.150 A  
BRANCH  11  15
HETATM   15  N   UNL     1      -8.585   9.461  66.474  1.00  0.00    -0.132 NA 
HETATM   16  C   UNL     1      -9.784   8.793  66.685  1.00  0.00    -0.242 A  
HETATM   17  C   UNL     1      -9.599   7.483  66.330  1.00  0.00    -0.194 A  
HETATM   18  N   UNL     1      -7.639   8.604  65.954  1.00  0.00    -0.088 NA 
HETATM   19  C   UNL     1      -8.272   7.425  65.900  1.00  0.00    -0.134 A  
BRANCH  19  20
HETATM   20  O   UNL     1      -7.688   6.286  65.469  1.00  0.00    -0.086 OA 
BRANCH  20  21
HETATM   21  C   UNL     1      -8.380   5.558  64.457  1.00  0.00    -0.127 C  
BRANCH  21  22
HETATM   22  C   UNL     1      -8.259   4.034  64.732  1.00  0.00    -0.097 C  
HETATM   23  F   UNL     1      -9.400   3.036  66.594  1.00  0.00    -0.164 F  
HETATM   24  F   UNL     1     -10.504   4.510  65.445  1.00  0.00    -0.239 F  
HETATM   25  C   UNL     1      -7.086   3.757  65.695  1.00  0.00    -0.066 C  
HETATM   26  C   UNL     1      -7.964   3.275  63.420  1.00  0.00    -0.077 C  
HETATM   27  C   UNL     1      -9.578   3.530  65.347  1.00  0.00    -0.132 C  
HETATM   28  F   UNL     1     -10.136   2.539  64.613  1.00  0.00    -0.083 F  
ENDBRANCH  21  22
ENDBRANCH  20  21
ENDBRANCH  19  20
ENDBRANCH  11  15
BRANCH  13  29
HETATM   29  C   UNL     1      -7.521  15.025  67.549  1.00  0.00    -0.201 C  
HETATM   30  H   UNL     1      -9.275  15.505  68.567  1.00  0.00     0.000 HD 
HETATM   31  N   UNL     1      -8.406  15.900  68.209  1.00  0.00    -0.161 N  
HETATM   32  O   UNL     1      -6.362  15.349  67.326  1.00  0.00    -0.305 OA 
BRANCH  31  33
HETATM   33  S   UNL     1      -8.145  17.560  68.457  1.00  0.00    -0.268 S  
HETATM   34  O   UNL     1      -9.386  18.133  68.915  1.00  0.00    -0.268 OA 
HETATM   35  O   UNL     1      -6.968  17.613  69.301  1.00  0.00    -0.243 OA 
BRANCH  33  36
HETATM   36  C   UNL     1      -7.709  18.521  67.070  1.00  0.00    -0.225 A  
HETATM   37  C   UNL     1      -6.511  18.463  66.371  1.00  0.00    -0.200 A  
HETATM   38  N   UNL     1      -6.638  19.294  65.298  1.00  0.00    -0.361 NA 
HETATM   39  N   UNL     1      -7.836  19.880  65.221  1.00  0.00    -0.181 NA 
HETATM   40  C   UNL     1      -5.695  19.572  64.241  1.00  0.00    -0.276 C  
HETATM   41  C   UNL     1      -8.530  19.372  66.250  1.00  0.00    -0.334 A  
HETATM   42  C   UNL     1      -9.977  19.732  66.263  1.00  0.00    -0.581 C  
ENDBRANCH  33  36
ENDBRANCH  31  33
ENDBRANCH  13  29
ENDBRANCH   4   9
TORSDOF 8
ENDMDL
MODEL       41
REMARK 921   NORMALIZED FREE ENERGY PREDICTED BY IDOCK:   -6.45 KCAL/MOL
REMARK 922        TOTAL FREE ENERGY PREDICTED BY IDOCK:  -11.09 KCAL/MOL
REMARK 923 INTER-LIGAND FREE ENERGY PREDICTED BY IDOCK:   -9.13 KCAL/MOL
REMARK 924 INTRA-LIGAND FREE ENERGY PREDICTED BY IDOCK:   -1.96 KCAL/MOL
REMARK 927      BINDING AFFINITY PREDICTED BY RF-SCORE:    0.00 PKD
ROOT
HETATM    1  C   UNL     1      -6.450  12.607  69.073  1.00  0.00    -0.097 C  
HETATM    2  C   UNL     1      -6.036  11.137  69.153  1.00  0.00    -0.047 C  
HETATM    3  C   UNL     1      -6.253  10.422  67.823  1.00  0.00    -0.056 C  
HETATM    4  N   UNL     1      -7.591   9.828  67.909  1.00  0.00    -0.086 NA 
HETATM    5  C   UNL     1      -7.611   7.990  69.528  1.00  0.00    -0.101 C  
HETATM    6  C   UNL     1      -7.879   9.497  69.351  1.00  0.00    -0.097 C  
HETATM    7  C   UNL     1      -6.861  10.344  70.164  1.00  0.00    -0.155 C  
HETATM    8  C   UNL     1      -9.261   9.762  69.958  1.00  0.00    -0.266 C  
ENDROOT
BRANCH   4   9
HETATM    9  C   UNL     1      -8.535  10.084  66.928  1.00  0.00    -0.125 A  
HETATM   10  N   UNL     1      -8.840  11.413  66.763  1.00  0.00    -0.172 NA 
HETATM   11  C   UNL     1      -9.700  11.871  65.810  1.00  0.00    -0.237 A  
HETATM   12  C   UNL     1     -10.318  10.996  64.948  1.00  0.00    -0.378 A  
HETATM   13  C   UNL     1      -9.153   9.130  66.087  1.00  0.00    -0.234 A  
HETATM   14  C   UNL     1     -10.031   9.631  65.088  1.00  0.00    -0.082 A  
BRANCH  11  15
HETATM   15  N   UNL     1      -9.942  13.297  65.703  1.00  0.00    -0.263 NA 
HETATM   16  C   UNL     1     -10.995  13.890  65.018  1.00  0.00    -0.368 A  
HETATM   17  C   UNL     1     -10.856  15.248  65.139  1.00  0.00    -0.441 A  
HETATM   18  N   UNL     1      -9.147  14.255  66.293  1.00  0.00    -0.142 NA 
HETATM   19  C   UNL     1      -9.709  15.411  65.918  1.00  0.00    -0.357 A  
BRANCH  19  20
HETATM   20  O   UNL     1      -9.220  16.623  66.261  1.00  0.00    -0.267 OA 
BRANCH  20  21
HETATM   21  C   UNL     1     -10.141  17.538  66.853  1.00  0.00    -0.324 C  
BRANCH  21  22
HETATM   22  C   UNL     1      -9.452  18.916  67.057  1.00  0.00    -0.341 C  
HETATM   23  F   UNL     1     -10.271  20.458  68.704  1.00  0.00    -0.490 F  
HETATM   24  F   UNL     1     -10.178  18.368  69.281  1.00  0.00    -0.383 F  
HETATM   25  C   UNL     1     -10.120  19.984  66.168  1.00  0.00    -0.588 C  
HETATM   26  C   UNL     1      -7.967  18.837  66.641  1.00  0.00    -0.278 C  
HETATM   27  C   UNL     1      -9.564  19.316  68.539  1.00  0.00    -0.403 C  
HETATM   28  F   UNL     1      -8.351  19.527  69.103  1.00  0.00    -0.389 F  
ENDBRANCH  21  22
ENDBRANCH  20  21
ENDBRANCH  19  20
ENDBRANCH  11  15
BRANCH  13  29
HETATM   29  C   UNL     1      -9.019   7.616  66.040  1.00  0.00    -0.139 C  
HETATM   30  H   UNL     1      -9.946   7.306  67.880  1.00  0.00     0.000 HD 
HETATM   31  N   UNL     1      -9.433   6.834  67.136  1.00  0.00    -0.137 N  
HETATM   32  O   UNL     1      -8.640   7.093  65.000  1.00  0.00    -0.031 OA 
BRANCH  31  33
HETATM   33  S   UNL     1      -9.149   5.170  67.322  1.00  0.00    -0.115 S  
HETATM   34  O   UNL     1     -10.033   4.473  66.424  1.00  0.00    -0.207 OA 
HETATM   35  O   UNL     1      -7.712   5.036  67.174  1.00  0.00    -0.090 OA 
BRANCH  33  36
HETATM   36  C   UNL     1      -9.474   4.470  68.885  1.00  0.00    -0.160 A  
HETATM   37  C   UNL     1      -8.910   3.312  69.403  1.00  0.00    -0.095 A  
HETATM   38  N   UNL     1      -9.353   3.197  70.687  1.00  0.00    -0.143 NA 
HETATM   39  N   UNL     1     -10.149   4.201  71.065  1.00  0.00    -0.128 NA 
HETATM   40  C   UNL     1      -9.041   2.191  71.675  1.00  0.00    -0.088 C  
HETATM   41  C   UNL     1     -10.182   5.025  70.008  1.00  0.00    -0.269 A  
HETATM   42  C   UNL     1     -10.859   6.330  70.257  1.00  0.00    -0.366 C  
ENDBRANCH  33  36
ENDBRANCH  31  33
ENDBRANCH  13  29
ENDBRANCH   4   9
TORSDOF 8
ENDMDL
MODEL       42
REMARK 921   NORMALIZED FREE ENERGY PREDICTED BY IDOCK:   -6.44 KCAL/MOL
REMARK 922        TOTAL FREE ENERGY PREDICTED BY IDOCK:  -11.08 KCAL/MOL
REMARK 923 INTER-LIGAND FREE ENERGY PREDICTED BY IDOCK:   -8.94 KCAL/MOL
REMARK 924 INTRA-LIGAND FREE ENERGY PREDICTED BY IDOCK:   -2.14 KCAL/MOL
REMARK 927      BINDING AFFINITY PREDICTED BY RF-SCORE:    0.00 PKD
ROOT
HETATM    1  C   UNL     1      -7.179   8.222  69.066  1.00  0.00    -0.073 C  
HETATM    2  C   UNL     1      -7.153   9.455  68.162  1.00  0.00    -0.076 C  
HETATM    3  C   UNL     1      -7.865  10.638  68.810  1.00  0.00    -0.125 C  
HETATM    4  N   UNL     1      -9.249  10.577  68.326  1.00  0.00    -0.147 NA 
HETATM    5  C   UNL     1      -9.346  11.120  65.939  1.00  0.00    -0.235 C  
HETATM    6  C   UNL     1      -9.250   9.961  66.949  1.00  0.00    -0.147 C  
HETATM    7  C   UNL     1      -7.881   9.235  66.838  1.00  0.00    -0.098 C  
HETATM    8  C   UNL     1     -10.325   8.947  66.543  1.00  0.00    -0.267 C  
ENDROOT
BRANCH   4   9
HETATM    9  C   UNL     1     -10.304  10.572  69.222  1.00  0.00    -0.227 A  
HETATM   10  N   UNL     1     -10.410   9.426  69.971  1.00  0.00    -0.216 NA 
HETATM   11  C   UNL     1     -11.346   9.253  70.948  1.00  0.00    -0.308 A  
HETATM   12  C   UNL     1     -12.252  10.247  71.230  1.00  0.00    -0.496 A  
HETATM   13  C   UNL     1     -11.220  11.625  69.449  1.00  0.00    -0.311 A  
HETATM   14  C   UNL     1     -12.176  11.430  70.482  1.00  0.00    -0.478 A  
BRANCH  11  15
HETATM   15  N   UNL     1     -11.363   8.012  71.698  1.00  0.00    -0.253 NA 
HETATM   16  C   UNL     1     -12.355   7.043  71.638  1.00  0.00    -0.368 A  
HETATM   17  C   UNL     1     -12.013   6.042  72.509  1.00  0.00    -0.176 A  
HETATM   18  N   UNL     1     -10.367   7.632  72.572  1.00  0.00    -0.232 NA 
HETATM   19  C   UNL     1     -10.797   6.459  73.054  1.00  0.00    -0.259 A  
BRANCH  19  20
HETATM   20  O   UNL     1     -10.122   5.741  73.979  1.00  0.00    -0.196 OA 
BRANCH  20  21
HETATM   21  C   UNL     1      -8.755   5.454  73.690  1.00  0.00    -0.116 C  
BRANCH  21  22
HETATM   22  C   UNL     1      -8.613   3.970  73.251  1.00  0.00    -0.092 C  
HETATM   23  F   UNL     1      -9.647   3.191  71.229  1.00  0.00    -0.189 F  
HETATM   24  F   UNL     1      -8.669   5.127  71.146  1.00  0.00    -0.119 F  
HETATM   25  C   UNL     1      -9.783   3.134  73.810  1.00  0.00    -0.141 C  
HETATM   26  C   UNL     1      -7.308   3.369  73.816  1.00  0.00    -0.052 C  
HETATM   27  C   UNL     1      -8.602   3.902  71.713  1.00  0.00    -0.094 C  
HETATM   28  F   UNL     1      -7.480   3.314  71.238  1.00  0.00    -0.035 F  
ENDBRANCH  21  22
ENDBRANCH  20  21
ENDBRANCH  19  20
ENDBRANCH  11  15
BRANCH  13  29
HETATM   29  C   UNL     1     -11.352  12.985  68.780  1.00  0.00    -0.289 C  
HETATM   30  H   UNL     1     -10.229  13.991  70.218  1.00  0.00     0.000 HD 
HETATM   31  N   UNL     1     -10.818  14.133  69.398  1.00  0.00    -0.186 N  
HETATM   32  O   UNL     1     -11.841  13.041  67.659  1.00  0.00    -0.353 OA 
BRANCH  31  33
HETATM   33  S   UNL     1     -11.075  15.733  68.891  1.00  0.00    -0.321 S  
HETATM   34  O   UNL     1     -12.365  15.787  68.252  1.00  0.00     0.201 OA 
HETATM   35  O   UNL     1     -10.820  16.527  70.077  1.00  0.00    -0.344 OA 
BRANCH  33  36
HETATM   36  C   UNL     1      -9.975  16.386  67.707  1.00  0.00    -0.248 A  
HETATM   37  C   UNL     1      -8.884  17.207  67.959  1.00  0.00    -0.229 A  
HETATM   38  N   UNL     1      -8.239  17.383  66.771  1.00  0.00    -0.233 NA 
HETATM   39  N   UNL     1      -8.807  16.724  65.757  1.00  0.00    -0.476 NA 
HETATM   40  C   UNL     1      -7.032  18.122  66.488  1.00  0.00    -0.217 C  
HETATM   41  C   UNL     1      -9.825  16.053  66.315  1.00  0.00    -0.308 A  
HETATM   42  C   UNL     1     -10.501  15.082  65.408  1.00  0.00    -0.406 C  
ENDBRANCH  33  36
ENDBRANCH  31  33
ENDBRANCH  13  29
ENDBRANCH   4   9
TORSDOF 8
ENDMDL
MODEL       43
REMARK 921   NORMALIZED FREE ENERGY PREDICTED BY IDOCK:   -6.44 KCAL/MOL
REMARK 922        TOTAL FREE ENERGY PREDICTED BY IDOCK:  -11.08 KCAL/MOL
REMARK 923 INTER-LIGAND FREE ENERGY PREDICTED BY IDOCK:   -9.36 KCAL/MOL
REMARK 924 INTRA-LIGAND FREE ENERGY PREDICTED BY IDOCK:   -1.72 KCAL/MOL
REMARK 927      BINDING AFFINITY PREDICTED BY RF-SCORE:    0.00 PKD
ROOT
HETATM    1  C   UNL     1     -12.160  12.174  64.367  1.00  0.00    -0.443 C  
HETATM    2  C   UNL     1     -11.886  13.659  64.605  1.00  0.00    -0.427 C  
HETATM    3  C   UNL     1     -10.401  13.924  64.831  1.00  0.00    -0.406 C  
HETATM    4  N   UNL     1     -10.209  13.876  66.285  1.00  0.00    -0.289 NA 
HETATM    5  C   UNL     1     -11.278  15.803  67.355  1.00  0.00    -0.179 C  
HETATM    6  C   UNL     1     -11.483  14.330  66.953  1.00  0.00    -0.363 C  
HETATM    7  C   UNL     1     -12.576  14.196  65.856  1.00  0.00    -0.447 C  
HETATM    8  C   UNL     1     -12.014  13.614  68.200  1.00  0.00    -0.390 C  
ENDROOT
BRANCH   4   9
HETATM    9  C   UNL     1      -9.252  13.042  66.837  1.00  0.00    -0.236 A  
HETATM   10  N   UNL     1      -9.587  11.710  66.836  1.00  0.00    -0.184 NA 
HETATM   11  C   UNL     1      -8.753  10.728  67.282  1.00  0.00    -0.130 A  
HETATM   12  C   UNL     1      -7.505  11.039  67.768  1.00  0.00    -0.094 A  
HETATM   13  C   UNL     1      -7.990  13.430  67.344  1.00  0.00    -0.170 A  
HETATM   14  C   UNL     1      -7.130  12.389  67.786  1.00  0.00    -0.120 A  
BRANCH  11  15
HETATM   15  N   UNL     1      -9.192   9.347  67.221  1.00  0.00    -0.129 NA 
HETATM   16  C   UNL     1     -10.388   8.901  66.674  1.00  0.00    -0.223 A  
HETATM   17  C   UNL     1     -10.436   7.541  66.832  1.00  0.00    -0.385 A  
HETATM   18  N   UNL     1      -8.452   8.286  67.698  1.00  0.00    -0.130 NA 
HETATM   19  C   UNL     1      -9.234   7.224  67.467  1.00  0.00    -0.130 A  
BRANCH  19  20
HETATM   20  O   UNL     1      -8.896   5.961  67.813  1.00  0.00    -0.111 OA 
BRANCH  20  21
HETATM   21  C   UNL     1      -8.024   5.818  68.932  1.00  0.00    -0.098 C  
BRANCH  21  22
HETATM   22  C   UNL     1      -8.621   4.791  69.933  1.00  0.00    -0.094 C  
HETATM   23  F   UNL     1      -9.447   2.673  69.159  1.00  0.00    -0.199 F  
HETATM   24  F   UNL     1      -7.584   3.372  68.293  1.00  0.00    -0.055 F  
HETATM   25  C   UNL     1     -10.144   4.993  70.061  1.00  0.00    -0.342 C  
HETATM   26  C   UNL     1      -8.011   4.995  71.336  1.00  0.00    -0.111 C  
HETATM   27  C   UNL     1      -8.317   3.367  69.429  1.00  0.00    -0.059 C  
HETATM   28  F   UNL     1      -7.624   2.643  70.337  1.00  0.00    -0.042 F  
ENDBRANCH  21  22
ENDBRANCH  20  21
ENDBRANCH  19  20
ENDBRANCH  11  15
BRANCH  13  29
HETATM   29  C   UNL     1      -7.357  14.807  67.478  1.00  0.00    -0.201 C  
HETATM   30  H   UNL     1      -8.476  15.659  65.941  1.00  0.00     0.000 HD 
HETATM   31  N   UNL     1      -7.698  15.834  66.577  1.00  0.00    -0.113 N  
HETATM   32  O   UNL     1      -6.627  15.025  68.436  1.00  0.00    -0.092 OA 
BRANCH  31  33
HETATM   33  S   UNL     1      -6.923  17.341  66.462  1.00  0.00    -0.284 S  
HETATM   34  O   UNL     1      -5.541  17.096  66.135  1.00  0.00    -0.321 OA 
HETATM   35  O   UNL     1      -7.758  18.102  65.554  1.00  0.00    -0.507 OA 
BRANCH  33  36
HETATM   36  C   UNL     1      -6.863  18.325  67.899  1.00  0.00    -0.213 A  
HETATM   37  C   UNL     1      -5.729  18.893  68.463  1.00  0.00    -0.208 A  
HETATM   38  N   UNL     1      -6.149  19.671  69.500  1.00  0.00    -0.278 NA 
HETATM   39  N   UNL     1      -7.477  19.678  69.652  1.00  0.00    -0.097 NA 
HETATM   40  C   UNL     1      -5.376  20.501  70.392  1.00  0.00    -0.304 C  
HETATM   41  C   UNL     1      -7.939  18.921  68.646  1.00  0.00    -0.346 A  
HETATM   42  C   UNL     1      -9.421  18.936  68.486  1.00  0.00    -0.416 C  
ENDBRANCH  33  36
ENDBRANCH  31  33
ENDBRANCH  13  29
ENDBRANCH   4   9
TORSDOF 8
ENDMDL
MODEL       44
REMARK 921   NORMALIZED FREE ENERGY PREDICTED BY IDOCK:   -6.42 KCAL/MOL
REMARK 922        TOTAL FREE ENERGY PREDICTED BY IDOCK:  -11.05 KCAL/MOL
REMARK 923 INTER-LIGAND FREE ENERGY PREDICTED BY IDOCK:   -8.81 KCAL/MOL
REMARK 924 INTRA-LIGAND FREE ENERGY PREDICTED BY IDOCK:   -2.24 KCAL/MOL
REMARK 927      BINDING AFFINITY PREDICTED BY RF-SCORE:    0.00 PKD
ROOT
HETATM    1  C   UNL     1     -11.729  14.677  69.242  1.00  0.00    -0.348 C  
HETATM    2  C   UNL     1     -11.964  13.367  68.490  1.00  0.00    -0.363 C  
HETATM    3  C   UNL     1     -10.978  12.288  68.926  1.00  0.00    -0.219 C  
HETATM    4  N   UNL     1      -9.856  12.377  67.985  1.00  0.00    -0.200 NA 
HETATM    5  C   UNL     1     -10.544  11.623  65.758  1.00  0.00    -0.320 C  
HETATM    6  C   UNL     1     -10.380  12.863  66.657  1.00  0.00    -0.251 C  
HETATM    7  C   UNL     1     -11.758  13.503  66.984  1.00  0.00    -0.424 C  
HETATM    8  C   UNL     1      -9.597  13.891  65.833  1.00  0.00    -0.171 C  
ENDROOT
BRANCH   4   9
HETATM    9  C   UNL     1      -8.561  12.520  68.452  1.00  0.00    -0.123 A  
HETATM   10  N   UNL     1      -8.147  13.822  68.593  1.00  0.00    -0.121 NA 
HETATM   11  C   UNL     1      -6.927  14.170  69.094  1.00  0.00    -0.111 A  
HETATM   12  C   UNL     1      -6.033  13.204  69.490  1.00  0.00    -0.108 A  
HETATM   13  C   UNL     1      -7.680  11.478  68.821  1.00  0.00    -0.124 A  
HETATM   14  C   UNL     1      -6.421  11.863  69.358  1.00  0.00    -0.119 A  
BRANCH  11  15
HETATM   15  N   UNL     1      -6.591  15.575  69.222  1.00  0.00    -0.136 NA 
HETATM   16  C   UNL     1      -5.665  16.108  70.109  1.00  0.00    -0.176 A  
HETATM   17  C   UNL     1      -5.656  17.467  69.934  1.00  0.00    -0.234 A  
HETATM   18  N   UNL     1      -7.154  16.571  68.453  1.00  0.00    -0.154 NA 
HETATM   19  C   UNL     1      -6.587  17.691  68.918  1.00  0.00    -0.228 A  
BRANCH  19  20
HETATM   20  O   UNL     1      -6.883  18.925  68.452  1.00  0.00    -0.238 OA 
BRANCH  20  21
HETATM   21  C   UNL     1      -8.183  19.427  68.756  1.00  0.00    -0.347 C  
BRANCH  21  22
HETATM   22  C   UNL     1      -9.006  19.575  67.446  1.00  0.00    -0.368 C  
HETATM   23  F   UNL     1     -10.245  17.716  66.567  1.00  0.00    -0.299 F  
HETATM   24  F   UNL     1     -10.329  18.020  68.714  1.00  0.00    -0.348 F  
HETATM   25  C   UNL     1      -8.145  19.185  66.227  1.00  0.00    -0.308 C  
HETATM   26  C   UNL     1      -9.439  21.044  67.251  1.00  0.00    -0.242 C  
HETATM   27  C   UNL     1     -10.247  18.666  67.530  1.00  0.00    -0.386 C  
HETATM   28  F   UNL     1     -11.398  19.362  67.385  1.00  0.00    -0.531 F  
ENDBRANCH  21  22
ENDBRANCH  20  21
ENDBRANCH  19  20
ENDBRANCH  11  15
BRANCH  13  29
HETATM   29  C   UNL     1      -7.855   9.968  68.771  1.00  0.00    -0.094 C  
HETATM   30  H   UNL     1      -9.121   9.888  70.423  1.00  0.00     0.000 HD 
HETATM   31  N   UNL     1      -8.599   9.307  69.768  1.00  0.00    -0.144 N  
HETATM   32  O   UNL     1      -7.422   9.360  67.801  1.00  0.00    -0.086 OA 
BRANCH  31  33
HETATM   33  S   UNL     1      -8.698   7.624  69.970  1.00  0.00    -0.142 S  
HETATM   34  O   UNL     1      -7.385   7.149  70.327  1.00  0.00    -0.079 OA 
HETATM   35  O   UNL     1      -9.808   7.440  70.884  1.00  0.00    -0.178 OA 
BRANCH  33  36
HETATM   36  C   UNL     1      -9.141   6.673  68.578  1.00  0.00    -0.128 A  
HETATM   37  C   UNL     1      -8.935   5.311  68.410  1.00  0.00    -0.108 A  
HETATM   38  N   UNL     1      -9.534   4.961  67.237  1.00  0.00    -0.134 NA 
HETATM   39  N   UNL     1     -10.140   5.984  66.626  1.00  0.00    -0.178 NA 
HETATM   40  C   UNL     1      -9.641   3.662  66.616  1.00  0.00    -0.144 C  
HETATM   41  C   UNL     1      -9.974   7.023  67.458  1.00  0.00    -0.156 A  
HETATM   42  C   UNL     1     -10.737   8.248  67.083  1.00  0.00    -0.240 C  
ENDBRANCH  33  36
ENDBRANCH  31  33
ENDBRANCH  13  29
ENDBRANCH   4   9
TORSDOF 8
ENDMDL
MODEL       45
REMARK 921   NORMALIZED FREE ENERGY PREDICTED BY IDOCK:   -6.40 KCAL/MOL
REMARK 922        TOTAL FREE ENERGY PREDICTED BY IDOCK:  -11.03 KCAL/MOL
REMARK 923 INTER-LIGAND FREE ENERGY PREDICTED BY IDOCK:   -9.72 KCAL/MOL
REMARK 924 INTRA-LIGAND FREE ENERGY PREDICTED BY IDOCK:   -1.30 KCAL/MOL
REMARK 927      BINDING AFFINITY PREDICTED BY RF-SCORE:    0.00 PKD
ROOT
HETATM    1  C   UNL     1      -9.478   9.144  66.498  1.00  0.00    -0.266 C  
HETATM    2  C   UNL     1      -8.858  10.483  66.101  1.00  0.00    -0.172 C  
HETATM    3  C   UNL     1      -8.782  11.438  67.288  1.00  0.00    -0.148 C  
HETATM    4  N   UNL     1     -10.012  12.235  67.233  1.00  0.00    -0.203 NA 
HETATM    5  C   UNL     1      -9.965  13.750  65.308  1.00  0.00    -0.245 C  
HETATM    6  C   UNL     1     -10.436  12.365  65.791  1.00  0.00    -0.259 C  
HETATM    7  C   UNL     1      -9.678  11.228  65.051  1.00  0.00    -0.293 C  
HETATM    8  C   UNL     1     -11.911  12.249  65.392  1.00  0.00    -0.418 C  
ENDROOT
BRANCH   4   9
HETATM    9  C   UNL     1     -10.843  12.317  68.337  1.00  0.00    -0.230 A  
HETATM   10  N   UNL     1     -11.126  11.111  68.929  1.00  0.00    -0.215 NA 
HETATM   11  C   UNL     1     -11.877  10.989  70.060  1.00  0.00    -0.355 A  
HETATM   12  C   UNL     1     -12.401  12.102  70.673  1.00  0.00    -0.385 A  
HETATM   13  C   UNL     1     -11.370  13.499  68.906  1.00  0.00    -0.332 A  
HETATM   14  C   UNL     1     -12.135  13.351  70.095  1.00  0.00    -0.415 A  
BRANCH  11  15
HETATM   15  N   UNL     1     -12.102   9.671  70.620  1.00  0.00    -0.236 NA 
HETATM   16  C   UNL     1     -13.169   9.306  71.431  1.00  0.00    -0.325 A  
HETATM   17  C   UNL     1     -13.007   7.988  71.766  1.00  0.00    -0.354 A  
HETATM   18  N   UNL     1     -11.272   8.592  70.400  1.00  0.00    -0.245 NA 
HETATM   19  C   UNL     1     -11.831   7.608  71.116  1.00  0.00    -0.293 A  
BRANCH  19  20
HETATM   20  O   UNL     1     -11.312   6.363  71.202  1.00  0.00    -0.293 OA 
BRANCH  20  21
HETATM   21  C   UNL     1     -10.723   6.003  72.451  1.00  0.00    -0.228 C  
BRANCH  21  22
HETATM   22  C   UNL     1      -9.177   6.114  72.350  1.00  0.00    -0.139 C  
HETATM   23  F   UNL     1      -8.027   8.014  73.263  1.00  0.00    -0.156 F  
HETATM   24  F   UNL     1      -9.634   7.175  74.457  1.00  0.00    -0.265 F  
HETATM   25  C   UNL     1      -8.777   6.873  71.068  1.00  0.00    -0.136 C  
HETATM   26  C   UNL     1      -8.545   4.708  72.266  1.00  0.00    -0.122 C  
HETATM   27  C   UNL     1      -8.646   6.856  73.591  1.00  0.00    -0.134 C  
HETATM   28  F   UNL     1      -7.747   6.117  74.280  1.00  0.00    -0.096 F  
ENDBRANCH  21  22
ENDBRANCH  20  21
ENDBRANCH  19  20
ENDBRANCH  11  15
BRANCH  13  29
HETATM   29  C   UNL     1     -11.237  14.952  68.476  1.00  0.00    -0.279 C  
HETATM   30  H   UNL     1      -9.202  14.816  68.049  1.00  0.00     0.000 HD 
HETATM   31  N   UNL     1      -9.975  15.476  68.133  1.00  0.00    -0.216 N  
HETATM   32  O   UNL     1     -12.255  15.618  68.340  1.00  0.00    -0.070 OA 
BRANCH  31  33
HETATM   33  S   UNL     1      -9.634  17.115  67.849  1.00  0.00    -0.273 S  
HETATM   34  O   UNL     1     -10.166  17.453  66.553  1.00  0.00    -0.311 OA 
HETATM   35  O   UNL     1     -10.127  17.791  69.033  1.00  0.00    -0.351 OA 
BRANCH  33  36
HETATM   36  C   UNL     1      -7.958  17.584  67.767  1.00  0.00    -0.208 A  
HETATM   37  C   UNL     1      -7.450  18.730  67.171  1.00  0.00    -0.225 A  
HETATM   38  N   UNL     1      -6.114  18.758  67.439  1.00  0.00    -0.171 NA 
HETATM   39  N   UNL     1      -5.703  17.729  68.186  1.00  0.00    -0.155 NA 
HETATM   40  C   UNL     1      -5.129  19.749  67.077  1.00  0.00    -0.157 C  
HETATM   41  C   UNL     1      -6.820  17.037  68.457  1.00  0.00    -0.179 A  
HETATM   42  C   UNL     1      -6.645  15.938  69.449  1.00  0.00    -0.173 C  
ENDBRANCH  33  36
ENDBRANCH  31  33
ENDBRANCH  13  29
ENDBRANCH   4   9
TORSDOF 8
ENDMDL
MODEL       46
REMARK 921   NORMALIZED FREE ENERGY PREDICTED BY IDOCK:   -6.39 KCAL/MOL
REMARK 922        TOTAL FREE ENERGY PREDICTED BY IDOCK:  -11.02 KCAL/MOL
REMARK 923 INTER-LIGAND FREE ENERGY PREDICTED BY IDOCK:   -9.41 KCAL/MOL
REMARK 924 INTRA-LIGAND FREE ENERGY PREDICTED BY IDOCK:   -1.60 KCAL/MOL
REMARK 927      BINDING AFFINITY PREDICTED BY RF-SCORE:    0.00 PKD
ROOT
HETATM    1  C   UNL     1      -6.898  10.193  68.820  1.00  0.00    -0.061 C  
HETATM    2  C   UNL     1      -7.272  11.123  67.666  1.00  0.00    -0.094 C  
HETATM    3  C   UNL     1      -8.249  12.206  68.114  1.00  0.00    -0.164 C  
HETATM    4  N   UNL     1      -9.586  11.671  67.834  1.00  0.00    -0.175 NA 
HETATM    5  C   UNL     1      -9.973  11.552  65.418  1.00  0.00    -0.288 C  
HETATM    6  C   UNL     1      -9.496  10.750  66.644  1.00  0.00    -0.175 C  
HETATM    7  C   UNL     1      -7.987  10.398  66.528  1.00  0.00    -0.123 C  
HETATM    8  C   UNL     1     -10.265   9.425  66.616  1.00  0.00    -0.319 C  
ENDROOT
BRANCH   4   9
HETATM    9  C   UNL     1     -10.542  11.619  68.834  1.00  0.00    -0.193 A  
HETATM   10  N   UNL     1     -10.803  10.357  69.308  1.00  0.00    -0.225 NA 
HETATM   11  C   UNL     1     -11.669  10.105  70.331  1.00  0.00    -0.308 A  
HETATM   12  C   UNL     1     -12.338  11.135  70.949  1.00  0.00    -0.500 A  
HETATM   13  C   UNL     1     -11.215  12.720  69.413  1.00  0.00    -0.198 A  
HETATM   14  C   UNL     1     -12.098  12.437  70.489  1.00  0.00    -0.363 A  
BRANCH  11  15
HETATM   15  N   UNL     1     -11.861   8.738  70.773  1.00  0.00    -0.230 NA 
HETATM   16  C   UNL     1     -12.991   8.245  71.413  1.00  0.00    -0.232 A  
HETATM   17  C   UNL     1     -12.771   6.919  71.683  1.00  0.00    -0.396 A  
HETATM   18  N   UNL     1     -10.930   7.737  70.596  1.00  0.00    -0.246 NA 
HETATM   19  C   UNL     1     -11.498   6.668  71.170  1.00  0.00    -0.320 A  
BRANCH  19  20
HETATM   20  O   UNL     1     -10.901   5.458  71.245  1.00  0.00    -0.218 OA 
BRANCH  20  21
HETATM   21  C   UNL     1     -10.357   4.938  70.033  1.00  0.00    -0.172 C  
BRANCH  21  22
HETATM   22  C   UNL     1      -8.938   4.365  70.299  1.00  0.00    -0.142 C  
HETATM   23  F   UNL     1      -8.456   2.052  69.872  1.00  0.00    -0.059 F  
HETATM   24  F   UNL     1      -9.660   3.090  68.395  1.00  0.00    -0.237 F  
HETATM   25  C   UNL     1      -8.849   3.803  71.733  1.00  0.00    -0.137 C  
HETATM   26  C   UNL     1      -7.879   5.482  70.179  1.00  0.00    -0.089 C  
HETATM   27  C   UNL     1      -8.648   3.252  69.276  1.00  0.00    -0.067 C  
HETATM   28  F   UNL     1      -7.535   3.505  68.549  1.00  0.00    -0.052 F  
ENDBRANCH  21  22
ENDBRANCH  20  21
ENDBRANCH  19  20
ENDBRANCH  11  15
BRANCH  13  29
HETATM   29  C   UNL     1     -11.138  14.206  69.097  1.00  0.00    -0.262 C  
HETATM   30  H   UNL     1      -9.071  14.323  69.334  1.00  0.00     0.000 HD 
HETATM   31  N   UNL     1      -9.908  14.887  69.191  1.00  0.00    -0.218 N  
HETATM   32  O   UNL     1     -12.138  14.766  68.668  1.00  0.00    -0.277 OA 
BRANCH  31  33
HETATM   33  S   UNL     1      -9.705  16.570  69.086  1.00  0.00    -0.206 S  
HETATM   34  O   UNL     1     -10.565  17.176  70.070  1.00  0.00    -0.057 OA 
HETATM   35  O   UNL     1      -8.269  16.760  69.163  1.00  0.00    -0.210 OA 
BRANCH  33  36
HETATM   36  C   UNL     1     -10.149  17.341  67.587  1.00  0.00    -0.313 A  
HETATM   37  C   UNL     1     -10.283  18.705  67.368  1.00  0.00    -0.384 A  
HETATM   38  N   UNL     1     -10.526  18.871  66.038  1.00  0.00    -0.483 NA 
HETATM   39  N   UNL     1     -10.541  17.722  65.355  1.00  0.00    -0.614 NA 
HETATM   40  C   UNL     1     -10.710  20.090  65.287  1.00  0.00     0.120 C  
HETATM   41  C   UNL     1     -10.245  16.782  66.264  1.00  0.00    -0.332 A  
HETATM   42  C   UNL     1     -10.010  15.423  65.699  1.00  0.00    -0.396 C  
ENDBRANCH  33  36
ENDBRANCH  31  33
ENDBRANCH  13  29
ENDBRANCH   4   9
TORSDOF 8
ENDMDL
MODEL       47
REMARK 921   NORMALIZED FREE ENERGY PREDICTED BY IDOCK:   -6.37 KCAL/MOL
REMARK 922        TOTAL FREE ENERGY PREDICTED BY IDOCK:  -10.99 KCAL/MOL
REMARK 923 INTER-LIGAND FREE ENERGY PREDICTED BY IDOCK:   -9.13 KCAL/MOL
REMARK 924 INTRA-LIGAND FREE ENERGY PREDICTED BY IDOCK:   -1.86 KCAL/MOL
REMARK 927      BINDING AFFINITY PREDICTED BY RF-SCORE:    0.00 PKD
ROOT
HETATM    1  C   UNL     1      -6.429  10.212  68.024  1.00  0.00    -0.058 C  
HETATM    2  C   UNL     1      -6.793  11.021  66.778  1.00  0.00    -0.128 C  
HETATM    3  C   UNL     1      -7.802  12.118  67.099  1.00  0.00    -0.160 C  
HETATM    4  N   UNL     1      -9.120  11.529  66.840  1.00  0.00    -0.174 NA 
HETATM    5  C   UNL     1      -9.443  11.175  64.437  1.00  0.00    -0.251 C  
HETATM    6  C   UNL     1      -8.981  10.502  65.744  1.00  0.00    -0.180 C  
HETATM    7  C   UNL     1      -7.462  10.175  65.698  1.00  0.00    -0.144 C  
HETATM    8  C   UNL     1      -9.722   9.163  65.823  1.00  0.00    -0.299 C  
ENDROOT
BRANCH   4   9
HETATM    9  C   UNL     1     -10.101  11.550  67.817  1.00  0.00    -0.182 A  
HETATM   10  N   UNL     1     -10.155  10.418  68.594  1.00  0.00    -0.168 NA 
HETATM   11  C   UNL     1     -11.012  10.271  69.644  1.00  0.00    -0.270 A  
HETATM   12  C   UNL     1     -11.885  11.279  69.980  1.00  0.00    -0.448 A  
HETATM   13  C   UNL     1     -10.987  12.615  68.097  1.00  0.00    -0.265 A  
HETATM   14  C   UNL     1     -11.858  12.448  69.207  1.00  0.00    -0.361 A  
BRANCH  11  15
HETATM   15  N   UNL     1     -10.979   9.045  70.416  1.00  0.00    -0.241 NA 
HETATM   16  C   UNL     1     -11.981   8.595  71.265  1.00  0.00    -0.293 A  
HETATM   17  C   UNL     1     -11.559   7.415  71.820  1.00  0.00    -0.305 A  
HETATM   18  N   UNL     1      -9.930   8.151  70.390  1.00  0.00    -0.187 NA 
HETATM   19  C   UNL     1     -10.301   7.199  71.256  1.00  0.00    -0.198 A  
BRANCH  19  20
HETATM   20  O   UNL     1      -9.535   6.127  71.557  1.00  0.00    -0.149 OA 
BRANCH  20  21
HETATM   21  C   UNL     1      -8.324   5.980  70.818  1.00  0.00    -0.126 C  
BRANCH  21  22
HETATM   22  C   UNL     1      -8.392   4.692  69.952  1.00  0.00    -0.074 C  
HETATM   23  F   UNL     1      -9.840   4.583  68.040  1.00  0.00    -0.193 F  
HETATM   24  F   UNL     1      -8.731   6.427  68.324  1.00  0.00    -0.117 F  
HETATM   25  C   UNL     1      -9.508   3.760  70.467  1.00  0.00    -0.254 C  
HETATM   26  C   UNL     1      -7.063   3.912  70.047  1.00  0.00    -0.042 C  
HETATM   27  C   UNL     1      -8.667   5.087  68.489  1.00  0.00    -0.097 C  
HETATM   28  F   UNL     1      -7.706   4.637  67.651  1.00  0.00    -0.082 F  
ENDBRANCH  21  22
ENDBRANCH  20  21
ENDBRANCH  19  20
ENDBRANCH  11  15
BRANCH  13  29
HETATM   29  C   UNL     1     -11.161  13.964  67.416  1.00  0.00    -0.312 C  
HETATM   30  H   UNL     1      -9.240  14.632  67.869  1.00  0.00     0.000 HD 
HETATM   31  N   UNL     1     -10.135  14.928  67.481  1.00  0.00    -0.228 N  
HETATM   32  O   UNL     1     -12.161  14.153  66.736  1.00  0.00    -0.429 OA 
BRANCH  31  33
HETATM   33  S   UNL     1     -10.266  16.541  66.967  1.00  0.00    -0.291 S  
HETATM   34  O   UNL     1     -10.678  16.527  65.586  1.00  0.00    -0.331 OA 
HETATM   35  O   UNL     1     -11.109  17.166  67.968  1.00  0.00    -0.313 OA 
BRANCH  33  36
HETATM   36  C   UNL     1      -8.816  17.508  66.979  1.00  0.00    -0.240 A  
HETATM   37  C   UNL     1      -7.513  17.038  67.068  1.00  0.00    -0.191 A  
HETATM   38  N   UNL     1      -6.692  18.117  66.925  1.00  0.00    -0.181 NA 
HETATM   39  N   UNL     1      -7.353  19.262  66.726  1.00  0.00    -0.213 NA 
HETATM   40  C   UNL     1      -5.250  18.173  66.908  1.00  0.00    -0.132 C  
HETATM   41  C   UNL     1      -8.645  18.906  66.685  1.00  0.00    -0.307 A  
HETATM   42  C   UNL     1      -9.577  19.995  66.277  1.00  0.00    -0.516 C  
ENDBRANCH  33  36
ENDBRANCH  31  33
ENDBRANCH  13  29
ENDBRANCH   4   9
TORSDOF 8
ENDMDL
MODEL       48
REMARK 921   NORMALIZED FREE ENERGY PREDICTED BY IDOCK:   -6.36 KCAL/MOL
REMARK 922        TOTAL FREE ENERGY PREDICTED BY IDOCK:  -10.97 KCAL/MOL
REMARK 923 INTER-LIGAND FREE ENERGY PREDICTED BY IDOCK:   -9.00 KCAL/MOL
REMARK 924 INTRA-LIGAND FREE ENERGY PREDICTED BY IDOCK:   -1.97 KCAL/MOL
REMARK 927      BINDING AFFINITY PREDICTED BY RF-SCORE:    0.00 PKD
ROOT
HETATM    1  C   UNL     1      -6.718   9.385  68.321  1.00  0.00    -0.059 C  
HETATM    2  C   UNL     1      -6.954  10.172  67.032  1.00  0.00    -0.088 C  
HETATM    3  C   UNL     1      -7.734  11.456  67.295  1.00  0.00    -0.145 C  
HETATM    4  N   UNL     1      -9.144  11.109  67.089  1.00  0.00    -0.146 NA 
HETATM    5  C   UNL     1      -9.583  10.680  64.717  1.00  0.00    -0.334 C  
HETATM    6  C   UNL     1      -9.223  10.011  66.058  1.00  0.00    -0.162 C  
HETATM    7  C   UNL     1      -7.794   9.404  66.014  1.00  0.00    -0.099 C  
HETATM    8  C   UNL     1     -10.198   8.841  66.229  1.00  0.00    -0.157 C  
ENDROOT
BRANCH   4   9
HETATM    9  C   UNL     1     -10.081  11.370  68.075  1.00  0.00    -0.180 A  
HETATM   10  N   UNL     1     -10.139  10.426  69.071  1.00  0.00    -0.202 NA 
HETATM   11  C   UNL     1     -10.954  10.534  70.159  1.00  0.00    -0.270 A  
HETATM   12  C   UNL     1     -11.778  11.623  70.308  1.00  0.00    -0.355 A  
HETATM   13  C   UNL     1     -10.920  12.505  68.158  1.00  0.00    -0.260 A  
HETATM   14  C   UNL     1     -11.748  12.606  69.309  1.00  0.00    -0.379 A  
BRANCH  11  15
HETATM   15  N   UNL     1     -10.927   9.492  71.167  1.00  0.00    -0.344 NA 
HETATM   16  C   UNL     1     -12.012   8.723  71.565  1.00  0.00    -0.324 A  
HETATM   17  C   UNL     1     -11.581   7.872  72.549  1.00  0.00    -0.443 A  
HETATM   18  N   UNL     1      -9.792   9.123  71.858  1.00  0.00    -0.252 NA 
HETATM   19  C   UNL     1     -10.223   8.167  72.690  1.00  0.00    -0.318 A  
BRANCH  19  20
HETATM   20  O   UNL     1      -9.424   7.540  73.582  1.00  0.00    -0.245 OA 
BRANCH  20  21
HETATM   21  C   UNL     1      -8.447   6.650  73.047  1.00  0.00    -0.117 C  
BRANCH  21  22
HETATM   22  C   UNL     1      -7.026   7.124  73.460  1.00  0.00    -0.069 C  
HETATM   23  F   UNL     1      -5.198   6.997  71.907  1.00  0.00    -0.029 F  
HETATM   24  F   UNL     1      -7.101   7.690  71.125  1.00  0.00    -0.052 F  
HETATM   25  C   UNL     1      -6.216   5.946  74.038  1.00  0.00    -0.065 C  
HETATM   26  C   UNL     1      -7.121   8.200  74.563  1.00  0.00    -0.210 C  
HETATM   27  C   UNL     1      -6.312   7.700  72.223  1.00  0.00    -0.043 C  
HETATM   28  F   UNL     1      -5.921   8.981  72.410  1.00  0.00    -0.075 F  
ENDBRANCH  21  22
ENDBRANCH  20  21
ENDBRANCH  19  20
ENDBRANCH  11  15
BRANCH  13  29
HETATM   29  C   UNL     1     -11.079  13.691  67.219  1.00  0.00    -0.293 C  
HETATM   30  H   UNL     1      -9.207  14.499  67.646  1.00  0.00     0.000 HD 
HETATM   31  N   UNL     1     -10.082  14.684  67.156  1.00  0.00    -0.243 N  
HETATM   32  O   UNL     1     -12.037  13.710  66.457  1.00  0.00    -0.404 OA 
BRANCH  31  33
HETATM   33  S   UNL     1     -10.215  16.162  66.330  1.00  0.00    -0.319 S  
HETATM   34  O   UNL     1     -10.408  15.866  64.933  1.00  0.00    -0.517 OA 
HETATM   35  O   UNL     1     -11.233  16.888  67.064  1.00  0.00     0.098 OA 
BRANCH  33  36
HETATM   36  C   UNL     1      -8.836  17.227  66.364  1.00  0.00    -0.246 A  
HETATM   37  C   UNL     1      -7.518  16.879  66.101  1.00  0.00    -0.159 A  
HETATM   38  N   UNL     1      -6.791  18.031  66.124  1.00  0.00    -0.251 NA 
HETATM   39  N   UNL     1      -7.531  19.119  66.360  1.00  0.00    -0.246 NA 
HETATM   40  C   UNL     1      -5.382  18.229  65.883  1.00  0.00    -0.176 C  
HETATM   41  C   UNL     1      -8.790  18.663  66.441  1.00  0.00    -0.275 A  
HETATM   42  C   UNL     1      -9.833  19.726  66.508  1.00  0.00    -0.546 C  
ENDBRANCH  33  36
ENDBRANCH  31  33
ENDBRANCH  13  29
ENDBRANCH   4   9
TORSDOF 8
ENDMDL
MODEL       49
REMARK 921   NORMALIZED FREE ENERGY PREDICTED BY IDOCK:   -6.34 KCAL/MOL
REMARK 922        TOTAL FREE ENERGY PREDICTED BY IDOCK:  -10.94 KCAL/MOL
REMARK 923 INTER-LIGAND FREE ENERGY PREDICTED BY IDOCK:   -8.81 KCAL/MOL
REMARK 924 INTRA-LIGAND FREE ENERGY PREDICTED BY IDOCK:   -2.13 KCAL/MOL
REMARK 927      BINDING AFFINITY PREDICTED BY RF-SCORE:    0.00 PKD
ROOT
HETATM    1  C   UNL     1      -7.986   7.450  68.886  1.00  0.00    -0.126 C  
HETATM    2  C   UNL     1      -7.288   8.646  68.240  1.00  0.00    -0.087 C  
HETATM    3  C   UNL     1      -7.691   9.957  68.908  1.00  0.00    -0.085 C  
HETATM    4  N   UNL     1      -8.822  10.466  68.125  1.00  0.00    -0.130 NA 
HETATM    5  C   UNL     1      -8.073  11.190  65.908  1.00  0.00    -0.017 C  
HETATM    6  C   UNL     1      -8.664  10.007  66.697  1.00  0.00    -0.129 C  
HETATM    7  C   UNL     1      -7.658   8.825  66.770  1.00  0.00    -0.090 C  
HETATM    8  C   UNL     1      -9.872   9.514  65.892  1.00  0.00    -0.360 C  
ENDROOT
BRANCH   4   9
HETATM    9  C   UNL     1     -10.015  10.793  68.748  1.00  0.00    -0.193 A  
HETATM   10  N   UNL     1     -10.571   9.776  69.483  1.00  0.00    -0.220 NA 
HETATM   11  C   UNL     1     -11.712   9.918  70.217  1.00  0.00    -0.216 A  
HETATM   12  C   UNL     1     -12.373  11.123  70.252  1.00  0.00    -0.397 A  
HETATM   13  C   UNL     1     -10.658  12.052  68.725  1.00  0.00    -0.237 A  
HETATM   14  C   UNL     1     -11.834  12.184  69.511  1.00  0.00    -0.386 A  
BRANCH  11  15
HETATM   15  N   UNL     1     -12.210   8.788  70.976  1.00  0.00    -0.242 NA 
HETATM   16  C   UNL     1     -13.409   8.747  71.675  1.00  0.00    -0.359 A  
HETATM   17  C   UNL     1     -13.500   7.517  72.272  1.00  0.00     0.050 A  
HETATM   18  N   UNL     1     -11.543   7.586  71.087  1.00  0.00    -0.276 NA 
HETATM   19  C   UNL     1     -12.333   6.857  71.885  1.00  0.00    -0.325 A  
BRANCH  19  20
HETATM   20  O   UNL     1     -12.035   5.599  72.280  1.00  0.00    -0.196 OA 
BRANCH  20  21
HETATM   21  C   UNL     1     -11.121   5.472  73.368  1.00  0.00    -0.228 C  
BRANCH  21  22
HETATM   22  C   UNL     1      -9.854   4.703  72.899  1.00  0.00    -0.180 C  
HETATM   23  F   UNL     1      -8.173   5.806  71.588  1.00  0.00    -0.112 F  
HETATM   24  F   UNL     1      -9.009   6.925  73.249  1.00  0.00    -0.132 F  
HETATM   25  C   UNL     1     -10.093   4.077  71.509  1.00  0.00    -0.166 C  
HETATM   26  C   UNL     1      -9.540   3.548  73.874  1.00  0.00    -0.126 C  
HETATM   27  C   UNL     1      -8.667   5.682  72.841  1.00  0.00    -0.121 C  
HETATM   28  F   UNL     1      -7.640   5.283  73.626  1.00  0.00    -0.090 F  
ENDBRANCH  21  22
ENDBRANCH  20  21
ENDBRANCH  19  20
ENDBRANCH  11  15
BRANCH  13  29
HETATM   29  C   UNL     1     -10.288  13.341  68.008  1.00  0.00    -0.241 C  
HETATM   30  H   UNL     1     -12.114  13.517  67.020  1.00  0.00     0.000 HD 
HETATM   31  N   UNL     1     -11.177  13.915  67.078  1.00  0.00    -0.304 N  
HETATM   32  O   UNL     1      -9.254  13.914  68.328  1.00  0.00    -0.199 OA 
BRANCH  31  33
HETATM   33  S   UNL     1     -10.818  15.215  66.046  1.00  0.00    -0.336 S  
HETATM   34  O   UNL     1      -9.599  14.895  65.349  1.00  0.00    -0.252 OA 
HETATM   35  O   UNL     1     -12.045  15.427  65.301  1.00  0.00     0.096 OA 
BRANCH  33  36
HETATM   36  C   UNL     1     -10.505  16.763  66.783  1.00  0.00    -0.258 A  
HETATM   37  C   UNL     1     -10.381  17.980  66.126  1.00  0.00    -0.366 A  
HETATM   38  N   UNL     1     -10.257  18.938  67.088  1.00  0.00    -0.359 NA 
HETATM   39  N   UNL     1     -10.313  18.451  68.331  1.00  0.00    -0.358 NA 
HETATM   40  C   UNL     1     -10.132  20.368  66.942  1.00  0.00    -0.363 C  
HETATM   41  C   UNL     1     -10.533  17.138  68.172  1.00  0.00    -0.366 A  
HETATM   42  C   UNL     1     -10.829  16.400  69.434  1.00  0.00    -0.327 C  
ENDBRANCH  33  36
ENDBRANCH  31  33
ENDBRANCH  13  29
ENDBRANCH   4   9
TORSDOF 8
ENDMDL
MODEL       50
REMARK 921   NORMALIZED FREE ENERGY PREDICTED BY IDOCK:   -6.30 KCAL/MOL
REMARK 922        TOTAL FREE ENERGY PREDICTED BY IDOCK:  -10.87 KCAL/MOL
REMARK 923 INTER-LIGAND FREE ENERGY PREDICTED BY IDOCK:   -9.04 KCAL/MOL
REMARK 924 INTRA-LIGAND FREE ENERGY PREDICTED BY IDOCK:   -1.83 KCAL/MOL
REMARK 927      BINDING AFFINITY PREDICTED BY RF-SCORE:    0.00 PKD
ROOT
HETATM    1  C   UNL     1     -11.276  12.005  64.086  1.00  0.00    -0.441 C  
HETATM    2  C   UNL     1     -11.647  13.393  64.608  1.00  0.00    -0.386 C  
HETATM    3  C   UNL     1     -10.408  14.195  64.991  1.00  0.00    -0.418 C  
HETATM    4  N   UNL     1     -10.205  13.946  66.422  1.00  0.00    -0.285 NA 
HETATM    5  C   UNL     1     -11.976  15.012  67.737  1.00  0.00    -0.120 C  
HETATM    6  C   UNL     1     -11.547  13.696  67.062  1.00  0.00    -0.359 C  
HETATM    7  C   UNL     1     -12.491  13.342  65.879  1.00  0.00    -0.433 C  
HETATM    8  C   UNL     1     -11.723  12.596  68.115  1.00  0.00    -0.396 C  
ENDROOT
BRANCH   4   9
HETATM    9  C   UNL     1      -8.983  13.490  66.887  1.00  0.00    -0.209 A  
HETATM   10  N   UNL     1      -8.770  12.146  66.705  1.00  0.00    -0.183 NA 
HETATM   11  C   UNL     1      -7.606  11.519  67.041  1.00  0.00    -0.154 A  
HETATM   12  C   UNL     1      -6.567  12.228  67.596  1.00  0.00    -0.122 A  
HETATM   13  C   UNL     1      -7.961  14.272  67.473  1.00  0.00    -0.203 A  
HETATM   14  C   UNL     1      -6.750  13.602  67.799  1.00  0.00    -0.177 A  
BRANCH  11  15
HETATM   15  N   UNL     1      -7.471  10.097  66.790  1.00  0.00    -0.102 NA 
HETATM   16  C   UNL     1      -6.401   9.486  66.149  1.00  0.00    -0.069 A  
HETATM   17  C   UNL     1      -6.663   8.143  66.091  1.00  0.00    -0.054 A  
HETATM   18  N   UNL     1      -8.404   9.159  67.176  1.00  0.00    -0.116 NA 
HETATM   19  C   UNL     1      -7.899   8.003  66.725  1.00  0.00    -0.103 A  
BRANCH  19  20
HETATM   20  O   UNL     1      -8.521   6.812  66.869  1.00  0.00    -0.112 OA 
BRANCH  20  21
HETATM   21  C   UNL     1      -8.564   6.270  68.188  1.00  0.00    -0.116 C  
BRANCH  21  22
HETATM   22  C   UNL     1      -9.876   5.460  68.378  1.00  0.00    -0.197 C  
HETATM   23  F   UNL     1     -10.894   5.279  70.546  1.00  0.00    -0.325 F  
HETATM   24  F   UNL     1     -10.123   7.230  69.986  1.00  0.00    -0.183 F  
HETATM   25  C   UNL     1      -9.552   3.998  68.746  1.00  0.00    -0.201 C  
HETATM   26  C   UNL     1     -10.684   5.435  67.063  1.00  0.00    -0.233 C  
HETATM   27  C   UNL     1     -10.709   6.114  69.496  1.00  0.00    -0.320 C  
HETATM   28  F   UNL     1     -11.940   6.477  69.068  1.00  0.00    -0.213 F  
ENDBRANCH  21  22
ENDBRANCH  20  21
ENDBRANCH  19  20
ENDBRANCH  11  15
BRANCH  13  29
HETATM   29  C   UNL     1      -7.913  15.756  67.801  1.00  0.00    -0.142 C  
HETATM   30  H   UNL     1      -6.797  16.267  66.118  1.00  0.00     0.000 HD 
HETATM   31  N   UNL     1      -7.170  16.637  66.992  1.00  0.00    -0.179 N  
HETATM   32  O   UNL     1      -8.608  16.176  68.717  1.00  0.00    -0.210 OA 
BRANCH  31  33
HETATM   33  S   UNL     1      -6.843  18.265  67.350  1.00  0.00    -0.198 S  
HETATM   34  O   UNL     1      -5.872  18.736  66.395  1.00  0.00    -0.152 OA 
HETATM   35  O   UNL     1      -8.153  18.884  67.416  1.00  0.00    -0.258 OA 
BRANCH  33  36
HETATM   36  C   UNL     1      -6.135  18.619  68.902  1.00  0.00    -0.223 A  
HETATM   37  C   UNL     1      -6.269  19.799  69.621  1.00  0.00    -0.330 A  
HETATM   38  N   UNL     1      -5.654  19.604  70.821  1.00  0.00    -0.244 NA 
HETATM   39  N   UNL     1      -5.141  18.377  70.961  1.00  0.00    -0.327 NA 
HETATM   40  C   UNL     1      -5.534  20.503  71.944  1.00  0.00    -0.182 C  
HETATM   41  C   UNL     1      -5.482  17.736  69.833  1.00  0.00    -0.229 A  
HETATM   42  C   UNL     1      -5.186  16.275  69.835  1.00  0.00    -0.137 C  
ENDBRANCH  33  36
ENDBRANCH  31  33
ENDBRANCH  13  29
ENDBRANCH   4   9
TORSDOF 8
ENDMDL
MODEL       51
REMARK 921   NORMALIZED FREE ENERGY PREDICTED BY IDOCK:   -6.28 KCAL/MOL
REMARK 922        TOTAL FREE ENERGY PREDICTED BY IDOCK:  -10.85 KCAL/MOL
REMARK 923 INTER-LIGAND FREE ENERGY PREDICTED BY IDOCK:   -9.67 KCAL/MOL
REMARK 924 INTRA-LIGAND FREE ENERGY PREDICTED BY IDOCK:   -1.18 KCAL/MOL
REMARK 927      BINDING AFFINITY PREDICTED BY RF-SCORE:    0.00 PKD
ROOT
HETATM    1  C   UNL     1     -12.145  13.833  68.450  1.00  0.00    -0.324 C  
HETATM    2  C   UNL     1     -10.823  13.361  69.055  1.00  0.00    -0.220 C  
HETATM    3  C   UNL     1      -9.680  13.467  68.051  1.00  0.00    -0.228 C  
HETATM    4  N   UNL     1      -9.604  12.155  67.400  1.00  0.00    -0.176 NA 
HETATM    5  C   UNL     1      -8.793  10.463  68.975  1.00  0.00    -0.176 C  
HETATM    6  C   UNL     1     -10.061  11.105  68.381  1.00  0.00    -0.184 C  
HETATM    7  C   UNL     1     -10.850  11.891  69.465  1.00  0.00    -0.008 C  
HETATM    8  C   UNL     1     -10.958   9.947  67.931  1.00  0.00    -0.281 C  
ENDROOT
BRANCH   4   9
HETATM    9  C   UNL     1      -9.647  12.054  66.020  1.00  0.00    -0.234 A  
HETATM   10  N   UNL     1      -9.201  10.856  65.521  1.00  0.00    -0.202 NA 
HETATM   11  C   UNL     1      -9.220  10.542  64.194  1.00  0.00    -0.249 A  
HETATM   12  C   UNL     1      -9.700  11.441  63.272  1.00  0.00    -0.413 A  
HETATM   13  C   UNL     1     -10.134  13.031  65.120  1.00  0.00    -0.238 A  
HETATM   14  C   UNL     1     -10.162  12.677  63.745  1.00  0.00    -0.281 A  
BRANCH  11  15
HETATM   15  N   UNL     1      -8.744   9.240  63.769  1.00  0.00    -0.198 NA 
HETATM   16  C   UNL     1      -8.607   8.818  62.453  1.00  0.00    -0.188 A  
HETATM   17  C   UNL     1      -8.152   7.526  62.476  1.00  0.00    -0.111 A  
HETATM   18  N   UNL     1      -8.350   8.246  64.640  1.00  0.00    -0.141 NA 
HETATM   19  C   UNL     1      -8.021   7.229  63.834  1.00  0.00    -0.078 A  
BRANCH  19  20
HETATM   20  O   UNL     1      -7.600   6.027  64.286  1.00  0.00    -0.079 OA 
BRANCH  20  21
HETATM   21  C   UNL     1      -7.801   5.761  65.672  1.00  0.00    -0.100 C  
BRANCH  21  22
HETATM   22  C   UNL     1      -8.713   4.514  65.839  1.00  0.00    -0.119 C  
HETATM   23  F   UNL     1     -10.478   4.501  67.467  1.00  0.00    -0.140 F  
HETATM   24  F   UNL     1     -10.221   6.323  66.316  1.00  0.00    -0.198 F  
HETATM   25  C   UNL     1      -8.133   3.567  66.909  1.00  0.00    -0.088 C  
HETATM   26  C   UNL     1      -8.783   3.722  64.515  1.00  0.00    -0.114 C  
HETATM   27  C   UNL     1     -10.123   4.976  66.251  1.00  0.00    -0.247 C  
HETATM   28  F   UNL     1     -11.071   4.559  65.380  1.00  0.00    -0.356 F  
ENDBRANCH  21  22
ENDBRANCH  20  21
ENDBRANCH  19  20
ENDBRANCH  11  15
BRANCH  13  29
HETATM   29  C   UNL     1     -10.677  14.429  65.374  1.00  0.00    -0.348 C  
HETATM   30  H   UNL     1      -8.804  15.342  65.372  1.00  0.00     0.000 HD 
HETATM   31  N   UNL     1      -9.793  15.510  65.558  1.00  0.00    -0.334 N  
HETATM   32  O   UNL     1     -11.887  14.607  65.317  1.00  0.00    -0.355 OA 
BRANCH  31  33
HETATM   33  S   UNL     1     -10.236  17.070  66.063  1.00  0.00    -0.278 S  
HETATM   34  O   UNL     1     -10.958  17.690  64.981  1.00  0.00    -0.780 OA 
HETATM   35  O   UNL     1     -10.888  16.858  67.341  1.00  0.00    -0.278 OA 
BRANCH  33  36
HETATM   36  C   UNL     1      -8.952  18.190  66.429  1.00  0.00    -0.239 A  
HETATM   37  C   UNL     1      -7.623  18.075  66.046  1.00  0.00    -0.205 A  
HETATM   38  N   UNL     1      -6.996  19.219  66.442  1.00  0.00    -0.208 NA 
HETATM   39  N   UNL     1      -7.814  20.092  67.038  1.00  0.00    -0.297 NA 
HETATM   40  C   UNL     1      -5.621  19.619  66.258  1.00  0.00    -0.166 C  
HETATM   41  C   UNL     1      -9.025  19.517  66.981  1.00  0.00    -0.308 A  
HETATM   42  C   UNL     1     -10.150  20.393  67.415  1.00  0.00    -0.500 C  
ENDBRANCH  33  36
ENDBRANCH  31  33
ENDBRANCH  13  29
ENDBRANCH   4   9
TORSDOF 8
ENDMDL
MODEL       52
REMARK 921   NORMALIZED FREE ENERGY PREDICTED BY IDOCK:   -6.23 KCAL/MOL
REMARK 922        TOTAL FREE ENERGY PREDICTED BY IDOCK:  -10.77 KCAL/MOL
REMARK 923 INTER-LIGAND FREE ENERGY PREDICTED BY IDOCK:   -9.65 KCAL/MOL
REMARK 924 INTRA-LIGAND FREE ENERGY PREDICTED BY IDOCK:   -1.12 KCAL/MOL
REMARK 927      BINDING AFFINITY PREDICTED BY RF-SCORE:    0.00 PKD
ROOT
HETATM    1  C   UNL     1     -10.194  10.548  64.204  1.00  0.00    -0.287 C  
HETATM    2  C   UNL     1     -10.892  11.906  64.267  1.00  0.00    -0.396 C  
HETATM    3  C   UNL     1      -9.911  13.024  64.605  1.00  0.00    -0.126 C  
HETATM    4  N   UNL     1      -9.965  13.168  66.064  1.00  0.00    -0.282 NA 
HETATM    5  C   UNL     1     -12.121  14.106  66.753  1.00  0.00    -0.474 C  
HETATM    6  C   UNL     1     -11.348  12.792  66.533  1.00  0.00    -0.322 C  
HETATM    7  C   UNL     1     -11.957  11.975  65.360  1.00  0.00    -0.184 C  
HETATM    8  C   UNL     1     -11.547  11.959  67.804  1.00  0.00    -0.393 C  
ENDROOT
BRANCH   4   9
HETATM    9  C   UNL     1      -8.805  13.109  66.817  1.00  0.00    -0.132 A  
HETATM   10  N   UNL     1      -8.367  14.322  67.287  1.00  0.00    -0.202 NA 
HETATM   11  C   UNL     1      -7.278  14.464  68.095  1.00  0.00    -0.128 A  
HETATM   12  C   UNL     1      -6.549  13.365  68.483  1.00  0.00    -0.089 A  
HETATM   13  C   UNL     1      -8.086  11.941  67.163  1.00  0.00    -0.172 A  
HETATM   14  C   UNL     1      -6.966  12.109  68.020  1.00  0.00    -0.090 A  
BRANCH  11  15
HETATM   15  N   UNL     1      -6.908  15.788  68.556  1.00  0.00    -0.116 NA 
HETATM   16  C   UNL     1      -5.886  16.077  69.450  1.00  0.00    -0.131 A  
HETATM   17  C   UNL     1      -5.873  17.434  69.642  1.00  0.00    -0.242 A  
HETATM   18  N   UNL     1      -7.531  16.945  68.142  1.00  0.00    -0.172 NA 
HETATM   19  C   UNL     1      -6.901  17.909  68.826  1.00  0.00    -0.255 A  
BRANCH  19  20
HETATM   20  O   UNL     1      -7.224  19.218  68.738  1.00  0.00    -0.316 OA 
BRANCH  20  21
HETATM   21  C   UNL     1      -7.777  19.656  67.498  1.00  0.00    -0.267 C  
BRANCH  21  22
HETATM   22  C   UNL     1      -9.311  19.848  67.648  1.00  0.00    -0.464 C  
HETATM   23  F   UNL     1     -10.749  19.734  65.728  1.00  0.00    -0.562 F  
HETATM   24  F   UNL     1      -9.163  18.256  65.853  1.00  0.00    -0.220 F  
HETATM   25  C   UNL     1      -9.685  21.333  67.458  1.00  0.00     0.127 C  
HETATM   26  C   UNL     1      -9.765  19.438  69.065  1.00  0.00    -0.468 C  
HETATM   27  C   UNL     1     -10.029  18.984  66.594  1.00  0.00    -0.374 C  
HETATM   28  F   UNL     1     -10.892  18.107  67.158  1.00  0.00    -0.389 F  
ENDBRANCH  21  22
ENDBRANCH  20  21
ENDBRANCH  19  20
ENDBRANCH  11  15
BRANCH  13  29
HETATM   29  C   UNL     1      -8.323  10.485  66.791  1.00  0.00    -0.128 C  
HETATM   30  H   UNL     1      -9.667  10.130  68.343  1.00  0.00     0.000 HD 
HETATM   31  N   UNL     1      -9.140   9.671  67.600  1.00  0.00    -0.131 N  
HETATM   32  O   UNL     1      -7.872  10.070  65.731  1.00  0.00    -0.117 OA 
BRANCH  31  33
HETATM   33  S   UNL     1      -9.320   7.990  67.441  1.00  0.00    -0.150 S  
HETATM   34  O   UNL     1     -10.278   7.751  66.392  1.00  0.00    -0.176 OA 
HETATM   35  O   UNL     1      -7.962   7.498  67.309  1.00  0.00    -0.114 OA 
BRANCH  33  36
HETATM   36  C   UNL     1      -9.949   7.117  68.812  1.00  0.00    -0.163 A  
HETATM   37  C   UNL     1     -10.745   7.634  69.825  1.00  0.00    -0.240 A  
HETATM   38  N   UNL     1     -11.102   6.588  70.622  1.00  0.00    -0.287 NA 
HETATM   39  N   UNL     1     -10.621   5.414  70.202  1.00  0.00    -0.296 NA 
HETATM   40  C   UNL     1     -11.947   6.577  71.792  1.00  0.00    -0.344 C  
HETATM   41  C   UNL     1      -9.973   5.700  69.063  1.00  0.00    -0.174 A  
HETATM   42  C   UNL     1      -9.509   4.509  68.296  1.00  0.00    -0.205 C  
ENDBRANCH  33  36
ENDBRANCH  31  33
ENDBRANCH  13  29
ENDBRANCH   4   9
TORSDOF 8
ENDMDL
MODEL       53
REMARK 921   NORMALIZED FREE ENERGY PREDICTED BY IDOCK:   -6.22 KCAL/MOL
REMARK 922        TOTAL FREE ENERGY PREDICTED BY IDOCK:  -10.76 KCAL/MOL
REMARK 923 INTER-LIGAND FREE ENERGY PREDICTED BY IDOCK:   -9.03 KCAL/MOL
REMARK 924 INTRA-LIGAND FREE ENERGY PREDICTED BY IDOCK:   -1.73 KCAL/MOL
REMARK 927      BINDING AFFINITY PREDICTED BY RF-SCORE:    0.00 PKD
ROOT
HETATM    1  C   UNL     1     -11.236  11.806  63.714  1.00  0.00    -0.518 C  
HETATM    2  C   UNL     1     -11.637  13.157  64.306  1.00  0.00    -0.440 C  
HETATM    3  C   UNL     1     -10.416  13.959  64.748  1.00  0.00    -0.429 C  
HETATM    4  N   UNL     1     -10.224  13.635  66.165  1.00  0.00    -0.297 NA 
HETATM    5  C   UNL     1     -12.027  14.597  67.516  1.00  0.00    -0.309 C  
HETATM    6  C   UNL     1     -11.569  13.327  66.775  1.00  0.00    -0.365 C  
HETATM    7  C   UNL     1     -12.493  13.022  65.563  1.00  0.00    -0.496 C  
HETATM    8  C   UNL     1     -11.736  12.168  67.764  1.00  0.00    -0.390 C  
ENDROOT
BRANCH   4   9
HETATM    9  C   UNL     1      -8.999  13.175  66.619  1.00  0.00    -0.125 A  
HETATM   10  N   UNL     1      -8.786  11.833  66.422  1.00  0.00    -0.191 NA 
HETATM   11  C   UNL     1      -7.620  11.204  66.745  1.00  0.00    -0.146 A  
HETATM   12  C   UNL     1      -6.578  11.908  67.301  1.00  0.00    -0.141 A  
HETATM   13  C   UNL     1      -7.974  13.952  67.206  1.00  0.00    -0.147 A  
HETATM   14  C   UNL     1      -6.761  13.280  67.518  1.00  0.00    -0.156 A  
BRANCH  11  15
HETATM   15  N   UNL     1      -7.486   9.785  66.479  1.00  0.00    -0.094 NA 
HETATM   16  C   UNL     1      -6.322   9.041  66.623  1.00  0.00    -0.066 A  
HETATM   17  C   UNL     1      -6.604   7.752  66.253  1.00  0.00    -0.050 A  
HETATM   18  N   UNL     1      -8.524   8.983  66.054  1.00  0.00    -0.124 NA 
HETATM   19  C   UNL     1      -7.957   7.778  65.909  1.00  0.00    -0.107 A  
BRANCH  19  20
HETATM   20  O   UNL     1      -8.626   6.688  65.475  1.00  0.00    -0.149 OA 
BRANCH  20  21
HETATM   21  C   UNL     1      -8.224   5.433  66.022  1.00  0.00    -0.116 C  
BRANCH  21  22
HETATM   22  C   UNL     1      -9.453   4.488  66.121  1.00  0.00    -0.173 C  
HETATM   23  F   UNL     1     -10.787   4.013  64.181  1.00  0.00    -0.271 F  
HETATM   24  F   UNL     1      -8.633   4.039  63.907  1.00  0.00    -0.092 F  
HETATM   25  C   UNL     1     -10.730   5.301  66.422  1.00  0.00    -0.290 C  
HETATM   26  C   UNL     1      -9.265   3.485  67.279  1.00  0.00    -0.221 C  
HETATM   27  C   UNL     1      -9.611   3.731  64.789  1.00  0.00    -0.174 C  
HETATM   28  F   UNL     1      -9.574   2.389  64.958  1.00  0.00    -0.146 F  
ENDBRANCH  21  22
ENDBRANCH  20  21
ENDBRANCH  19  20
ENDBRANCH  11  15
BRANCH  13  29
HETATM   29  C   UNL     1      -7.926  15.433  67.549  1.00  0.00    -0.170 C  
HETATM   30  H   UNL     1      -6.743  15.947  65.913  1.00  0.00     0.000 HD 
HETATM   31  N   UNL     1      -7.145  16.314  66.775  1.00  0.00    -0.202 N  
HETATM   32  O   UNL     1      -8.651  15.852  68.441  1.00  0.00    -0.168 OA 
BRANCH  31  33
HETATM   33  S   UNL     1      -6.817  17.936  67.159  1.00  0.00    -0.183 S  
HETATM   34  O   UNL     1      -5.830  18.415  66.225  1.00  0.00    -0.149 OA 
HETATM   35  O   UNL     1      -8.125  18.559  67.214  1.00  0.00    -0.237 OA 
BRANCH  33  36
HETATM   36  C   UNL     1      -6.131  18.266  68.727  1.00  0.00    -0.207 A  
HETATM   37  C   UNL     1      -6.267  19.440  69.456  1.00  0.00    -0.297 A  
HETATM   38  N   UNL     1      -5.673  19.226  70.664  1.00  0.00    -0.219 NA 
HETATM   39  N   UNL     1      -5.173  17.994  70.798  1.00  0.00    -0.271 NA 
HETATM   40  C   UNL     1      -5.564  20.113  71.798  1.00  0.00    -0.394 C  
HETATM   41  C   UNL     1      -5.501  17.368  69.658  1.00  0.00    -0.199 A  
HETATM   42  C   UNL     1      -5.217  15.905  69.648  1.00  0.00    -0.112 C  
ENDBRANCH  33  36
ENDBRANCH  31  33
ENDBRANCH  13  29
ENDBRANCH   4   9
TORSDOF 8
ENDMDL
MODEL       54
REMARK 921   NORMALIZED FREE ENERGY PREDICTED BY IDOCK:   -6.21 KCAL/MOL
REMARK 922        TOTAL FREE ENERGY PREDICTED BY IDOCK:  -10.75 KCAL/MOL
REMARK 923 INTER-LIGAND FREE ENERGY PREDICTED BY IDOCK:   -8.94 KCAL/MOL
REMARK 924 INTRA-LIGAND FREE ENERGY PREDICTED BY IDOCK:   -1.81 KCAL/MOL
REMARK 927      BINDING AFFINITY PREDICTED BY RF-SCORE:    0.00 PKD
ROOT
HETATM    1  C   UNL     1     -11.800  13.134  68.933  1.00  0.00    -0.361 C  
HETATM    2  C   UNL     1     -11.870  11.614  68.786  1.00  0.00    -0.387 C  
HETATM    3  C   UNL     1     -10.733  10.927  69.535  1.00  0.00    -0.206 C  
HETATM    4  N   UNL     1      -9.658  10.759  68.552  1.00  0.00    -0.176 NA 
HETATM    5  C   UNL     1     -10.289   9.093  66.870  1.00  0.00    -0.321 C  
HETATM    6  C   UNL     1     -10.276  10.601  67.186  1.00  0.00    -0.216 C  
HETATM    7  C   UNL     1     -11.721  11.152  67.338  1.00  0.00    -0.030 C  
HETATM    8  C   UNL     1      -9.665  11.291  65.962  1.00  0.00    -0.253 C  
ENDROOT
BRANCH   4   9
HETATM    9  C   UNL     1      -8.384  11.230  68.820  1.00  0.00    -0.120 A  
HETATM   10  N   UNL     1      -8.113  12.470  68.297  1.00  0.00    -0.161 NA 
HETATM   11  C   UNL     1      -6.936  13.128  68.501  1.00  0.00    -0.103 A  
HETATM   12  C   UNL     1      -5.941  12.560  69.261  1.00  0.00    -0.093 A  
HETATM   13  C   UNL     1      -7.393  10.582  69.594  1.00  0.00    -0.151 A  
HETATM   14  C   UNL     1      -6.182  11.293  69.809  1.00  0.00    -0.124 A  
BRANCH  11  15
HETATM   15  N   UNL     1      -6.754  14.445  67.921  1.00  0.00    -0.150 NA 
HETATM   16  C   UNL     1      -5.604  15.218  68.015  1.00  0.00    -0.136 A  
HETATM   17  C   UNL     1      -5.841  16.396  67.356  1.00  0.00    -0.189 A  
HETATM   18  N   UNL     1      -7.716  15.096  67.181  1.00  0.00    -0.208 NA 
HETATM   19  C   UNL     1      -7.145  16.268  66.876  1.00  0.00    -0.211 A  
BRANCH  19  20
HETATM   20  O   UNL     1      -7.766  17.238  66.168  1.00  0.00    -0.333 OA 
BRANCH  20  21
HETATM   21  C   UNL     1      -8.155  18.405  66.891  1.00  0.00    -0.245 C  
BRANCH  21  22
HETATM   22  C   UNL     1      -9.672  18.337  67.216  1.00  0.00    -0.301 C  
HETATM   23  F   UNL     1     -10.725  20.076  68.495  1.00  0.00    -0.513 F  
HETATM   24  F   UNL     1      -9.299  20.700  66.981  1.00  0.00    -0.485 F  
HETATM   25  C   UNL     1      -9.898  17.627  68.566  1.00  0.00    -0.346 C  
HETATM   26  C   UNL     1     -10.414  17.518  66.138  1.00  0.00    -0.288 C  
HETATM   27  C   UNL     1     -10.236  19.769  67.270  1.00  0.00    -0.438 C  
HETATM   28  F   UNL     1     -11.250  19.951  66.392  1.00  0.00    -0.468 F  
ENDBRANCH  21  22
ENDBRANCH  20  21
ENDBRANCH  19  20
ENDBRANCH  11  15
BRANCH  13  29
HETATM   29  C   UNL     1      -7.404   9.226  70.283  1.00  0.00    -0.100 C  
HETATM   30  H   UNL     1      -8.926   9.724  71.615  1.00  0.00     0.000 HD 
HETATM   31  N   UNL     1      -8.241   9.002  71.394  1.00  0.00    -0.116 N  
HETATM   32  O   UNL     1      -6.748   8.315  69.794  1.00  0.00    -0.039 OA 
BRANCH  31  33
HETATM   33  S   UNL     1      -8.204   7.630  72.394  1.00  0.00    -0.121 S  
HETATM   34  O   UNL     1      -6.823   7.341  72.688  1.00  0.00    -0.066 OA 
HETATM   35  O   UNL     1      -9.123   7.949  73.470  1.00  0.00    -0.253 OA 
BRANCH  33  36
HETATM   36  C   UNL     1      -8.830   6.141  71.738  1.00  0.00    -0.138 A  
HETATM   37  C   UNL     1      -8.502   4.856  72.150  1.00  0.00    -0.124 A  
HETATM   38  N   UNL     1      -9.303   4.001  71.453  1.00  0.00    -0.133 NA 
HETATM   39  N   UNL     1     -10.151   4.623  70.629  1.00  0.00    -0.217 NA 
HETATM   40  C   UNL     1      -9.387   2.562  71.528  1.00  0.00    -0.124 C  
HETATM   41  C   UNL     1      -9.930   5.930  70.836  1.00  0.00    -0.187 A  
HETATM   42  C   UNL     1     -10.902   6.838  70.163  1.00  0.00    -0.311 C  
ENDBRANCH  33  36
ENDBRANCH  31  33
ENDBRANCH  13  29
ENDBRANCH   4   9
TORSDOF 8
ENDMDL
MODEL       55
REMARK 921   NORMALIZED FREE ENERGY PREDICTED BY IDOCK:   -6.21 KCAL/MOL
REMARK 922        TOTAL FREE ENERGY PREDICTED BY IDOCK:  -10.74 KCAL/MOL
REMARK 923 INTER-LIGAND FREE ENERGY PREDICTED BY IDOCK:   -9.82 KCAL/MOL
REMARK 924 INTRA-LIGAND FREE ENERGY PREDICTED BY IDOCK:   -0.92 KCAL/MOL
REMARK 927      BINDING AFFINITY PREDICTED BY RF-SCORE:    0.00 PKD
ROOT
HETATM    1  C   UNL     1      -8.980   6.312  65.610  1.00  0.00    -0.035 C  
HETATM    2  C   UNL     1      -7.678   7.109  65.523  1.00  0.00    -0.108 C  
HETATM    3  C   UNL     1      -7.623   8.208  66.580  1.00  0.00    -0.092 C  
HETATM    4  N   UNL     1      -8.152   9.409  65.927  1.00  0.00    -0.113 NA 
HETATM    5  C   UNL     1      -6.592  10.215  64.219  1.00  0.00    -0.114 C  
HETATM    6  C   UNL     1      -7.835   9.337  64.455  1.00  0.00    -0.123 C  
HETATM    7  C   UNL     1      -7.518   7.838  64.191  1.00  0.00    -0.105 C  
HETATM    8  C   UNL     1      -8.868   9.764  63.406  1.00  0.00    -0.258 C  
ENDROOT
BRANCH   4   9
HETATM    9  C   UNL     1      -9.195  10.116  66.502  1.00  0.00    -0.153 A  
HETATM   10  N   UNL     1      -9.250  11.441  66.146  1.00  0.00    -0.206 NA 
HETATM   11  C   UNL     1     -10.236  12.288  66.560  1.00  0.00    -0.214 A  
HETATM   12  C   UNL     1     -11.246  11.837  67.376  1.00  0.00    -0.357 A  
HETATM   13  C   UNL     1     -10.194   9.595  67.357  1.00  0.00    -0.283 A  
HETATM   14  C   UNL     1     -11.221  10.490  67.761  1.00  0.00    -0.344 A  
BRANCH  11  15
HETATM   15  N   UNL     1     -10.216  13.667  66.113  1.00  0.00    -0.297 NA 
HETATM   16  C   UNL     1     -11.084  14.231  65.187  1.00  0.00    -0.352 A  
HETATM   17  C   UNL     1     -10.723  15.542  65.022  1.00  0.00    -0.463 A  
HETATM   18  N   UNL     1      -9.321  14.609  66.573  1.00  0.00    -0.279 NA 
HETATM   19  C   UNL     1      -9.639  15.713  65.885  1.00  0.00    -0.350 A  
BRANCH  19  20
HETATM   20  O   UNL     1      -8.979  16.886  66.012  1.00  0.00    -0.458 OA 
BRANCH  20  21
HETATM   21  C   UNL     1      -8.975  17.478  67.310  1.00  0.00    -0.235 C  
BRANCH  21  22
HETATM   22  C   UNL     1      -8.639  18.990  67.193  1.00  0.00    -0.298 C  
HETATM   23  F   UNL     1     -10.028  20.453  65.890  1.00  0.00    -0.508 F  
HETATM   24  F   UNL     1     -11.041  18.990  67.134  1.00  0.00    -0.508 F  
HETATM   25  C   UNL     1      -7.744  19.245  65.963  1.00  0.00    -0.293 C  
HETATM   26  C   UNL     1      -7.855  19.461  68.437  1.00  0.00    -0.377 C  
HETATM   27  C   UNL     1      -9.951  19.787  67.066  1.00  0.00    -0.408 C  
HETATM   28  F   UNL     1     -10.083  20.711  68.045  1.00  0.00    -0.513 F  
ENDBRANCH  21  22
ENDBRANCH  20  21
ENDBRANCH  19  20
ENDBRANCH  11  15
BRANCH  13  29
HETATM   29  C   UNL     1     -10.386   8.195  67.918  1.00  0.00    -0.220 C  
HETATM   30  H   UNL     1      -9.700   8.679  69.825  1.00  0.00     0.000 HD 
HETATM   31  N   UNL     1      -9.983   7.897  69.235  1.00  0.00    -0.185 N  
HETATM   32  O   UNL     1     -10.982   7.368  67.240  1.00  0.00    -0.280 OA 
BRANCH  31  33
HETATM   33  S   UNL     1      -9.928   6.345  69.921  1.00  0.00    -0.171 S  
HETATM   34  O   UNL     1      -9.267   6.454  71.197  1.00  0.00    -0.155 OA 
HETATM   35  O   UNL     1     -11.300   5.878  69.854  1.00  0.00    -0.364 OA 
BRANCH  33  36
HETATM   36  C   UNL     1      -9.028   5.121  69.068  1.00  0.00    -0.100 A  
HETATM   37  C   UNL     1      -9.555   4.115  68.269  1.00  0.00    -0.128 A  
HETATM   38  N   UNL     1      -8.500   3.460  67.708  1.00  0.00    -0.092 NA 
HETATM   39  N   UNL     1      -7.314   3.969  68.057  1.00  0.00    -0.063 NA 
HETATM   40  C   UNL     1      -8.499   2.358  66.776  1.00  0.00    -0.098 C  
HETATM   41  C   UNL     1      -7.612   5.025  68.829  1.00  0.00    -0.077 A  
HETATM   42  C   UNL     1      -6.446   5.881  69.188  1.00  0.00    -0.042 C  
ENDBRANCH  33  36
ENDBRANCH  31  33
ENDBRANCH  13  29
ENDBRANCH   4   9
TORSDOF 8
ENDMDL
MODEL       56
REMARK 921   NORMALIZED FREE ENERGY PREDICTED BY IDOCK:   -6.16 KCAL/MOL
REMARK 922        TOTAL FREE ENERGY PREDICTED BY IDOCK:  -10.67 KCAL/MOL
REMARK 923 INTER-LIGAND FREE ENERGY PREDICTED BY IDOCK:   -9.79 KCAL/MOL
REMARK 924 INTRA-LIGAND FREE ENERGY PREDICTED BY IDOCK:   -0.89 KCAL/MOL
REMARK 927      BINDING AFFINITY PREDICTED BY RF-SCORE:    0.00 PKD
ROOT
HETATM    1  C   UNL     1      -9.742  11.057  64.695  1.00  0.00    -0.315 C  
HETATM    2  C   UNL     1      -9.060   9.715  64.959  1.00  0.00    -0.284 C  
HETATM    3  C   UNL     1      -9.843   8.880  65.967  1.00  0.00    -0.207 C  
HETATM    4  N   UNL     1      -9.259   9.192  67.276  1.00  0.00    -0.132 NA 
HETATM    5  C   UNL     1      -6.994   8.272  67.444  1.00  0.00    -0.075 C  
HETATM    6  C   UNL     1      -7.802   9.533  67.083  1.00  0.00    -0.095 C  
HETATM    7  C   UNL     1      -7.670   9.867  65.571  1.00  0.00    -0.124 C  
HETATM    8  C   UNL     1      -7.158  10.691  67.852  1.00  0.00    -0.086 C  
ENDROOT
BRANCH   4   9
HETATM    9  C   UNL     1     -10.064   9.617  68.318  1.00  0.00    -0.177 A  
HETATM   10  N   UNL     1     -10.353   8.649  69.247  1.00  0.00    -0.219 NA 
HETATM   11  C   UNL     1     -11.081   8.886  70.376  1.00  0.00    -0.239 A  
HETATM   12  C   UNL     1     -11.572  10.143  70.638  1.00  0.00    -0.429 A  
HETATM   13  C   UNL     1     -10.558  10.927  68.519  1.00  0.00    -0.219 A  
HETATM   14  C   UNL     1     -11.298  11.157  69.710  1.00  0.00    -0.354 A  
BRANCH  11  15
HETATM   15  N   UNL     1     -11.316   7.799  71.307  1.00  0.00    -0.259 NA 
HETATM   16  C   UNL     1     -12.433   6.974  71.323  1.00  0.00    -0.386 A  
HETATM   17  C   UNL     1     -12.285   6.094  72.362  1.00  0.00    -0.125 A  
HETATM   18  N   UNL     1     -10.433   7.438  72.302  1.00  0.00    -0.214 NA 
HETATM   19  C   UNL     1     -11.053   6.428  72.926  1.00  0.00    -0.226 A  
BRANCH  19  20
HETATM   20  O   UNL     1     -10.538   5.789  74.000  1.00  0.00    -0.271 OA 
BRANCH  20  21
HETATM   21  C   UNL     1      -9.222   5.257  73.855  1.00  0.00    -0.125 C  
BRANCH  21  22
HETATM   22  C   UNL     1      -9.305   3.764  73.433  1.00  0.00    -0.118 C  
HETATM   23  F   UNL     1     -10.132   3.153  71.263  1.00  0.00    -0.237 F  
HETATM   24  F   UNL     1      -8.793   4.860  71.356  1.00  0.00    -0.124 F  
HETATM   25  C   UNL     1     -10.690   3.185  73.786  1.00  0.00    -0.292 C  
HETATM   26  C   UNL     1      -8.251   2.934  74.197  1.00  0.00    -0.069 C  
HETATM   27  C   UNL     1      -9.059   3.659  71.916  1.00  0.00    -0.110 C  
HETATM   28  F   UNL     1      -8.012   2.853  71.624  1.00  0.00    -0.052 F  
ENDBRANCH  21  22
ENDBRANCH  20  21
ENDBRANCH  19  20
ENDBRANCH  11  15
BRANCH  13  29
HETATM   29  C   UNL     1     -10.409  12.183  67.673  1.00  0.00    -0.203 C  
HETATM   30  H   UNL     1     -12.450  12.380  67.301  1.00  0.00     0.000 HD 
HETATM   31  N   UNL     1     -11.536  12.753  67.048  1.00  0.00    -0.321 N  
HETATM   32  O   UNL     1      -9.318  12.735  67.631  1.00  0.00    -0.178 OA 
BRANCH  31  33
HETATM   33  S   UNL     1     -11.497  14.010  65.906  1.00  0.00    -0.339 S  
HETATM   34  O   UNL     1     -10.567  13.632  64.873  1.00  0.00    -0.359 OA 
HETATM   35  O   UNL     1     -12.891  14.236  65.579  1.00  0.00    -0.539 OA 
BRANCH  33  36
HETATM   36  C   UNL     1     -10.936  15.569  66.448  1.00  0.00    -0.238 A  
HETATM   37  C   UNL     1     -10.481  16.606  65.645  1.00  0.00    -0.297 A  
HETATM   38  N   UNL     1     -10.257  17.672  66.465  1.00  0.00    -0.345 NA 
HETATM   39  N   UNL     1     -10.549  17.426  67.746  1.00  0.00    -0.376 NA 
HETATM   40  C   UNL     1      -9.809  19.003  66.132  1.00  0.00    -0.329 C  
HETATM   41  C   UNL     1     -11.031  16.174  67.750  1.00  0.00    -0.293 A  
HETATM   42  C   UNL     1     -11.613  15.736  69.051  1.00  0.00    -0.406 C  
ENDBRANCH  33  36
ENDBRANCH  31  33
ENDBRANCH  13  29
ENDBRANCH   4   9
TORSDOF 8
ENDMDL
MODEL       57
REMARK 921   NORMALIZED FREE ENERGY PREDICTED BY IDOCK:   -6.15 KCAL/MOL
REMARK 922        TOTAL FREE ENERGY PREDICTED BY IDOCK:  -10.65 KCAL/MOL
REMARK 923 INTER-LIGAND FREE ENERGY PREDICTED BY IDOCK:   -8.79 KCAL/MOL
REMARK 924 INTRA-LIGAND FREE ENERGY PREDICTED BY IDOCK:   -1.86 KCAL/MOL
REMARK 927      BINDING AFFINITY PREDICTED BY RF-SCORE:    0.00 PKD
ROOT
HETATM    1  C   UNL     1     -11.796  14.772  68.436  1.00  0.00    -0.319 C  
HETATM    2  C   UNL     1     -12.399  13.640  67.604  1.00  0.00    -0.054 C  
HETATM    3  C   UNL     1     -11.565  12.366  67.705  1.00  0.00    -0.352 C  
HETATM    4  N   UNL     1     -10.633  12.415  66.574  1.00  0.00    -0.232 NA 
HETATM    5  C   UNL     1     -11.835  12.114  64.460  1.00  0.00    -0.418 C  
HETATM    6  C   UNL     1     -11.288  13.167  65.443  1.00  0.00    -0.297 C  
HETATM    7  C   UNL     1     -12.444  13.961  66.112  1.00  0.00    -0.478 C  
HETATM    8  C   UNL     1     -10.491  14.169  64.600  1.00  0.00    -0.366 C  
ENDROOT
BRANCH   4   9
HETATM    9  C   UNL     1      -9.271  12.282  66.783  1.00  0.00    -0.210 A  
HETATM   10  N   UNL     1      -8.611  13.464  67.014  1.00  0.00    -0.192 NA 
HETATM   11  C   UNL     1      -7.280  13.536  67.299  1.00  0.00     0.013 A  
HETATM   12  C   UNL     1      -6.518  12.394  67.368  1.00  0.00    -0.154 A  
HETATM   13  C   UNL     1      -8.539  11.072  66.818  1.00  0.00    -0.152 A  
HETATM   14  C   UNL     1      -7.157  11.169  67.135  1.00  0.00    -0.113 A  
BRANCH  11  15
HETATM   15  N   UNL     1      -6.680  14.833  67.548  1.00  0.00    -0.245 NA 
HETATM   16  C   UNL     1      -5.354  15.059  67.891  1.00  0.00    -0.096 A  
HETATM   17  C   UNL     1      -5.192  16.409  68.059  1.00  0.00    -0.117 A  
HETATM   18  N   UNL     1      -7.367  16.025  67.460  1.00  0.00    -0.147 NA 
HETATM   19  C   UNL     1      -6.452  16.945  67.791  1.00  0.00    -0.143 A  
BRANCH  19  20
HETATM   20  O   UNL     1      -6.718  18.268  67.859  1.00  0.00    -0.202 OA 
BRANCH  20  21
HETATM   21  C   UNL     1      -7.986  18.637  68.399  1.00  0.00    -0.324 C  
BRANCH  21  22
HETATM   22  C   UNL     1      -8.851  19.303  67.294  1.00  0.00    -0.329 C  
HETATM   23  F   UNL     1     -10.209  17.965  65.835  1.00  0.00    -0.333 F  
HETATM   24  F   UNL     1     -10.195  17.418  67.935  1.00  0.00    -0.286 F  
HETATM   25  C   UNL     1      -8.057  19.391  65.974  1.00  0.00    -0.260 C  
HETATM   26  C   UNL     1      -9.221  20.745  67.702  1.00  0.00    -0.261 C  
HETATM   27  C   UNL     1     -10.129  18.469  67.088  1.00  0.00    -0.353 C  
HETATM   28  F   UNL     1     -11.251  19.199  67.285  1.00  0.00    -0.531 F  
ENDBRANCH  21  22
ENDBRANCH  20  21
ENDBRANCH  19  20
ENDBRANCH  11  15
BRANCH  13  29
HETATM   29  C   UNL     1      -8.988   9.636  66.597  1.00  0.00    -0.146 C  
HETATM   30  H   UNL     1      -9.208   9.213  68.625  1.00  0.00     0.000 HD 
HETATM   31  N   UNL     1      -9.216   8.788  67.699  1.00  0.00    -0.133 N  
HETATM   32  O   UNL     1      -9.239   9.269  65.457  1.00  0.00    -0.206 OA 
BRANCH  31  33
HETATM   33  S   UNL     1      -9.503   7.116  67.611  1.00  0.00    -0.128 S  
HETATM   34  O   UNL     1      -9.069   6.533  68.855  1.00  0.00    -0.131 OA 
HETATM   35  O   UNL     1     -10.893   7.014  67.210  1.00  0.00    -0.310 OA 
BRANCH  33  36
HETATM   36  C   UNL     1      -8.648   6.218  66.387  1.00  0.00    -0.133 A  
HETATM   37  C   UNL     1      -7.286   6.271  66.125  1.00  0.00    -0.075 A  
HETATM   38  N   UNL     1      -7.028   5.330  65.174  1.00  0.00    -0.060 NA 
HETATM   39  N   UNL     1      -8.112   4.642  64.802  1.00  0.00    -0.103 NA 
HETATM   40  C   UNL     1      -5.769   4.956  64.575  1.00  0.00    -0.017 C  
HETATM   41  C   UNL     1      -9.098   5.117  65.577  1.00  0.00    -0.153 A  
HETATM   42  C   UNL     1     -10.380   4.362  65.483  1.00  0.00    -0.247 C  
ENDBRANCH  33  36
ENDBRANCH  31  33
ENDBRANCH  13  29
ENDBRANCH   4   9
TORSDOF 8
ENDMDL
MODEL       58
REMARK 921   NORMALIZED FREE ENERGY PREDICTED BY IDOCK:   -6.14 KCAL/MOL
REMARK 922        TOTAL FREE ENERGY PREDICTED BY IDOCK:  -10.65 KCAL/MOL
REMARK 923 INTER-LIGAND FREE ENERGY PREDICTED BY IDOCK:   -8.91 KCAL/MOL
REMARK 924 INTRA-LIGAND FREE ENERGY PREDICTED BY IDOCK:   -1.74 KCAL/MOL
REMARK 927      BINDING AFFINITY PREDICTED BY RF-SCORE:    0.00 PKD
ROOT
HETATM    1  C   UNL     1     -11.977  12.051  64.346  1.00  0.00    -0.385 C  
HETATM    2  C   UNL     1     -11.608  13.534  64.385  1.00  0.00    -0.429 C  
HETATM    3  C   UNL     1     -10.140  13.736  64.744  1.00  0.00    -0.228 C  
HETATM    4  N   UNL     1     -10.110  13.909  66.200  1.00  0.00    -0.300 NA 
HETATM    5  C   UNL     1     -11.126  16.048  66.829  1.00  0.00    -0.022 C  
HETATM    6  C   UNL     1     -11.407  14.546  66.635  1.00  0.00    -0.356 C  
HETATM    7  C   UNL     1     -12.383  14.308  65.449  1.00  0.00    -0.421 C  
HETATM    8  C   UNL     1     -12.127  14.076  67.904  1.00  0.00    -0.314 C  
ENDROOT
BRANCH   4   9
HETATM    9  C   UNL     1      -9.290  13.115  66.984  1.00  0.00    -0.238 A  
HETATM   10  N   UNL     1      -9.702  11.811  67.101  1.00  0.00    -0.182 NA 
HETATM   11  C   UNL     1      -8.999  10.861  67.781  1.00  0.00    -0.139 A  
HETATM   12  C   UNL     1      -7.812  11.179  68.397  1.00  0.00    -0.133 A  
HETATM   13  C   UNL     1      -8.087  13.512  67.613  1.00  0.00    -0.180 A  
HETATM   14  C   UNL     1      -7.361  12.503  68.300  1.00  0.00    -0.115 A  
BRANCH  11  15
HETATM   15  N   UNL     1      -9.509   9.505  67.831  1.00  0.00    -0.132 NA 
HETATM   16  C   UNL     1     -10.203   8.939  68.892  1.00  0.00    -0.206 A  
HETATM   17  C   UNL     1     -10.489   7.642  68.558  1.00  0.00    -0.206 A  
HETATM   18  N   UNL     1      -9.375   8.597  66.802  1.00  0.00    -0.166 NA 
HETATM   19  C   UNL     1      -9.954   7.488  67.278  1.00  0.00    -0.210 A  
BRANCH  19  20
HETATM   20  O   UNL     1     -10.019   6.327  66.589  1.00  0.00    -0.166 OA 
BRANCH  20  21
HETATM   21  C   UNL     1      -8.780   5.779  66.144  1.00  0.00    -0.139 C  
BRANCH  21  22
HETATM   22  C   UNL     1      -9.026   4.389  65.495  1.00  0.00    -0.135 C  
HETATM   23  F   UNL     1      -7.678   2.499  66.111  1.00  0.00    -0.071 F  
HETATM   24  F   UNL     1      -8.328   3.804  67.719  1.00  0.00    -0.090 F  
HETATM   25  C   UNL     1      -8.145   4.221  64.240  1.00  0.00    -0.092 C  
HETATM   26  C   UNL     1     -10.496   4.263  65.043  1.00  0.00    -0.189 C  
HETATM   27  C   UNL     1      -8.695   3.291  66.523  1.00  0.00    -0.129 C  
HETATM   28  F   UNL     1      -9.750   2.477  66.757  1.00  0.00    -0.045 F  
ENDBRANCH  21  22
ENDBRANCH  20  21
ENDBRANCH  19  20
ENDBRANCH  11  15
BRANCH  13  29
HETATM   29  C   UNL     1      -7.395  14.866  67.663  1.00  0.00    -0.187 C  
HETATM   30  H   UNL     1      -8.482  15.672  66.079  1.00  0.00     0.000 HD 
HETATM   31  N   UNL     1      -7.695  15.851  66.702  1.00  0.00    -0.213 N  
HETATM   32  O   UNL     1      -6.653  15.110  68.606  1.00  0.00    -0.087 OA 
BRANCH  31  33
HETATM   33  S   UNL     1      -6.856  17.313  66.496  1.00  0.00    -0.273 S  
HETATM   34  O   UNL     1      -5.472  16.991  66.254  1.00  0.00    -0.341 OA 
HETATM   35  O   UNL     1      -7.621  18.023  65.489  1.00  0.00    -0.530 OA 
BRANCH  33  36
HETATM   36  C   UNL     1      -6.818  18.414  67.846  1.00  0.00    -0.217 A  
HETATM   37  C   UNL     1      -5.720  19.141  68.287  1.00  0.00    -0.201 A  
HETATM   38  N   UNL     1      -6.160  19.955  69.287  1.00  0.00    -0.280 NA 
HETATM   39  N   UNL     1      -7.470  19.839  69.527  1.00  0.00    -0.155 NA 
HETATM   40  C   UNL     1      -5.429  20.932  70.059  1.00  0.00    -0.276 C  
HETATM   41  C   UNL     1      -7.906  18.958  68.615  1.00  0.00    -0.340 A  
HETATM   42  C   UNL     1      -9.387  18.807  68.555  1.00  0.00    -0.390 C  
ENDBRANCH  33  36
ENDBRANCH  31  33
ENDBRANCH  13  29
ENDBRANCH   4   9
TORSDOF 8
ENDMDL
MODEL       59
REMARK 921   NORMALIZED FREE ENERGY PREDICTED BY IDOCK:   -6.14 KCAL/MOL
REMARK 922        TOTAL FREE ENERGY PREDICTED BY IDOCK:  -10.64 KCAL/MOL
REMARK 923 INTER-LIGAND FREE ENERGY PREDICTED BY IDOCK:   -9.83 KCAL/MOL
REMARK 924 INTRA-LIGAND FREE ENERGY PREDICTED BY IDOCK:   -0.82 KCAL/MOL
REMARK 927      BINDING AFFINITY PREDICTED BY RF-SCORE:    0.00 PKD
ROOT
HETATM    1  C   UNL     1     -11.373  15.662  68.184  1.00  0.00    -0.340 C  
HETATM    2  C   UNL     1     -12.160  14.448  67.691  1.00  0.00    -0.312 C  
HETATM    3  C   UNL     1     -11.490  13.142  68.104  1.00  0.00    -0.314 C  
HETATM    4  N   UNL     1     -10.626  12.770  66.979  1.00  0.00    -0.240 NA 
HETATM    5  C   UNL     1     -11.975  12.104  65.046  1.00  0.00    -0.343 C  
HETATM    6  C   UNL     1     -11.244  13.289  65.705  1.00  0.00    -0.294 C  
HETATM    7  C   UNL     1     -12.251  14.379  66.169  1.00  0.00    -0.358 C  
HETATM    8  C   UNL     1     -10.377  13.922  64.612  1.00  0.00    -0.366 C  
ENDROOT
BRANCH   4   9
HETATM    9  C   UNL     1      -9.281  12.510  67.185  1.00  0.00    -0.205 A  
HETATM   10  N   UNL     1      -8.967  11.177  67.285  1.00  0.00    -0.146 NA 
HETATM   11  C   UNL     1      -7.692  10.717  67.429  1.00  0.00    -0.106 A  
HETATM   12  C   UNL     1      -6.635  11.594  67.484  1.00  0.00    -0.093 A  
HETATM   13  C   UNL     1      -8.241  13.466  67.255  1.00  0.00    -0.162 A  
HETATM   14  C   UNL     1      -6.918  12.963  67.387  1.00  0.00    -0.129 A  
BRANCH  11  15
HETATM   15  N   UNL     1      -7.461   9.287  67.506  1.00  0.00    -0.087 NA 
HETATM   16  C   UNL     1      -6.804   8.521  66.553  1.00  0.00    -0.071 A  
HETATM   17  C   UNL     1      -6.814   7.221  66.985  1.00  0.00    -0.076 A  
HETATM   18  N   UNL     1      -7.864   8.502  68.565  1.00  0.00    -0.107 NA 
HETATM   19  C   UNL     1      -7.480   7.269  68.211  1.00  0.00    -0.102 A  
BRANCH  19  20
HETATM   20  O   UNL     1      -7.709   6.172  68.966  1.00  0.00    -0.093 OA 
BRANCH  20  21
HETATM   21  C   UNL     1      -8.566   6.342  70.094  1.00  0.00    -0.134 C  
BRANCH  21  22
HETATM   22  C   UNL     1      -9.845   5.478  69.913  1.00  0.00    -0.259 C  
HETATM   23  F   UNL     1     -11.989   6.315  70.599  1.00  0.00    -0.411 F  
HETATM   24  F   UNL     1     -10.676   7.708  69.575  1.00  0.00    -0.229 F  
HETATM   25  C   UNL     1     -10.108   4.641  71.182  1.00  0.00    -0.243 C  
HETATM   26  C   UNL     1      -9.662   4.490  68.742  1.00  0.00    -0.213 C  
HETATM   27  C   UNL     1     -11.042   6.407  69.637  1.00  0.00    -0.401 C  
HETATM   28  F   UNL     1     -11.651   6.118  68.464  1.00  0.00    -0.376 F  
ENDBRANCH  21  22
ENDBRANCH  20  21
ENDBRANCH  19  20
ENDBRANCH  11  15
BRANCH  13  29
HETATM   29  C   UNL     1      -8.284  14.984  67.184  1.00  0.00    -0.222 C  
HETATM   30  H   UNL     1      -7.099  15.268  68.874  1.00  0.00     0.000 HD 
HETATM   31  N   UNL     1      -7.678  15.758  68.192  1.00  0.00    -0.125 N  
HETATM   32  O   UNL     1      -8.767  15.511  66.190  1.00  0.00    -0.304 OA 
BRANCH  31  33
HETATM   33  S   UNL     1      -7.829  17.441  68.368  1.00  0.00    -0.265 S  
HETATM   34  O   UNL     1      -9.208  17.725  68.676  1.00  0.00    -0.283 OA 
HETATM   35  O   UNL     1      -6.788  17.795  69.313  1.00  0.00    -0.249 OA 
BRANCH  33  36
HETATM   36  C   UNL     1      -7.482  18.428  66.974  1.00  0.00    -0.213 A  
HETATM   37  C   UNL     1      -6.372  18.326  66.147  1.00  0.00    -0.217 A  
HETATM   38  N   UNL     1      -6.559  19.205  65.122  1.00  0.00    -0.445 NA 
HETATM   39  N   UNL     1      -7.719  19.865  65.196  1.00  0.00    -0.140 NA 
HETATM   40  C   UNL     1      -5.719  19.468  63.978  1.00  0.00    -0.285 C  
HETATM   41  C   UNL     1      -8.330  19.359  66.277  1.00  0.00    -0.336 A  
HETATM   42  C   UNL     1      -9.741  19.804  66.459  1.00  0.00    -0.529 C  
ENDBRANCH  33  36
ENDBRANCH  31  33
ENDBRANCH  13  29
ENDBRANCH   4   9
TORSDOF 8
ENDMDL
MODEL       60
REMARK 921   NORMALIZED FREE ENERGY PREDICTED BY IDOCK:   -6.13 KCAL/MOL
REMARK 922        TOTAL FREE ENERGY PREDICTED BY IDOCK:  -10.63 KCAL/MOL
REMARK 923 INTER-LIGAND FREE ENERGY PREDICTED BY IDOCK:   -9.37 KCAL/MOL
REMARK 924 INTRA-LIGAND FREE ENERGY PREDICTED BY IDOCK:   -1.26 KCAL/MOL
REMARK 927      BINDING AFFINITY PREDICTED BY RF-SCORE:    0.00 PKD
ROOT
HETATM    1  C   UNL     1      -9.572   9.402  65.894  1.00  0.00    -0.338 C  
HETATM    2  C   UNL     1     -10.259  10.723  65.550  1.00  0.00    -0.330 C  
HETATM    3  C   UNL     1      -9.293  11.898  65.649  1.00  0.00    -0.115 C  
HETATM    4  N   UNL     1      -9.445  12.420  67.011  1.00  0.00    -0.205 NA 
HETATM    5  C   UNL     1     -11.633  13.488  67.280  1.00  0.00    -0.398 C  
HETATM    6  C   UNL     1     -10.860  12.169  67.468  1.00  0.00    -0.243 C  
HETATM    7  C   UNL     1     -11.395  11.067  66.511  1.00  0.00     0.047 C  
HETATM    8  C   UNL     1     -11.152  11.698  68.896  1.00  0.00    -0.287 C  
ENDROOT
BRANCH   4   9
HETATM    9  C   UNL     1      -8.339  12.570  67.830  1.00  0.00    -0.167 A  
HETATM   10  N   UNL     1      -7.957  13.873  68.041  1.00  0.00    -0.140 NA 
HETATM   11  C   UNL     1      -6.930  14.229  68.863  1.00  0.00    -0.107 A  
HETATM   12  C   UNL     1      -6.210  13.270  69.536  1.00  0.00    -0.115 A  
HETATM   13  C   UNL     1      -7.625  11.535  68.477  1.00  0.00    -0.130 A  
HETATM   14  C   UNL     1      -6.570  11.930  69.344  1.00  0.00    -0.108 A  
BRANCH  11  15
HETATM   15  N   UNL     1      -6.617  15.634  69.035  1.00  0.00    -0.123 NA 
HETATM   16  C   UNL     1      -5.507  16.142  69.697  1.00  0.00    -0.133 A  
HETATM   17  C   UNL     1      -5.588  17.509  69.658  1.00  0.00    -0.221 A  
HETATM   18  N   UNL     1      -7.395  16.659  68.538  1.00  0.00    -0.190 NA 
HETATM   19  C   UNL     1      -6.761  17.766  68.946  1.00  0.00    -0.237 A  
BRANCH  19  20
HETATM   20  O   UNL     1      -7.209  19.016  68.695  1.00  0.00    -0.290 OA 
BRANCH  20  21
HETATM   21  C   UNL     1      -7.789  19.238  67.410  1.00  0.00    -0.255 C  
BRANCH  21  22
HETATM   22  C   UNL     1      -9.323  19.437  67.556  1.00  0.00    -0.386 C  
HETATM   23  F   UNL     1     -10.803  18.882  65.749  1.00  0.00    -0.485 F  
HETATM   24  F   UNL     1      -9.186  17.491  66.154  1.00  0.00    -0.274 F  
HETATM   25  C   UNL     1      -9.730  20.838  67.054  1.00  0.00    -0.391 C  
HETATM   26  C   UNL     1      -9.735  19.345  69.041  1.00  0.00    -0.468 C  
HETATM   27  C   UNL     1     -10.048  18.352  66.740  1.00  0.00    -0.373 C  
HETATM   28  F   UNL     1     -10.880  17.609  67.506  1.00  0.00    -0.358 F  
ENDBRANCH  21  22
ENDBRANCH  20  21
ENDBRANCH  19  20
ENDBRANCH  11  15
BRANCH  13  29
HETATM   29  C   UNL     1      -7.808  10.026  68.430  1.00  0.00    -0.089 C  
HETATM   30  H   UNL     1      -9.296   9.990  69.889  1.00  0.00     0.000 HD 
HETATM   31  N   UNL     1      -8.693   9.392  69.325  1.00  0.00    -0.138 N  
HETATM   32  O   UNL     1      -7.250   9.395  67.543  1.00  0.00    -0.079 OA 
BRANCH  31  33
HETATM   33  S   UNL     1      -8.839   7.714  69.542  1.00  0.00    -0.139 S  
HETATM   34  O   UNL     1      -9.319   7.154  68.304  1.00  0.00    -0.132 OA 
HETATM   35  O   UNL     1      -7.549   7.310  70.067  1.00  0.00    -0.086 OA 
BRANCH  33  36
HETATM   36  C   UNL     1      -9.973   7.155  70.742  1.00  0.00    -0.189 A  
HETATM   37  C   UNL     1      -9.933   5.940  71.412  1.00  0.00    -0.185 A  
HETATM   38  N   UNL     1     -10.934   5.965  72.336  1.00  0.00    -0.249 NA 
HETATM   39  N   UNL     1     -11.619   7.112  72.345  1.00  0.00    -0.271 NA 
HETATM   40  C   UNL     1     -11.303   4.966  73.311  1.00  0.00    -0.327 C  
HETATM   41  C   UNL     1     -11.008   7.880  71.430  1.00  0.00    -0.232 A  
HETATM   42  C   UNL     1     -11.476   9.295  71.394  1.00  0.00    -0.439 C  
ENDBRANCH  33  36
ENDBRANCH  31  33
ENDBRANCH  13  29
ENDBRANCH   4   9
TORSDOF 8
ENDMDL
MODEL       61
REMARK 921   NORMALIZED FREE ENERGY PREDICTED BY IDOCK:   -6.12 KCAL/MOL
REMARK 922        TOTAL FREE ENERGY PREDICTED BY IDOCK:  -10.62 KCAL/MOL
REMARK 923 INTER-LIGAND FREE ENERGY PREDICTED BY IDOCK:   -8.62 KCAL/MOL
REMARK 924 INTRA-LIGAND FREE ENERGY PREDICTED BY IDOCK:   -2.00 KCAL/MOL
REMARK 927      BINDING AFFINITY PREDICTED BY RF-SCORE:    0.00 PKD
ROOT
HETATM    1  C   UNL     1     -10.024   8.779  66.269  1.00  0.00    -0.315 C  
HETATM    2  C   UNL     1      -9.865   9.947  65.295  1.00  0.00    -0.373 C  
HETATM    3  C   UNL     1      -8.547  10.681  65.512  1.00  0.00    -0.185 C  
HETATM    4  N   UNL     1      -8.853  11.776  66.439  1.00  0.00    -0.191 NA 
HETATM    5  C   UNL     1     -10.245  13.465  65.340  1.00  0.00    -0.311 C  
HETATM    6  C   UNL     1     -10.283  12.203  66.223  1.00  0.00    -0.223 C  
HETATM    7  C   UNL     1     -10.943  11.015  65.470  1.00  0.00    -0.086 C  
HETATM    8  C   UNL     1     -11.192  12.536  67.411  1.00  0.00    -0.344 C  
ENDROOT
BRANCH   4   9
HETATM    9  C   UNL     1      -8.125  11.928  67.607  1.00  0.00    -0.148 A  
HETATM   10  N   UNL     1      -7.848  10.755  68.264  1.00  0.00    -0.110 NA 
HETATM   11  C   UNL     1      -7.094  10.691  69.398  1.00  0.00    -0.120 A  
HETATM   12  C   UNL     1      -6.565  11.833  69.950  1.00  0.00    -0.000 A  
HETATM   13  C   UNL     1      -7.627  13.142  68.135  1.00  0.00    -0.141 A  
HETATM   14  C   UNL     1      -6.829  13.050  69.307  1.00  0.00    -0.019 A  
BRANCH  11  15
HETATM   15  N   UNL     1      -6.842   9.399  70.007  1.00  0.00    -0.058 NA 
HETATM   16  C   UNL     1      -5.654   8.685  69.928  1.00  0.00    -0.028 A  
HETATM   17  C   UNL     1      -5.827   7.511  70.613  1.00  0.00    -0.030 A  
HETATM   18  N   UNL     1      -7.768   8.715  70.765  1.00  0.00    -0.079 NA 
HETATM   19  C   UNL     1      -7.136   7.582  71.094  1.00  0.00    -0.058 A  
BRANCH  19  20
HETATM   20  O   UNL     1      -7.704   6.597  71.825  1.00  0.00    -0.095 OA 
BRANCH  20  21
HETATM   21  C   UNL     1      -9.012   6.853  72.332  1.00  0.00    -0.133 C  
BRANCH  21  22
HETATM   22  C   UNL     1     -10.040   5.932  71.618  1.00  0.00    -0.233 C  
HETATM   23  F   UNL     1     -10.955   4.020  72.744  1.00  0.00    -0.240 F  
HETATM   24  F   UNL     1     -10.772   5.845  73.904  1.00  0.00    -0.246 F  
HETATM   25  C   UNL     1      -9.312   4.778  70.898  1.00  0.00    -0.209 C  
HETATM   26  C   UNL     1     -10.813   6.727  70.544  1.00  0.00    -0.301 C  
HETATM   27  C   UNL     1     -11.019   5.369  72.664  1.00  0.00    -0.268 C  
HETATM   28  F   UNL     1     -12.305   5.680  72.376  1.00  0.00    -0.322 F  
ENDBRANCH  21  22
ENDBRANCH  20  21
ENDBRANCH  19  20
ENDBRANCH  11  15
BRANCH  13  29
HETATM   29  C   UNL     1      -7.775  14.573  67.640  1.00  0.00    -0.179 C  
HETATM   30  H   UNL     1      -9.630  14.873  68.540  1.00  0.00     0.000 HD 
HETATM   31  N   UNL     1      -8.958  15.293  67.898  1.00  0.00    -0.169 N  
HETATM   32  O   UNL     1      -6.814  15.109  67.104  1.00  0.00    -0.259 OA 
BRANCH  31  33
HETATM   33  S   UNL     1      -9.357  16.803  67.230  1.00  0.00    -0.234 S  
HETATM   34  O   UNL     1      -9.060  16.748  65.821  1.00  0.00    -0.515 OA 
HETATM   35  O   UNL     1     -10.716  17.040  67.675  1.00  0.00    -0.342 OA 
BRANCH  33  36
HETATM   36  C   UNL     1      -8.479  18.193  67.807  1.00  0.00    -0.248 A  
HETATM   37  C   UNL     1      -7.396  18.183  68.676  1.00  0.00    -0.286 A  
HETATM   38  N   UNL     1      -6.948  19.467  68.766  1.00  0.00    -0.318 NA 
HETATM   39  N   UNL     1      -7.638  20.323  68.006  1.00  0.00    -0.250 NA 
HETATM   40  C   UNL     1      -5.830  19.995  69.510  1.00  0.00    -0.301 C  
HETATM   41  C   UNL     1      -8.531  19.560  67.359  1.00  0.00    -0.300 A  
HETATM   42  C   UNL     1      -9.298  20.267  66.295  1.00  0.00    -0.350 C  
ENDBRANCH  33  36
ENDBRANCH  31  33
ENDBRANCH  13  29
ENDBRANCH   4   9
TORSDOF 8
ENDMDL
MODEL       62
REMARK 921   NORMALIZED FREE ENERGY PREDICTED BY IDOCK:   -6.12 KCAL/MOL
REMARK 922        TOTAL FREE ENERGY PREDICTED BY IDOCK:  -10.62 KCAL/MOL
REMARK 923 INTER-LIGAND FREE ENERGY PREDICTED BY IDOCK:   -8.49 KCAL/MOL
REMARK 924 INTRA-LIGAND FREE ENERGY PREDICTED BY IDOCK:   -2.12 KCAL/MOL
REMARK 927      BINDING AFFINITY PREDICTED BY RF-SCORE:    0.00 PKD
ROOT
HETATM    1  C   UNL     1     -12.053  10.798  69.620  1.00  0.00    -0.361 C  
HETATM    2  C   UNL     1     -11.393  10.181  70.853  1.00  0.00    -0.420 C  
HETATM    3  C   UNL     1      -9.978   9.701  70.549  1.00  0.00    -0.254 C  
HETATM    4  N   UNL     1     -10.112   8.288  70.179  1.00  0.00    -0.188 NA 
HETATM    5  C   UNL     1     -10.737   6.946  72.130  1.00  0.00    -0.248 C  
HETATM    6  C   UNL     1     -11.294   7.709  70.913  1.00  0.00    -0.276 C  
HETATM    7  C   UNL     1     -12.127   8.942  71.360  1.00  0.00    -0.381 C  
HETATM    8  C   UNL     1     -12.262   6.749  70.212  1.00  0.00    -0.098 C  
ENDROOT
BRANCH   4   9
HETATM    9  C   UNL     1      -9.589   7.826  68.983  1.00  0.00    -0.155 A  
HETATM   10  N   UNL     1      -9.774   8.669  67.915  1.00  0.00    -0.156 NA 
HETATM   11  C   UNL     1      -9.281   8.419  66.669  1.00  0.00    -0.180 A  
HETATM   12  C   UNL     1      -8.558   7.276  66.420  1.00  0.00    -0.141 A  
HETATM   13  C   UNL     1      -8.871   6.623  68.789  1.00  0.00    -0.126 A  
HETATM   14  C   UNL     1      -8.351   6.391  67.487  1.00  0.00    -0.117 A  
BRANCH  11  15
HETATM   15  N   UNL     1      -9.514   9.382  65.611  1.00  0.00    -0.250 NA 
HETATM   16  C   UNL     1      -8.997   9.313  64.324  1.00  0.00    -0.096 A  
HETATM   17  C   UNL     1      -9.431  10.418  63.641  1.00  0.00    -0.353 A  
HETATM   18  N   UNL     1     -10.306  10.502  65.754  1.00  0.00    -0.231 NA 
HETATM   19  C   UNL     1     -10.218  11.109  64.564  1.00  0.00    -0.324 A  
BRANCH  19  20
HETATM   20  O   UNL     1     -10.832  12.279  64.277  1.00  0.00    -0.300 OA 
BRANCH  20  21
HETATM   21  C   UNL     1     -10.166  13.468  64.698  1.00  0.00    -0.316 C  
BRANCH  21  22
HETATM   22  C   UNL     1     -11.210  14.497  65.213  1.00  0.00    -0.352 C  
HETATM   23  F   UNL     1     -12.768  13.896  66.938  1.00  0.00    -0.360 F  
HETATM   24  F   UNL     1     -10.719  13.227  67.192  1.00  0.00    -0.252 F  
HETATM   25  C   UNL     1     -12.522  14.375  64.410  1.00  0.00    -0.339 C  
HETATM   26  C   UNL     1     -10.685  15.935  65.015  1.00  0.00    -0.426 C  
HETATM   27  C   UNL     1     -11.478  14.234  66.706  1.00  0.00    -0.367 C  
HETATM   28  F   UNL     1     -11.218  15.321  67.469  1.00  0.00    -0.301 F  
ENDBRANCH  21  22
ENDBRANCH  20  21
ENDBRANCH  19  20
ENDBRANCH  11  15
BRANCH  13  29
HETATM   29  C   UNL     1      -8.520   5.509  69.764  1.00  0.00    -0.105 C  
HETATM   30  H   UNL     1      -7.733   6.789  71.207  1.00  0.00     0.000 HD 
HETATM   31  N   UNL     1      -7.843   5.805  70.963  1.00  0.00    -0.104 N  
HETATM   32  O   UNL     1      -8.924   4.378  69.530  1.00  0.00    -0.085 OA 
BRANCH  31  33
HETATM   33  S   UNL     1      -7.195   4.659  72.036  1.00  0.00    -0.069 S  
HETATM   34  O   UNL     1      -6.349   3.777  71.273  1.00  0.00    -0.014 OA 
HETATM   35  O   UNL     1      -6.630   5.456  73.108  1.00  0.00    -0.066 OA 
BRANCH  33  36
HETATM   36  C   UNL     1      -8.313   3.597  72.848  1.00  0.00    -0.086 A  
HETATM   37  C   UNL     1      -9.687   3.546  72.659  1.00  0.00    -0.142 A  
HETATM   38  N   UNL     1     -10.150   2.503  73.403  1.00  0.00    -0.101 NA 
HETATM   39  N   UNL     1      -9.185   1.845  74.053  1.00  0.00    -0.064 NA 
HETATM   40  C   UNL     1     -11.497   2.000  73.534  1.00  0.00    -0.207 C  
HETATM   41  C   UNL     1      -8.049   2.450  73.676  1.00  0.00    -0.058 A  
HETATM   42  C   UNL     1      -6.802   1.766  74.123  1.00  0.00    -0.022 C  
ENDBRANCH  33  36
ENDBRANCH  31  33
ENDBRANCH  13  29
ENDBRANCH   4   9
TORSDOF 8
ENDMDL
MODEL       63
REMARK 921   NORMALIZED FREE ENERGY PREDICTED BY IDOCK:   -6.11 KCAL/MOL
REMARK 922        TOTAL FREE ENERGY PREDICTED BY IDOCK:  -10.60 KCAL/MOL
REMARK 923 INTER-LIGAND FREE ENERGY PREDICTED BY IDOCK:   -8.95 KCAL/MOL
REMARK 924 INTRA-LIGAND FREE ENERGY PREDICTED BY IDOCK:   -1.65 KCAL/MOL
REMARK 927      BINDING AFFINITY PREDICTED BY RF-SCORE:    0.00 PKD
ROOT
HETATM    1  C   UNL     1     -12.535  10.423  70.669  1.00  0.00    -0.437 C  
HETATM    2  C   UNL     1     -11.429   9.709  71.447  1.00  0.00    -0.455 C  
HETATM    3  C   UNL     1     -10.123   9.676  70.660  1.00  0.00    -0.256 C  
HETATM    4  N   UNL     1     -10.136   8.404  69.929  1.00  0.00    -0.191 NA 
HETATM    5  C   UNL     1      -9.888   6.523  71.479  1.00  0.00    -0.182 C  
HETATM    6  C   UNL     1     -10.916   7.395  70.734  1.00  0.00    -0.255 C  
HETATM    7  C   UNL     1     -11.755   8.244  71.730  1.00  0.00    -0.357 C  
HETATM    8  C   UNL     1     -11.886   6.426  70.050  1.00  0.00    -0.208 C  
ENDROOT
BRANCH   4   9
HETATM    9  C   UNL     1      -9.949   8.383  68.558  1.00  0.00    -0.187 A  
HETATM   10  N   UNL     1     -10.324   9.536  67.913  1.00  0.00    -0.213 NA 
HETATM   11  C   UNL     1     -10.163   9.731  66.573  1.00  0.00    -0.219 A  
HETATM   12  C   UNL     1      -9.603   8.752  65.787  1.00  0.00    -0.190 A  
HETATM   13  C   UNL     1      -9.386   7.328  67.802  1.00  0.00    -0.134 A  
HETATM   14  C   UNL     1      -9.210   7.560  66.411  1.00  0.00    -0.212 A  
BRANCH  11  15
HETATM   15  N   UNL     1     -10.573  10.993  65.989  1.00  0.00    -0.240 NA 
HETATM   16  C   UNL     1     -10.504  11.322  64.642  1.00  0.00    -0.325 A  
HETATM   17  C   UNL     1     -10.964  12.605  64.502  1.00  0.00    -0.365 A  
HETATM   18  N   UNL     1     -11.105  12.037  66.715  1.00  0.00    -0.288 NA 
HETATM   19  C   UNL     1     -11.308  12.992  65.799  1.00  0.00    -0.301 A  
BRANCH  19  20
HETATM   20  O   UNL     1     -11.802  14.215  66.095  1.00  0.00    -0.374 OA 
BRANCH  20  21
HETATM   21  C   UNL     1     -11.096  15.334  65.561  1.00  0.00    -0.327 C  
BRANCH  21  22
HETATM   22  C   UNL     1     -10.408  16.116  66.713  1.00  0.00    -0.291 C  
HETATM   23  F   UNL     1      -9.075  18.058  66.244  1.00  0.00    -0.276 F  
HETATM   24  F   UNL     1     -10.940  17.862  65.150  1.00  0.00    -0.417 F  
HETATM   25  C   UNL     1      -8.983  15.574  66.952  1.00  0.00    -0.272 C  
HETATM   26  C   UNL     1     -11.194  15.932  68.028  1.00  0.00    -0.319 C  
HETATM   27  C   UNL     1     -10.349  17.609  66.339  1.00  0.00    -0.345 C  
HETATM   28  F   UNL     1     -10.968  18.388  67.255  1.00  0.00    -0.420 F  
ENDBRANCH  21  22
ENDBRANCH  20  21
ENDBRANCH  19  20
ENDBRANCH  11  15
BRANCH  13  29
HETATM   29  C   UNL     1      -8.892   5.955  68.232  1.00  0.00    -0.110 C  
HETATM   30  H   UNL     1      -7.247   6.686  69.281  1.00  0.00     0.000 HD 
HETATM   31  N   UNL     1      -7.685   5.828  68.948  1.00  0.00    -0.089 N  
HETATM   32  O   UNL     1      -9.610   4.985  68.029  1.00  0.00    -0.129 OA 
BRANCH  31  33
HETATM   33  S   UNL     1      -6.899   4.364  69.301  1.00  0.00    -0.047 S  
HETATM   34  O   UNL     1      -6.866   3.584  68.090  1.00  0.00    -0.048 OA 
HETATM   35  O   UNL     1      -5.660   4.770  69.936  1.00  0.00    -0.011 OA 
BRANCH  33  36
HETATM   36  C   UNL     1      -7.647   3.316  70.475  1.00  0.00    -0.040 A  
HETATM   37  C   UNL     1      -9.009   3.128  70.665  1.00  0.00    -0.096 A  
HETATM   38  N   UNL     1      -9.147   2.144  71.598  1.00  0.00    -0.081 NA 
HETATM   39  N   UNL     1      -7.980   1.650  72.024  1.00  0.00    -0.044 NA 
HETATM   40  C   UNL     1     -10.351   1.549  72.128  1.00  0.00    -0.154 C  
HETATM   41  C   UNL     1      -7.053   2.300  71.304  1.00  0.00    -0.032 A  
HETATM   42  C   UNL     1      -5.665   1.780  71.464  1.00  0.00    -0.009 C  
ENDBRANCH  33  36
ENDBRANCH  31  33
ENDBRANCH  13  29
ENDBRANCH   4   9
TORSDOF 8
ENDMDL
MODEL       64
REMARK 921   NORMALIZED FREE ENERGY PREDICTED BY IDOCK:   -6.10 KCAL/MOL
REMARK 922        TOTAL FREE ENERGY PREDICTED BY IDOCK:  -10.59 KCAL/MOL
REMARK 923 INTER-LIGAND FREE ENERGY PREDICTED BY IDOCK:   -9.05 KCAL/MOL
REMARK 924 INTRA-LIGAND FREE ENERGY PREDICTED BY IDOCK:   -1.54 KCAL/MOL
REMARK 927      BINDING AFFINITY PREDICTED BY RF-SCORE:    0.00 PKD
ROOT
HETATM    1  C   UNL     1     -12.022  12.243  65.345  1.00  0.00    -0.395 C  
HETATM    2  C   UNL     1     -11.547  13.692  65.453  1.00  0.00    -0.334 C  
HETATM    3  C   UNL     1     -10.056  13.769  65.767  1.00  0.00    -0.307 C  
HETATM    4  N   UNL     1      -9.966  13.855  67.229  1.00  0.00    -0.240 NA 
HETATM    5  C   UNL     1     -10.803  16.020  68.013  1.00  0.00    -0.335 C  
HETATM    6  C   UNL     1     -11.198  14.555  67.746  1.00  0.00    -0.298 C  
HETATM    7  C   UNL     1     -12.227  14.456  66.586  1.00  0.00    -0.340 C  
HETATM    8  C   UNL     1     -11.907  14.064  69.013  1.00  0.00    -0.391 C  
ENDROOT
BRANCH   4   9
HETATM    9  C   UNL     1      -9.180  12.961  67.936  1.00  0.00    -0.208 A  
HETATM   10  N   UNL     1      -9.845  11.846  68.383  1.00  0.00    -0.203 NA 
HETATM   11  C   UNL     1      -9.233  10.824  69.046  1.00  0.00    -0.146 A  
HETATM   12  C   UNL     1      -7.883  10.869  69.304  1.00  0.00    -0.096 A  
HETATM   13  C   UNL     1      -7.793  13.078  68.188  1.00  0.00    -0.145 A  
HETATM   14  C   UNL     1      -7.172  11.993  68.864  1.00  0.00    -0.089 A  
BRANCH  11  15
HETATM   15  N   UNL     1     -10.020   9.680  69.461  1.00  0.00    -0.195 NA 
HETATM   16  C   UNL     1     -10.882   9.641  70.549  1.00  0.00    -0.309 A  
HETATM   17  C   UNL     1     -11.414   8.380  70.614  1.00  0.00    -0.235 A  
HETATM   18  N   UNL     1     -10.017   8.468  68.803  1.00  0.00    -0.181 NA 
HETATM   19  C   UNL     1     -10.846   7.708  69.531  1.00  0.00    -0.165 A  
BRANCH  19  20
HETATM   20  O   UNL     1     -11.112   6.414  69.246  1.00  0.00    -0.320 OA 
BRANCH  20  21
HETATM   21  C   UNL     1     -10.576   5.442  70.141  1.00  0.00    -0.274 C  
BRANCH  21  22
HETATM   22  C   UNL     1      -9.414   4.677  69.448  1.00  0.00    -0.239 C  
HETATM   23  F   UNL     1      -7.464   5.852  68.685  1.00  0.00    -0.077 F  
HETATM   24  F   UNL     1      -8.254   6.421  70.625  1.00  0.00    -0.115 F  
HETATM   25  C   UNL     1      -9.625   4.658  67.920  1.00  0.00    -0.205 C  
HETATM   26  C   UNL     1      -9.381   3.209  69.925  1.00  0.00    -0.228 C  
HETATM   27  C   UNL     1      -8.084   5.373  69.789  1.00  0.00    -0.096 C  
HETATM   28  F   UNL     1      -7.209   4.533  70.390  1.00  0.00    -0.044 F  
ENDBRANCH  21  22
ENDBRANCH  20  21
ENDBRANCH  19  20
ENDBRANCH  11  15
BRANCH  13  29
HETATM   29  C   UNL     1      -6.809  14.181  67.827  1.00  0.00    -0.176 C  
HETATM   30  H   UNL     1      -8.013  15.723  68.544  1.00  0.00     0.000 HD 
HETATM   31  N   UNL     1      -7.156  15.532  68.026  1.00  0.00    -0.116 N  
HETATM   32  O   UNL     1      -5.686  13.866  67.457  1.00  0.00    -0.338 OA 
BRANCH  31  33
HETATM   33  S   UNL     1      -6.265  16.868  67.475  1.00  0.00    -0.171 S  
HETATM   34  O   UNL     1      -5.179  17.080  68.399  1.00  0.00    -0.122 OA 
HETATM   35  O   UNL     1      -5.985  16.560  66.086  1.00  0.00     0.032 OA 
BRANCH  33  36
HETATM   36  C   UNL     1      -7.083  18.405  67.406  1.00  0.00    -0.204 A  
HETATM   37  C   UNL     1      -8.455  18.607  67.334  1.00  0.00    -0.265 A  
HETATM   38  N   UNL     1      -8.663  19.951  67.416  1.00  0.00    -0.325 NA 
HETATM   39  N   UNL     1      -7.535  20.654  67.560  1.00  0.00    -0.326 NA 
HETATM   40  C   UNL     1      -9.905  20.686  67.422  1.00  0.00    -0.387 C  
HETATM   41  C   UNL     1      -6.565  19.729  67.626  1.00  0.00    -0.231 A  
HETATM   42  C   UNL     1      -5.220  20.264  67.983  1.00  0.00    -0.214 C  
ENDBRANCH  33  36
ENDBRANCH  31  33
ENDBRANCH  13  29
ENDBRANCH   4   9
TORSDOF 8
ENDMDL
MODEL       65
REMARK 921   NORMALIZED FREE ENERGY PREDICTED BY IDOCK:   -6.08 KCAL/MOL
REMARK 922        TOTAL FREE ENERGY PREDICTED BY IDOCK:  -10.56 KCAL/MOL
REMARK 923 INTER-LIGAND FREE ENERGY PREDICTED BY IDOCK:   -9.91 KCAL/MOL
REMARK 924 INTRA-LIGAND FREE ENERGY PREDICTED BY IDOCK:   -0.65 KCAL/MOL
REMARK 927      BINDING AFFINITY PREDICTED BY RF-SCORE:    0.00 PKD
ROOT
HETATM    1  C   UNL     1      -8.630   5.334  70.292  1.00  0.00    -0.126 C  
HETATM    2  C   UNL     1     -10.058   5.464  70.822  1.00  0.00    -0.287 C  
HETATM    3  C   UNL     1     -11.021   5.918  69.729  1.00  0.00    -0.382 C  
HETATM    4  N   UNL     1     -11.076   7.380  69.836  1.00  0.00    -0.229 NA 
HETATM    5  C   UNL     1     -12.230   8.045  71.892  1.00  0.00    -0.359 C  
HETATM    6  C   UNL     1     -10.846   7.766  71.275  1.00  0.00    -0.231 C  
HETATM    7  C   UNL     1     -10.189   6.515  71.922  1.00  0.00    -0.214 C  
HETATM    8  C   UNL     1      -9.965   8.967  71.636  1.00  0.00    -0.397 C  
ENDROOT
BRANCH   4   9
HETATM    9  C   UNL     1     -10.823   8.173  68.729  1.00  0.00     0.063 A  
HETATM   10  N   UNL     1     -11.116   9.503  68.902  1.00  0.00    -0.084 NA 
HETATM   11  C   UNL     1     -10.882  10.452  67.951  1.00  0.00    -0.279 A  
HETATM   12  C   UNL     1     -10.327  10.106  66.742  1.00  0.00    -0.285 A  
HETATM   13  C   UNL     1     -10.270   7.748  67.499  1.00  0.00    -0.301 A  
HETATM   14  C   UNL     1     -10.017   8.756  66.529  1.00  0.00    -0.360 A  
BRANCH  11  15
HETATM   15  N   UNL     1     -11.208  11.835  68.238  1.00  0.00    -0.233 NA 
HETATM   16  C   UNL     1     -11.581  12.339  69.477  1.00  0.00    -0.298 A  
HETATM   17  C   UNL     1     -11.825  13.679  69.325  1.00  0.00    -0.395 A  
HETATM   18  N   UNL     1     -11.175  12.841  67.296  1.00  0.00    -0.280 NA 
HETATM   19  C   UNL     1     -11.569  13.926  67.975  1.00  0.00    -0.333 A  
BRANCH  19  20
HETATM   20  O   UNL     1     -11.704  15.148  67.414  1.00  0.00    -0.306 OA 
BRANCH  20  21
HETATM   21  C   UNL     1     -10.695  16.108  67.723  1.00  0.00    -0.325 C  
BRANCH  21  22
HETATM   22  C   UNL     1     -10.036  16.615  66.411  1.00  0.00    -0.325 C  
HETATM   23  F   UNL     1     -11.039  18.396  65.151  1.00  0.00    -0.364 F  
HETATM   24  F   UNL     1     -11.008  18.621  67.309  1.00  0.00    -0.457 F  
HETATM   25  C   UNL     1     -10.602  15.848  65.198  1.00  0.00    -0.421 C  
HETATM   26  C   UNL     1      -8.514  16.361  66.445  1.00  0.00    -0.364 C  
HETATM   27  C   UNL     1     -10.316  18.122  66.261  1.00  0.00    -0.397 C  
HETATM   28  F   UNL     1      -9.175  18.845  66.169  1.00  0.00    -0.318 F  
ENDBRANCH  21  22
ENDBRANCH  20  21
ENDBRANCH  19  20
ENDBRANCH  11  15
BRANCH  13  29
HETATM   29  C   UNL     1      -9.857   6.363  67.024  1.00  0.00    -0.154 C  
HETATM   30  H   UNL     1      -7.842   6.618  67.486  1.00  0.00     0.000 HD 
HETATM   31  N   UNL     1      -8.499   5.989  67.026  1.00  0.00    -0.108 N  
HETATM   32  O   UNL     1     -10.733   5.558  66.735  1.00  0.00    -0.289 OA 
BRANCH  31  33
HETATM   33  S   UNL     1      -7.866   4.576  66.327  1.00  0.00    -0.099 S  
HETATM   34  O   UNL     1      -6.476   4.819  66.036  1.00  0.00    -0.038 OA 
HETATM   35  O   UNL     1      -8.240   3.524  67.252  1.00  0.00    -0.089 OA 
BRANCH  33  36
HETATM   36  C   UNL     1      -8.545   4.059  64.808  1.00  0.00    -0.116 A  
HETATM   37  C   UNL     1      -9.390   2.975  64.608  1.00  0.00    -0.147 A  
HETATM   38  N   UNL     1      -9.770   3.005  63.300  1.00  0.00    -0.095 NA 
HETATM   39  N   UNL     1      -9.259   4.038  62.623  1.00  0.00    -0.106 NA 
HETATM   40  C   UNL     1     -10.665   2.125  62.587  1.00  0.00    -0.157 C  
HETATM   41  C   UNL     1      -8.565   4.733  63.537  1.00  0.00    -0.132 A  
HETATM   42  C   UNL     1      -8.056   6.051  63.060  1.00  0.00    -0.091 C  
ENDBRANCH  33  36
ENDBRANCH  31  33
ENDBRANCH  13  29
ENDBRANCH   4   9
TORSDOF 8
ENDMDL
MODEL       66
REMARK 921   NORMALIZED FREE ENERGY PREDICTED BY IDOCK:   -6.07 KCAL/MOL
REMARK 922        TOTAL FREE ENERGY PREDICTED BY IDOCK:  -10.53 KCAL/MOL
REMARK 923 INTER-LIGAND FREE ENERGY PREDICTED BY IDOCK:   -9.82 KCAL/MOL
REMARK 924 INTRA-LIGAND FREE ENERGY PREDICTED BY IDOCK:   -0.72 KCAL/MOL
REMARK 927      BINDING AFFINITY PREDICTED BY RF-SCORE:    0.00 PKD
ROOT
HETATM    1  C   UNL     1     -11.197   7.100  70.021  1.00  0.00    -0.271 C  
HETATM    2  C   UNL     1     -10.413   8.173  70.776  1.00  0.00    -0.223 C  
HETATM    3  C   UNL     1     -10.640   9.558  70.177  1.00  0.00    -0.254 C  
HETATM    4  N   UNL     1      -9.556   9.750  69.208  1.00  0.00    -0.185 NA 
HETATM    5  C   UNL     1      -7.410  10.000  70.362  1.00  0.00    -0.094 C  
HETATM    6  C   UNL     1      -8.347   8.984  69.681  1.00  0.00    -0.125 C  
HETATM    7  C   UNL     1      -8.903   7.960  70.710  1.00  0.00    -0.139 C  
HETATM    8  C   UNL     1      -7.480   8.196  68.693  1.00  0.00    -0.098 C  
ENDROOT
BRANCH   4   9
HETATM    9  C   UNL     1      -9.842  10.094  67.897  1.00  0.00    -0.151 A  
HETATM   10  N   UNL     1      -9.863  11.445  67.654  1.00  0.00    -0.174 NA 
HETATM   11  C   UNL     1     -10.067  11.980  66.416  1.00  0.00    -0.218 A  
HETATM   12  C   UNL     1     -10.267  11.165  65.328  1.00  0.00    -0.337 A  
HETATM   13  C   UNL     1     -10.062   9.201  66.823  1.00  0.00    -0.341 A  
HETATM   14  C   UNL     1     -10.254   9.780  65.539  1.00  0.00    -0.114 A  
BRANCH  11  15
HETATM   15  N   UNL     1     -10.051  13.421  66.259  1.00  0.00    -0.293 NA 
HETATM   16  C   UNL     1     -10.474  14.118  65.134  1.00  0.00    -0.402 A  
HETATM   17  C   UNL     1     -10.278  15.452  65.373  1.00  0.00    -0.408 A  
HETATM   18  N   UNL     1      -9.618  14.294  67.234  1.00  0.00    -0.226 NA 
HETATM   19  C   UNL     1      -9.748  15.499  66.663  1.00  0.00    -0.247 A  
BRANCH  19  20
HETATM   20  O   UNL     1      -9.402  16.654  67.275  1.00  0.00    -0.225 OA 
BRANCH  20  21
HETATM   21  C   UNL     1      -9.310  17.811  66.446  1.00  0.00    -0.249 C  
BRANCH  21  22
HETATM   22  C   UNL     1      -8.848  19.027  67.296  1.00  0.00    -0.302 C  
HETATM   23  F   UNL     1     -10.095  21.078  67.270  1.00  0.00    -0.560 F  
HETATM   24  F   UNL     1     -11.241  19.236  67.354  1.00  0.00    -0.553 F  
HETATM   25  C   UNL     1      -7.920  19.937  66.465  1.00  0.00    -0.346 C  
HETATM   26  C   UNL     1      -8.041  18.547  68.521  1.00  0.00    -0.354 C  
HETATM   27  C   UNL     1     -10.087  19.815  67.757  1.00  0.00    -0.419 C  
HETATM   28  F   UNL     1     -10.153  19.919  69.104  1.00  0.00    -0.501 F  
ENDBRANCH  21  22
ENDBRANCH  20  21
ENDBRANCH  19  20
ENDBRANCH  11  15
BRANCH  13  29
HETATM   29  C   UNL     1     -10.104   7.681  66.790  1.00  0.00    -0.255 C  
HETATM   30  H   UNL     1      -8.082   7.465  66.337  1.00  0.00     0.000 HD 
HETATM   31  N   UNL     1      -8.956   6.948  66.429  1.00  0.00    -0.150 N  
HETATM   32  O   UNL     1     -11.118   7.115  67.176  1.00  0.00    -0.326 OA 
BRANCH  31  33
HETATM   33  S   UNL     1      -8.908   5.276  66.136  1.00  0.00    -0.140 S  
HETATM   34  O   UNL     1     -10.050   4.942  65.323  1.00  0.00    -0.070 OA 
HETATM   35  O   UNL     1      -7.568   5.042  65.633  1.00  0.00    -0.083 OA 
BRANCH  33  36
HETATM   36  C   UNL     1      -9.029   4.215  67.513  1.00  0.00    -0.125 A  
HETATM   37  C   UNL     1      -9.336   4.586  68.815  1.00  0.00    -0.146 A  
HETATM   38  N   UNL     1      -9.438   3.437  69.541  1.00  0.00    -0.169 NA 
HETATM   39  N   UNL     1      -9.244   2.332  68.814  1.00  0.00    -0.149 NA 
HETATM   40  C   UNL     1      -9.770   3.262  70.935  1.00  0.00    -0.117 C  
HETATM   41  C   UNL     1      -9.062   2.777  67.562  1.00  0.00    -0.178 A  
HETATM   42  C   UNL     1      -9.017   1.710  66.523  1.00  0.00    -0.099 C  
ENDBRANCH  33  36
ENDBRANCH  31  33
ENDBRANCH  13  29
ENDBRANCH   4   9
TORSDOF 8
ENDMDL
MODEL       67
REMARK 921   NORMALIZED FREE ENERGY PREDICTED BY IDOCK:   -6.04 KCAL/MOL
REMARK 922        TOTAL FREE ENERGY PREDICTED BY IDOCK:  -10.50 KCAL/MOL
REMARK 923 INTER-LIGAND FREE ENERGY PREDICTED BY IDOCK:   -8.82 KCAL/MOL
REMARK 924 INTRA-LIGAND FREE ENERGY PREDICTED BY IDOCK:   -1.68 KCAL/MOL
REMARK 927      BINDING AFFINITY PREDICTED BY RF-SCORE:    0.00 PKD
ROOT
HETATM    1  C   UNL     1     -11.756  12.941  69.682  1.00  0.00    -0.367 C  
HETATM    2  C   UNL     1     -11.830  11.782  68.689  1.00  0.00    -0.369 C  
HETATM    3  C   UNL     1     -10.661  10.818  68.866  1.00  0.00    -0.222 C  
HETATM    4  N   UNL     1      -9.630  11.274  67.928  1.00  0.00    -0.173 NA 
HETATM    5  C   UNL     1     -10.331  10.864  65.617  1.00  0.00    -0.305 C  
HETATM    6  C   UNL     1     -10.307  11.915  66.743  1.00  0.00    -0.209 C  
HETATM    7  C   UNL     1     -11.744  12.240  67.235  1.00  0.00    -0.394 C  
HETATM    8  C   UNL     1      -9.750  13.200  66.120  1.00  0.00    -0.254 C  
ENDROOT
BRANCH   4   9
HETATM    9  C   UNL     1      -8.346  11.538  68.374  1.00  0.00    -0.154 A  
HETATM   10  N   UNL     1      -8.074  12.869  68.576  1.00  0.00    -0.120 NA 
HETATM   11  C   UNL     1      -6.888  13.326  69.068  1.00  0.00    -0.096 A  
HETATM   12  C   UNL     1      -5.882  12.447  69.391  1.00  0.00    -0.093 A  
HETATM   13  C   UNL     1      -7.344  10.584  68.668  1.00  0.00    -0.091 A  
HETATM   14  C   UNL     1      -6.122  11.080  69.197  1.00  0.00    -0.045 A  
BRANCH  11  15
HETATM   15  N   UNL     1      -6.706  14.751  69.264  1.00  0.00    -0.126 NA 
HETATM   16  C   UNL     1      -5.686  15.344  69.995  1.00  0.00    -0.137 A  
HETATM   17  C   UNL     1      -5.879  16.700  69.957  1.00  0.00    -0.206 A  
HETATM   18  N   UNL     1      -7.536  15.711  68.725  1.00  0.00    -0.141 NA 
HETATM   19  C   UNL     1      -7.025  16.864  69.175  1.00  0.00    -0.234 A  
BRANCH  19  20
HETATM   20  O   UNL     1      -7.560  18.074  68.901  1.00  0.00    -0.279 OA 
BRANCH  20  21
HETATM   21  C   UNL     1      -7.992  18.291  67.559  1.00  0.00    -0.231 C  
BRANCH  21  22
HETATM   22  C   UNL     1      -9.482  18.731  67.553  1.00  0.00    -0.326 C  
HETATM   23  F   UNL     1     -10.104  20.921  66.789  1.00  0.00    -0.519 F  
HETATM   24  F   UNL     1      -8.599  19.870  65.630  1.00  0.00    -0.329 F  
HETATM   25  C   UNL     1      -9.838  19.427  68.882  1.00  0.00    -0.523 C  
HETATM   26  C   UNL     1     -10.402  17.499  67.419  1.00  0.00    -0.351 C  
HETATM   27  C   UNL     1      -9.714  19.693  66.373  1.00  0.00    -0.409 C  
HETATM   28  F   UNL     1     -10.675  19.246  65.533  1.00  0.00    -0.542 F  
ENDBRANCH  21  22
ENDBRANCH  20  21
ENDBRANCH  19  20
ENDBRANCH  11  15
BRANCH  13  29
HETATM   29  C   UNL     1      -7.352   9.068  68.540  1.00  0.00    -0.077 C  
HETATM   30  H   UNL     1      -8.855   8.786  69.955  1.00  0.00     0.000 HD 
HETATM   31  N   UNL     1      -8.176   8.291  69.377  1.00  0.00    -0.115 N  
HETATM   32  O   UNL     1      -6.707   8.553  67.636  1.00  0.00    -0.064 OA 
BRANCH  31  33
HETATM   33  S   UNL     1      -8.133   6.598  69.505  1.00  0.00    -0.127 S  
HETATM   34  O   UNL     1      -8.736   6.055  68.315  1.00  0.00    -0.114 OA 
HETATM   35  O   UNL     1      -6.748   6.301  69.816  1.00  0.00    -0.052 OA 
BRANCH  33  36
HETATM   36  C   UNL     1      -9.021   5.869  70.816  1.00  0.00    -0.149 A  
HETATM   37  C   UNL     1      -9.527   4.577  70.851  1.00  0.00    -0.166 A  
HETATM   38  N   UNL     1     -10.044   4.388  72.098  1.00  0.00    -0.191 NA 
HETATM   39  N   UNL     1      -9.898   5.448  72.898  1.00  0.00    -0.158 NA 
HETATM   40  C   UNL     1     -10.659   3.211  72.663  1.00  0.00    -0.033 C  
HETATM   41  C   UNL     1      -9.216   6.338  72.162  1.00  0.00    -0.144 A  
HETATM   42  C   UNL     1      -8.759   7.544  72.911  1.00  0.00    -0.181 C  
ENDBRANCH  33  36
ENDBRANCH  31  33
ENDBRANCH  13  29
ENDBRANCH   4   9
TORSDOF 8
ENDMDL
MODEL       68
REMARK 921   NORMALIZED FREE ENERGY PREDICTED BY IDOCK:   -6.01 KCAL/MOL
REMARK 922        TOTAL FREE ENERGY PREDICTED BY IDOCK:  -10.46 KCAL/MOL
REMARK 923 INTER-LIGAND FREE ENERGY PREDICTED BY IDOCK:   -9.37 KCAL/MOL
REMARK 924 INTRA-LIGAND FREE ENERGY PREDICTED BY IDOCK:   -1.09 KCAL/MOL
REMARK 927      BINDING AFFINITY PREDICTED BY RF-SCORE:    0.00 PKD
ROOT
HETATM    1  C   UNL     1     -10.400  10.292  65.421  1.00  0.00    -0.233 C  
HETATM    2  C   UNL     1     -10.925  11.727  65.440  1.00  0.00    -0.352 C  
HETATM    3  C   UNL     1      -9.806  12.729  65.708  1.00  0.00    -0.214 C  
HETATM    4  N   UNL     1      -9.805  12.938  67.160  1.00  0.00    -0.221 NA 
HETATM    5  C   UNL     1     -11.811  14.161  67.852  1.00  0.00    -0.405 C  
HETATM    6  C   UNL     1     -11.211  12.754  67.674  1.00  0.00    -0.280 C  
HETATM    7  C   UNL     1     -11.945  11.971  66.550  1.00  0.00    -0.090 C  
HETATM    8  C   UNL     1     -11.477  12.005  68.984  1.00  0.00    -0.357 C  
ENDROOT
BRANCH   4   9
HETATM    9  C   UNL     1      -8.641  12.766  67.890  1.00  0.00    -0.181 A  
HETATM   10  N   UNL     1      -8.034  13.935  68.278  1.00  0.00    -0.139 NA 
HETATM   11  C   UNL     1      -6.913  13.976  69.054  1.00  0.00    -0.112 A  
HETATM   12  C   UNL     1      -6.324  12.813  69.491  1.00  0.00    -0.108 A  
HETATM   13  C   UNL     1      -8.073  11.535  68.290  1.00  0.00    -0.148 A  
HETATM   14  C   UNL     1      -6.916  11.600  69.112  1.00  0.00    -0.105 A  
BRANCH  11  15
HETATM   15  N   UNL     1      -6.358  15.262  69.427  1.00  0.00    -0.125 NA 
HETATM   16  C   UNL     1      -5.521  15.500  70.509  1.00  0.00    -0.138 A  
HETATM   17  C   UNL     1      -5.238  16.840  70.530  1.00  0.00    -0.223 A  
HETATM   18  N   UNL     1      -6.590  16.428  68.729  1.00  0.00    -0.145 NA 
HETATM   19  C   UNL     1      -5.922  17.356  69.427  1.00  0.00    -0.237 A  
BRANCH  19  20
HETATM   20  O   UNL     1      -5.906  18.667  69.099  1.00  0.00    -0.209 OA 
BRANCH  20  21
HETATM   21  C   UNL     1      -7.174  19.301  68.944  1.00  0.00    -0.358 C  
BRANCH  21  22
HETATM   22  C   UNL     1      -7.382  19.699  67.457  1.00  0.00    -0.284 C  
HETATM   23  F   UNL     1      -8.949  18.507  66.082  1.00  0.00    -0.295 F  
HETATM   24  F   UNL     1      -9.577  18.970  68.107  1.00  0.00    -0.318 F  
HETATM   25  C   UNL     1      -6.435  18.887  66.550  1.00  0.00    -0.211 C  
HETATM   26  C   UNL     1      -7.046  21.192  67.251  1.00  0.00    -0.330 C  
HETATM   27  C   UNL     1      -8.847  19.430  67.067  1.00  0.00    -0.300 C  
HETATM   28  F   UNL     1      -9.468  20.545  66.619  1.00  0.00    -0.469 F  
ENDBRANCH  21  22
ENDBRANCH  20  21
ENDBRANCH  19  20
ENDBRANCH  11  15
BRANCH  13  29
HETATM   29  C   UNL     1      -8.510  10.105  68.011  1.00  0.00    -0.118 C  
HETATM   30  H   UNL     1      -9.900  10.046  69.562  1.00  0.00     0.000 HD 
HETATM   31  N   UNL     1      -9.438   9.469  68.859  1.00  0.00    -0.152 N  
HETATM   32  O   UNL     1      -8.116   9.561  66.987  1.00  0.00    -0.111 OA 
BRANCH  31  33
HETATM   33  S   UNL     1      -9.852   7.823  68.808  1.00  0.00    -0.173 S  
HETATM   34  O   UNL     1     -10.794   7.643  67.732  1.00  0.00    -0.170 OA 
HETATM   35  O   UNL     1      -8.576   7.136  68.775  1.00  0.00    -0.125 OA 
BRANCH  33  36
HETATM   36  C   UNL     1     -10.653   7.152  70.203  1.00  0.00    -0.230 A  
HETATM   37  C   UNL     1     -10.325   5.971  70.854  1.00  0.00    -0.222 A  
HETATM   38  N   UNL     1     -11.126   5.889  71.953  1.00  0.00    -0.266 NA 
HETATM   39  N   UNL     1     -11.944   6.937  72.092  1.00  0.00    -0.288 NA 
HETATM   40  C   UNL     1     -11.166   4.876  72.981  1.00  0.00    -0.289 C  
HETATM   41  C   UNL     1     -11.626   7.753  71.077  1.00  0.00    -0.283 A  
HETATM   42  C   UNL     1     -12.277   9.093  71.129  1.00  0.00    -0.350 C  
ENDBRANCH  33  36
ENDBRANCH  31  33
ENDBRANCH  13  29
ENDBRANCH   4   9
TORSDOF 8
ENDMDL
MODEL       69
REMARK 921   NORMALIZED FREE ENERGY PREDICTED BY IDOCK:   -5.98 KCAL/MOL
REMARK 922        TOTAL FREE ENERGY PREDICTED BY IDOCK:  -10.40 KCAL/MOL
REMARK 923 INTER-LIGAND FREE ENERGY PREDICTED BY IDOCK:   -9.22 KCAL/MOL
REMARK 924 INTRA-LIGAND FREE ENERGY PREDICTED BY IDOCK:   -1.18 KCAL/MOL
REMARK 927      BINDING AFFINITY PREDICTED BY RF-SCORE:    0.00 PKD
ROOT
HETATM    1  C   UNL     1     -10.838   6.502  69.522  1.00  0.00    -0.360 C  
HETATM    2  C   UNL     1     -10.330   7.639  70.409  1.00  0.00    -0.214 C  
HETATM    3  C   UNL     1     -10.670   9.003  69.819  1.00  0.00    -0.225 C  
HETATM    4  N   UNL     1      -9.502   9.390  69.021  1.00  0.00    -0.156 NA 
HETATM    5  C   UNL     1      -7.595   9.884  70.476  1.00  0.00    -0.034 C  
HETATM    6  C   UNL     1      -8.271   8.780  69.642  1.00  0.00    -0.113 C  
HETATM    7  C   UNL     1      -8.810   7.642  70.554  1.00  0.00    -0.149 C  
HETATM    8  C   UNL     1      -7.172   8.166  68.769  1.00  0.00    -0.083 C  
ENDROOT
BRANCH   4   9
HETATM    9  C   UNL     1      -9.651   9.750  67.692  1.00  0.00    -0.145 A  
HETATM   10  N   UNL     1      -9.715  11.104  67.472  1.00  0.00    -0.175 NA 
HETATM   11  C   UNL     1      -9.800  11.658  66.229  1.00  0.00    -0.219 A  
HETATM   12  C   UNL     1      -9.830  10.860  65.110  1.00  0.00    -0.329 A  
HETATM   13  C   UNL     1      -9.697   8.874  66.583  1.00  0.00    -0.303 A  
HETATM   14  C   UNL     1      -9.769   9.472  65.296  1.00  0.00    -0.268 A  
BRANCH  11  15
HETATM   15  N   UNL     1      -9.842  13.102  66.100  1.00  0.00    -0.286 NA 
HETATM   16  C   UNL     1     -10.380  13.804  65.030  1.00  0.00    -0.382 A  
HETATM   17  C   UNL     1     -10.205  15.140  65.278  1.00  0.00    -0.400 A  
HETATM   18  N   UNL     1      -9.354  13.971  67.052  1.00  0.00    -0.240 NA 
HETATM   19  C   UNL     1      -9.569  15.180  66.520  1.00  0.00    -0.271 A  
BRANCH  19  20
HETATM   20  O   UNL     1      -9.208  16.334  67.123  1.00  0.00    -0.208 OA 
BRANCH  20  21
HETATM   21  C   UNL     1      -8.660  17.349  66.284  1.00  0.00    -0.211 C  
BRANCH  21  22
HETATM   22  C   UNL     1      -8.937  18.747  66.902  1.00  0.00    -0.302 C  
HETATM   23  F   UNL     1     -10.236  20.374  65.707  1.00  0.00    -0.512 F  
HETATM   24  F   UNL     1     -10.949  18.325  65.658  1.00  0.00    -0.357 F  
HETATM   25  C   UNL     1      -7.847  19.748  66.470  1.00  0.00    -0.318 C  
HETATM   26  C   UNL     1      -8.900  18.666  68.443  1.00  0.00    -0.367 C  
HETATM   27  C   UNL     1     -10.320  19.236  66.434  1.00  0.00    -0.471 C  
HETATM   28  F   UNL     1     -11.146  19.499  67.473  1.00  0.00    -0.563 F  
ENDBRANCH  21  22
ENDBRANCH  20  21
ENDBRANCH  19  20
ENDBRANCH  11  15
BRANCH  13  29
HETATM   29  C   UNL     1      -9.655   7.355  66.518  1.00  0.00    -0.164 C  
HETATM   30  H   UNL     1      -7.648   7.217  67.059  1.00  0.00     0.000 HD 
HETATM   31  N   UNL     1      -8.442   6.670  66.727  1.00  0.00    -0.114 N  
HETATM   32  O   UNL     1     -10.708   6.745  66.380  1.00  0.00    -0.039 OA 
BRANCH  31  33
HETATM   33  S   UNL     1      -8.192   5.009  66.473  1.00  0.00    -0.107 S  
HETATM   34  O   UNL     1      -6.770   4.789  66.396  1.00  0.00    -0.051 OA 
HETATM   35  O   UNL     1      -8.969   4.369  67.516  1.00  0.00    -0.106 OA 
BRANCH  33  36
HETATM   36  C   UNL     1      -8.820   4.320  65.000  1.00  0.00    -0.136 A  
HETATM   37  C   UNL     1      -9.758   3.302  64.901  1.00  0.00    -0.109 A  
HETATM   38  N   UNL     1     -10.046   3.156  63.576  1.00  0.00    -0.152 NA 
HETATM   39  N   UNL     1      -9.385   4.015  62.793  1.00  0.00    -0.118 NA 
HETATM   40  C   UNL     1     -10.979   2.260  62.937  1.00  0.00    -0.231 C  
HETATM   41  C   UNL     1      -8.685   4.780  63.643  1.00  0.00    -0.130 A  
HETATM   42  C   UNL     1      -8.009   5.950  63.014  1.00  0.00    -0.104 C  
ENDBRANCH  33  36
ENDBRANCH  31  33
ENDBRANCH  13  29
ENDBRANCH   4   9
TORSDOF 8
ENDMDL
MODEL       70
REMARK 921   NORMALIZED FREE ENERGY PREDICTED BY IDOCK:   -5.96 KCAL/MOL
REMARK 922        TOTAL FREE ENERGY PREDICTED BY IDOCK:  -10.38 KCAL/MOL
REMARK 923 INTER-LIGAND FREE ENERGY PREDICTED BY IDOCK:   -9.32 KCAL/MOL
REMARK 924 INTRA-LIGAND FREE ENERGY PREDICTED BY IDOCK:   -1.06 KCAL/MOL
REMARK 927      BINDING AFFINITY PREDICTED BY RF-SCORE:    0.00 PKD
ROOT
HETATM    1  C   UNL     1     -11.278  15.972  68.420  1.00  0.00    -0.364 C  
HETATM    2  C   UNL     1     -12.083  14.742  68.000  1.00  0.00    -0.163 C  
HETATM    3  C   UNL     1     -11.389  13.450  68.422  1.00  0.00    -0.294 C  
HETATM    4  N   UNL     1     -10.575  13.046  67.271  1.00  0.00    -0.241 NA 
HETATM    5  C   UNL     1     -12.008  12.319  65.421  1.00  0.00    -0.395 C  
HETATM    6  C   UNL     1     -11.252  13.525  66.011  1.00  0.00    -0.295 C  
HETATM    7  C   UNL     1     -12.241  14.626  66.486  1.00  0.00    -0.154 C  
HETATM    8  C   UNL     1     -10.438  14.126  64.861  1.00  0.00    -0.461 C  
ENDROOT
BRANCH   4   9
HETATM    9  C   UNL     1      -9.222  12.796  67.423  1.00  0.00    -0.193 A  
HETATM   10  N   UNL     1      -8.885  11.465  67.427  1.00  0.00    -0.148 NA 
HETATM   11  C   UNL     1      -7.599  11.017  67.506  1.00  0.00    -0.106 A  
HETATM   12  C   UNL     1      -6.555  11.907  67.591  1.00  0.00    -0.099 A  
HETATM   13  C   UNL     1      -8.195  13.762  67.529  1.00  0.00    -0.194 A  
HETATM   14  C   UNL     1      -6.861  13.275  67.593  1.00  0.00    -0.168 A  
BRANCH  11  15
HETATM   15  N   UNL     1      -7.345   9.590  67.482  1.00  0.00    -0.090 NA 
HETATM   16  C   UNL     1      -6.215   8.960  67.986  1.00  0.00    -0.051 A  
HETATM   17  C   UNL     1      -6.347   7.617  67.751  1.00  0.00    -0.050 A  
HETATM   18  N   UNL     1      -8.221   8.665  66.956  1.00  0.00    -0.106 NA 
HETATM   19  C   UNL     1      -7.584   7.497  67.114  1.00  0.00    -0.107 A  
BRANCH  19  20
HETATM   20  O   UNL     1      -8.086   6.313  66.702  1.00  0.00    -0.107 OA 
BRANCH  20  21
HETATM   21  C   UNL     1      -7.996   5.227  67.622  1.00  0.00    -0.100 C  
BRANCH  21  22
HETATM   22  C   UNL     1      -9.410   4.632  67.870  1.00  0.00    -0.169 C  
HETATM   23  F   UNL     1     -10.067   3.923  70.068  1.00  0.00    -0.269 F  
HETATM   24  F   UNL     1      -8.969   5.790  69.929  1.00  0.00    -0.124 F  
HETATM   25  C   UNL     1      -9.378   3.097  67.717  1.00  0.00    -0.252 C  
HETATM   26  C   UNL     1     -10.409   5.176  66.826  1.00  0.00    -0.306 C  
HETATM   27  C   UNL     1      -9.871   5.012  69.289  1.00  0.00    -0.196 C  
HETATM   28  F   UNL     1     -11.038   5.697  69.279  1.00  0.00    -0.389 F  
ENDBRANCH  21  22
ENDBRANCH  20  21
ENDBRANCH  19  20
ENDBRANCH  11  15
BRANCH  13  29
HETATM   29  C   UNL     1      -8.263  15.281  67.560  1.00  0.00    -0.173 C  
HETATM   30  H   UNL     1      -8.398  15.488  65.491  1.00  0.00     0.000 HD 
HETATM   31  N   UNL     1      -8.285  16.014  66.357  1.00  0.00    -0.297 N  
HETATM   32  O   UNL     1      -8.396  15.840  68.641  1.00  0.00    -0.162 OA 
BRANCH  31  33
HETATM   33  S   UNL     1      -8.138  17.701  66.229  1.00  0.00    -0.212 S  
HETATM   34  O   UNL     1      -7.047  17.978  65.330  1.00  0.00    -0.427 OA 
HETATM   35  O   UNL     1      -9.478  18.151  65.903  1.00  0.00    -0.518 OA 
BRANCH  33  36
HETATM   36  C   UNL     1      -7.743  18.585  67.679  1.00  0.00    -0.231 A  
HETATM   37  C   UNL     1      -6.472  18.954  68.099  1.00  0.00    -0.216 A  
HETATM   38  N   UNL     1      -6.631  19.724  69.212  1.00  0.00    -0.338 NA 
HETATM   39  N   UNL     1      -7.911  19.912  69.548  1.00  0.00     0.073 NA 
HETATM   40  C   UNL     1      -5.631  20.385  70.017  1.00  0.00    -0.330 C  
HETATM   41  C   UNL     1      -8.609  19.286  68.589  1.00  0.00    -0.366 A  
HETATM   42  C   UNL     1     -10.081  19.519  68.639  1.00  0.00    -0.535 C  
ENDBRANCH  33  36
ENDBRANCH  31  33
ENDBRANCH  13  29
ENDBRANCH   4   9
TORSDOF 8
ENDMDL
MODEL       71
REMARK 921   NORMALIZED FREE ENERGY PREDICTED BY IDOCK:   -5.93 KCAL/MOL
REMARK 922        TOTAL FREE ENERGY PREDICTED BY IDOCK:  -10.34 KCAL/MOL
REMARK 923 INTER-LIGAND FREE ENERGY PREDICTED BY IDOCK:   -7.96 KCAL/MOL
REMARK 924 INTRA-LIGAND FREE ENERGY PREDICTED BY IDOCK:   -2.38 KCAL/MOL
REMARK 927      BINDING AFFINITY PREDICTED BY RF-SCORE:    0.00 PKD
ROOT
HETATM    1  C   UNL     1     -11.004  10.304  67.332  1.00  0.00    -0.317 C  
HETATM    2  C   UNL     1     -11.038  11.535  66.426  1.00  0.00    -0.328 C  
HETATM    3  C   UNL     1      -9.634  12.059  66.142  1.00  0.00    -0.239 C  
HETATM    4  N   UNL     1      -9.381  13.082  67.162  1.00  0.00    -0.222 NA 
HETATM    5  C   UNL     1     -10.789  15.048  66.771  1.00  0.00    -0.318 C  
HETATM    6  C   UNL     1     -10.695  13.718  67.542  1.00  0.00    -0.256 C  
HETATM    7  C   UNL     1     -11.777  12.713  67.055  1.00  0.00    -0.438 C  
HETATM    8  C   UNL     1     -11.017  14.044  69.004  1.00  0.00    -0.287 C  
ENDROOT
BRANCH   4   9
HETATM    9  C   UNL     1      -8.250  13.012  67.958  1.00  0.00    -0.161 A  
HETATM   10  N   UNL     1      -8.059  11.799  68.573  1.00  0.00    -0.151 NA 
HETATM   11  C   UNL     1      -6.974  11.515  69.348  1.00  0.00    -0.071 A  
HETATM   12  C   UNL     1      -5.997  12.460  69.554  1.00  0.00    -0.110 A  
HETATM   13  C   UNL     1      -7.292  14.034  68.148  1.00  0.00    -0.128 A  
HETATM   14  C   UNL     1      -6.160  13.711  68.944  1.00  0.00    -0.088 A  
BRANCH  11  15
HETATM   15  N   UNL     1      -6.854  10.196  69.938  1.00  0.00    -0.106 NA 
HETATM   16  C   UNL     1      -5.676   9.615  70.388  1.00  0.00    -0.048 A  
HETATM   17  C   UNL     1      -5.980   8.363  70.853  1.00  0.00    -0.033 A  
HETATM   18  N   UNL     1      -7.920   9.346  70.140  1.00  0.00    -0.130 NA 
HETATM   19  C   UNL     1      -7.360   8.252  70.669  1.00  0.00    -0.057 A  
BRANCH  19  20
HETATM   20  O   UNL     1      -8.058   7.143  70.999  1.00  0.00    -0.102 OA 
BRANCH  20  21
HETATM   21  C   UNL     1      -7.926   6.022  70.126  1.00  0.00    -0.106 C  
BRANCH  21  22
HETATM   22  C   UNL     1      -9.266   5.238  70.075  1.00  0.00    -0.180 C  
HETATM   23  F   UNL     1     -11.336   6.384  69.665  1.00  0.00    -0.364 F  
HETATM   24  F   UNL     1      -9.629   6.985  68.466  1.00  0.00    -0.138 F  
HETATM   25  C   UNL     1      -9.917   5.200  71.473  1.00  0.00    -0.248 C  
HETATM   26  C   UNL     1      -9.013   3.776  69.647  1.00  0.00    -0.171 C  
HETATM   27  C   UNL     1     -10.210   5.925  69.071  1.00  0.00    -0.203 C  
HETATM   28  F   UNL     1     -10.605   5.084  68.087  1.00  0.00    -0.178 F  
ENDBRANCH  21  22
ENDBRANCH  20  21
ENDBRANCH  19  20
ENDBRANCH  11  15
BRANCH  13  29
HETATM   29  C   UNL     1      -7.240  15.457  67.611  1.00  0.00    -0.182 C  
HETATM   30  H   UNL     1      -6.324  16.246  69.308  1.00  0.00     0.000 HD 
HETATM   31  N   UNL     1      -6.759  16.503  68.422  1.00  0.00    -0.139 N  
HETATM   32  O   UNL     1      -7.530  15.651  66.438  1.00  0.00     0.017 OA 
BRANCH  31  33
HETATM   33  S   UNL     1      -6.845  18.158  68.048  1.00  0.00    -0.212 S  
HETATM   34  O   UNL     1      -6.545  18.893  69.251  1.00  0.00    -0.279 OA 
HETATM   35  O   UNL     1      -5.998  18.303  66.881  1.00  0.00    -0.145 OA 
BRANCH  33  36
HETATM   36  C   UNL     1      -8.386  18.784  67.527  1.00  0.00    -0.265 A  
HETATM   37  C   UNL     1      -8.635  19.495  66.361  1.00  0.00    -0.360 A  
HETATM   38  N   UNL     1      -9.983  19.686  66.295  1.00  0.00    -0.432 NA 
HETATM   39  N   UNL     1     -10.647  19.137  67.317  1.00  0.00    -0.455 NA 
HETATM   40  C   UNL     1     -10.765  20.337  65.271  1.00  0.00     0.239 C  
HETATM   41  C   UNL     1      -9.703  18.522  68.044  1.00  0.00    -0.327 A  
HETATM   42  C   UNL     1     -10.227  17.664  69.145  1.00  0.00    -0.238 C  
ENDBRANCH  33  36
ENDBRANCH  31  33
ENDBRANCH  13  29
ENDBRANCH   4   9
TORSDOF 8
ENDMDL
MODEL       72
REMARK 921   NORMALIZED FREE ENERGY PREDICTED BY IDOCK:   -5.83 KCAL/MOL
REMARK 922        TOTAL FREE ENERGY PREDICTED BY IDOCK:  -10.19 KCAL/MOL
REMARK 923 INTER-LIGAND FREE ENERGY PREDICTED BY IDOCK:   -8.72 KCAL/MOL
REMARK 924 INTRA-LIGAND FREE ENERGY PREDICTED BY IDOCK:   -1.47 KCAL/MOL
REMARK 927      BINDING AFFINITY PREDICTED BY RF-SCORE:    0.00 PKD
ROOT
HETATM    1  C   UNL     1      -9.062   8.521  66.498  1.00  0.00    -0.217 C  
HETATM    2  C   UNL     1      -9.897   9.758  66.171  1.00  0.00    -0.329 C  
HETATM    3  C   UNL     1      -9.056  11.030  66.219  1.00  0.00    -0.182 C  
HETATM    4  N   UNL     1      -9.206  11.551  67.581  1.00  0.00    -0.168 NA 
HETATM    5  C   UNL     1     -11.482  12.388  67.932  1.00  0.00    -0.385 C  
HETATM    6  C   UNL     1     -10.568  11.159  68.098  1.00  0.00    -0.193 C  
HETATM    7  C   UNL     1     -11.023   9.995  67.175  1.00  0.00    -0.177 C  
HETATM    8  C   UNL     1     -10.752  10.679  69.542  1.00  0.00    -0.290 C  
ENDROOT
BRANCH   4   9
HETATM    9  C   UNL     1      -8.090  11.826  68.353  1.00  0.00    -0.150 A  
HETATM   10  N   UNL     1      -7.830  13.164  68.522  1.00  0.00    -0.129 NA 
HETATM   11  C   UNL     1      -6.812  13.637  69.297  1.00  0.00    -0.063 A  
HETATM   12  C   UNL     1      -5.977  12.768  69.958  1.00  0.00    -0.142 A  
HETATM   13  C   UNL     1      -7.255  10.880  68.991  1.00  0.00    -0.101 A  
HETATM   14  C   UNL     1      -6.211  11.395  69.807  1.00  0.00    -0.135 A  
BRANCH  11  15
HETATM   15  N   UNL     1      -6.631  15.069  69.428  1.00  0.00    -0.130 NA 
HETATM   16  C   UNL     1      -5.609  15.696  70.128  1.00  0.00    -0.148 A  
HETATM   17  C   UNL     1      -5.805  17.048  70.030  1.00  0.00    -0.215 A  
HETATM   18  N   UNL     1      -7.465  16.003  68.850  1.00  0.00    -0.174 NA 
HETATM   19  C   UNL     1      -6.953  17.175  69.247  1.00  0.00    -0.186 A  
BRANCH  19  20
HETATM   20  O   UNL     1      -7.492  18.371  68.921  1.00  0.00    -0.289 OA 
BRANCH  20  21
HETATM   21  C   UNL     1      -7.975  18.511  67.586  1.00  0.00    -0.246 C  
BRANCH  21  22
HETATM   22  C   UNL     1      -9.477  18.906  67.612  1.00  0.00    -0.340 C  
HETATM   23  F   UNL     1     -10.181  21.079  66.872  1.00  0.00    -0.430 F  
HETATM   24  F   UNL     1      -8.668  20.080  65.678  1.00  0.00    -0.342 F  
HETATM   25  C   UNL     1      -9.828  19.585  68.952  1.00  0.00    -0.522 C  
HETATM   26  C   UNL     1     -10.363  17.647  67.490  1.00  0.00    -0.365 C  
HETATM   27  C   UNL     1      -9.762  19.866  66.442  1.00  0.00    -0.447 C  
HETATM   28  F   UNL     1     -10.726  19.393  65.619  1.00  0.00    -0.536 F  
ENDBRANCH  21  22
ENDBRANCH  20  21
ENDBRANCH  19  20
ENDBRANCH  11  15
BRANCH  13  29
HETATM   29  C   UNL     1      -7.292   9.359  68.981  1.00  0.00    -0.072 C  
HETATM   30  H   UNL     1      -8.603   9.211  70.593  1.00  0.00     0.000 HD 
HETATM   31  N   UNL     1      -8.008   8.662  69.973  1.00  0.00    -0.101 N  
HETATM   32  O   UNL     1      -6.772   8.767  68.044  1.00  0.00    -0.066 OA 
BRANCH  31  33
HETATM   33  S   UNL     1      -7.963   6.982  70.223  1.00  0.00    -0.119 S  
HETATM   34  O   UNL     1      -6.580   6.597  70.344  1.00  0.00    -0.046 OA 
HETATM   35  O   UNL     1      -8.876   6.763  71.328  1.00  0.00    -0.135 OA 
BRANCH  33  36
HETATM   36  C   UNL     1      -8.589   5.965  68.954  1.00  0.00    -0.110 A  
HETATM   37  C   UNL     1      -7.880   5.012  68.235  1.00  0.00    -0.086 A  
HETATM   38  N   UNL     1      -8.777   4.375  67.431  1.00  0.00    -0.104 NA 
HETATM   39  N   UNL     1     -10.029   4.817  67.579  1.00  0.00    -0.165 NA 
HETATM   40  C   UNL     1      -8.565   3.284  66.510  1.00  0.00    -0.117 C  
HETATM   41  C   UNL     1      -9.952   5.738  68.551  1.00  0.00    -0.154 A  
HETATM   42  C   UNL     1     -11.268   6.244  69.035  1.00  0.00    -0.415 C  
ENDBRANCH  33  36
ENDBRANCH  31  33
ENDBRANCH  13  29
ENDBRANCH   4   9
TORSDOF 8
ENDMDL
MODEL       73
REMARK 921   NORMALIZED FREE ENERGY PREDICTED BY IDOCK:   -5.83 KCAL/MOL
REMARK 922        TOTAL FREE ENERGY PREDICTED BY IDOCK:  -10.19 KCAL/MOL
REMARK 923 INTER-LIGAND FREE ENERGY PREDICTED BY IDOCK:   -8.86 KCAL/MOL
REMARK 924 INTRA-LIGAND FREE ENERGY PREDICTED BY IDOCK:   -1.32 KCAL/MOL
REMARK 927      BINDING AFFINITY PREDICTED BY RF-SCORE:    0.00 PKD
ROOT
HETATM    1  C   UNL     1     -10.382  10.722  64.651  1.00  0.00    -0.394 C  
HETATM    2  C   UNL     1     -10.661  12.141  65.144  1.00  0.00    -0.333 C  
HETATM    3  C   UNL     1      -9.510  12.677  65.989  1.00  0.00    -0.135 C  
HETATM    4  N   UNL     1      -9.858  12.356  67.378  1.00  0.00    -0.197 NA 
HETATM    5  C   UNL     1     -11.758  13.712  68.120  1.00  0.00    -0.392 C  
HETATM    6  C   UNL     1     -11.360  12.355  67.509  1.00  0.00    -0.315 C  
HETATM    7  C   UNL     1     -11.886  12.223  66.052  1.00  0.00    -0.409 C  
HETATM    8  C   UNL     1     -12.076  11.284  68.339  1.00  0.00    -0.110 C  
ENDROOT
BRANCH   4   9
HETATM    9  C   UNL     1      -8.970  11.657  68.179  1.00  0.00    -0.182 A  
HETATM   10  N   UNL     1      -9.349  10.368  68.461  1.00  0.00    -0.153 NA 
HETATM   11  C   UNL     1      -8.582   9.503  69.183  1.00  0.00    -0.140 A  
HETATM   12  C   UNL     1      -7.361   9.897  69.676  1.00  0.00    -0.115 A  
HETATM   13  C   UNL     1      -7.734  12.132  68.675  1.00  0.00    -0.089 A  
HETATM   14  C   UNL     1      -6.942  11.208  69.410  1.00  0.00    -0.124 A  
BRANCH  11  15
HETATM   15  N   UNL     1      -9.062   8.154  69.410  1.00  0.00    -0.148 NA 
HETATM   16  C   UNL     1     -10.253   7.626  68.928  1.00  0.00    -0.210 A  
HETATM   17  C   UNL     1     -10.349   6.336  69.379  1.00  0.00    -0.266 A  
HETATM   18  N   UNL     1      -8.373   7.207  70.137  1.00  0.00    -0.135 NA 
HETATM   19  C   UNL     1      -9.180   6.139  70.116  1.00  0.00    -0.155 A  
BRANCH  19  20
HETATM   20  O   UNL     1      -8.894   4.976  70.743  1.00  0.00    -0.125 OA 
BRANCH  20  21
HETATM   21  C   UNL     1     -10.007   4.182  71.152  1.00  0.00    -0.140 C  
BRANCH  21  22
HETATM   22  C   UNL     1     -10.071   4.131  72.704  1.00  0.00    -0.225 C  
HETATM   23  F   UNL     1     -11.727   2.793  73.813  1.00  0.00    -0.300 F  
HETATM   24  F   UNL     1     -10.753   1.911  72.085  1.00  0.00    -0.226 F  
HETATM   25  C   UNL     1     -11.032   5.214  73.235  1.00  0.00    -0.375 C  
HETATM   26  C   UNL     1      -8.678   4.418  73.306  1.00  0.00    -0.100 C  
HETATM   27  C   UNL     1     -10.555   2.735  73.139  1.00  0.00    -0.162 C  
HETATM   28  F   UNL     1      -9.668   2.119  73.954  1.00  0.00    -0.090 F  
ENDBRANCH  21  22
ENDBRANCH  20  21
ENDBRANCH  19  20
ENDBRANCH  11  15
BRANCH  13  29
HETATM   29  C   UNL     1      -7.065  13.491  68.535  1.00  0.00    -0.108 C  
HETATM   30  H   UNL     1      -8.826  14.574  68.790  1.00  0.00     0.000 HD 
HETATM   31  N   UNL     1      -7.841  14.666  68.544  1.00  0.00    -0.126 N  
HETATM   32  O   UNL     1      -5.842  13.542  68.513  1.00  0.00    -0.080 OA 
BRANCH  31  33
HETATM   33  S   UNL     1      -7.272  16.225  68.181  1.00  0.00    -0.147 S  
HETATM   34  O   UNL     1      -6.748  16.793  69.397  1.00  0.00    -0.229 OA 
HETATM   35  O   UNL     1      -6.399  16.027  67.040  1.00  0.00    -0.295 OA 
BRANCH  33  36
HETATM   36  C   UNL     1      -8.436  17.394  67.620  1.00  0.00    -0.212 A  
HETATM   37  C   UNL     1      -8.409  18.762  67.853  1.00  0.00    -0.276 A  
HETATM   38  N   UNL     1      -9.435  19.306  67.140  1.00  0.00    -0.315 NA 
HETATM   39  N   UNL     1     -10.127  18.405  66.436  1.00  0.00    -0.384 NA 
HETATM   40  C   UNL     1      -9.826  20.689  67.011  1.00  0.00    -0.308 C  
HETATM   41  C   UNL     1      -9.494  17.243  66.657  1.00  0.00    -0.265 A  
HETATM   42  C   UNL     1      -9.968  16.107  65.816  1.00  0.00    -0.370 C  
ENDBRANCH  33  36
ENDBRANCH  31  33
ENDBRANCH  13  29
ENDBRANCH   4   9
TORSDOF 8
ENDMDL
MODEL       74
REMARK 921   NORMALIZED FREE ENERGY PREDICTED BY IDOCK:   -5.77 KCAL/MOL
REMARK 922        TOTAL FREE ENERGY PREDICTED BY IDOCK:  -10.10 KCAL/MOL
REMARK 923 INTER-LIGAND FREE ENERGY PREDICTED BY IDOCK:   -8.42 KCAL/MOL
REMARK 924 INTRA-LIGAND FREE ENERGY PREDICTED BY IDOCK:   -1.68 KCAL/MOL
REMARK 927      BINDING AFFINITY PREDICTED BY RF-SCORE:    0.00 PKD
ROOT
HETATM    1  C   UNL     1     -11.634  10.619  69.440  1.00  0.00    -0.352 C  
HETATM    2  C   UNL     1     -10.389   9.789  69.749  1.00  0.00    -0.274 C  
HETATM    3  C   UNL     1      -9.231  10.152  68.825  1.00  0.00    -0.164 C  
HETATM    4  N   UNL     1      -9.316   9.215  67.700  1.00  0.00    -0.135 NA 
HETATM    5  C   UNL     1      -8.742   6.948  68.430  1.00  0.00    -0.124 C  
HETATM    6  C   UNL     1      -9.913   7.921  68.196  1.00  0.00    -0.180 C  
HETATM    7  C   UNL     1     -10.606   8.293  69.536  1.00  0.00    -0.216 C  
HETATM    8  C   UNL     1     -10.945   7.159  67.358  1.00  0.00    -0.296 C  
ENDROOT
BRANCH   4   9
HETATM    9  C   UNL     1      -9.358   9.684  66.398  1.00  0.00    -0.174 A  
HETATM   10  N   UNL     1      -9.981  10.899  66.250  1.00  0.00    -0.219 NA 
HETATM   11  C   UNL     1     -10.071  11.555  65.058  1.00  0.00    -0.270 A  
HETATM   12  C   UNL     1      -9.528  11.009  63.919  1.00  0.00    -0.280 A  
HETATM   13  C   UNL     1      -8.797   9.060  65.260  1.00  0.00    -0.234 A  
HETATM   14  C   UNL     1      -8.887   9.768  64.032  1.00  0.00    -0.258 A  
BRANCH  11  15
HETATM   15  N   UNL     1     -10.732  12.844  65.009  1.00  0.00    -0.294 NA 
HETATM   16  C   UNL     1     -11.767  13.192  64.151  1.00  0.00    -0.418 A  
HETATM   17  C   UNL     1     -12.096  14.497  64.403  1.00  0.00    -0.492 A  
HETATM   18  N   UNL     1     -10.415  13.900  65.837  1.00  0.00    -0.297 NA 
HETATM   19  C   UNL     1     -11.235  14.879  65.434  1.00  0.00    -0.359 A  
BRANCH  19  20
HETATM   20  O   UNL     1     -11.236  16.119  65.971  1.00  0.00    -0.015 OA 
BRANCH  20  21
HETATM   21  C   UNL     1      -9.965  16.747  66.126  1.00  0.00    -0.327 C  
BRANCH  21  22
HETATM   22  C   UNL     1      -9.913  17.493  67.488  1.00  0.00    -0.315 C  
HETATM   23  F   UNL     1      -8.239  16.943  69.118  1.00  0.00    -0.239 F  
HETATM   24  F   UNL     1      -7.591  17.058  67.050  1.00  0.00    -0.167 F  
HETATM   25  C   UNL     1     -10.751  16.740  68.542  1.00  0.00    -0.358 C  
HETATM   26  C   UNL     1     -10.518  18.906  67.346  1.00  0.00    -0.520 C  
HETATM   27  C   UNL     1      -8.447  17.592  67.949  1.00  0.00    -0.230 C  
HETATM   28  F   UNL     1      -8.059  18.873  68.143  1.00  0.00    -0.284 F  
ENDBRANCH  21  22
ENDBRANCH  20  21
ENDBRANCH  19  20
ENDBRANCH  11  15
BRANCH  13  29
HETATM   29  C   UNL     1      -8.066   7.734  65.117  1.00  0.00    -0.137 C  
HETATM   30  H   UNL     1      -9.261   7.048  63.554  1.00  0.00     0.000 HD 
HETATM   31  N   UNL     1      -8.525   6.767  64.201  1.00  0.00     0.175 N  
HETATM   32  O   UNL     1      -7.024   7.569  65.738  1.00  0.00    -0.058 OA 
BRANCH  31  33
HETATM   33  S   UNL     1      -7.955   5.171  64.085  1.00  0.00    -0.115 S  
HETATM   34  O   UNL     1      -8.790   4.477  63.138  1.00  0.00    -0.122 OA 
HETATM   35  O   UNL     1      -6.536   5.318  63.828  1.00  0.00    -0.025 OA 
BRANCH  33  36
HETATM   36  C   UNL     1      -8.020   4.189  65.524  1.00  0.00    -0.097 A  
HETATM   37  C   UNL     1      -9.095   4.072  66.395  1.00  0.00    -0.138 A  
HETATM   38  N   UNL     1      -8.760   3.120  67.311  1.00  0.00    -0.112 NA 
HETATM   39  N   UNL     1      -7.555   2.582  67.099  1.00  0.00    -0.065 NA 
HETATM   40  C   UNL     1      -9.535   2.597  68.411  1.00  0.00    -0.149 C  
HETATM   41  C   UNL     1      -7.114   3.167  65.976  1.00  0.00    -0.062 A  
HETATM   42  C   UNL     1      -5.858   2.585  65.424  1.00  0.00    -0.018 C  
ENDBRANCH  33  36
ENDBRANCH  31  33
ENDBRANCH  13  29
ENDBRANCH   4   9
TORSDOF 8
ENDMDL
MODEL       75
REMARK 921   NORMALIZED FREE ENERGY PREDICTED BY IDOCK:   -5.75 KCAL/MOL
REMARK 922        TOTAL FREE ENERGY PREDICTED BY IDOCK:  -10.07 KCAL/MOL
REMARK 923 INTER-LIGAND FREE ENERGY PREDICTED BY IDOCK:   -8.37 KCAL/MOL
REMARK 924 INTRA-LIGAND FREE ENERGY PREDICTED BY IDOCK:   -1.70 KCAL/MOL
REMARK 927      BINDING AFFINITY PREDICTED BY RF-SCORE:    0.00 PKD
ROOT
HETATM    1  C   UNL     1     -11.845  10.874  70.884  1.00  0.00    -0.363 C  
HETATM    2  C   UNL     1     -12.499  11.745  69.811  1.00  0.00    -0.051 C  
HETATM    3  C   UNL     1     -11.854  11.530  68.446  1.00  0.00    -0.283 C  
HETATM    4  N   UNL     1     -10.810  12.555  68.338  1.00  0.00    -0.233 NA 
HETATM    5  C   UNL     1     -11.814  14.780  68.124  1.00  0.00    -0.318 C  
HETATM    6  C   UNL     1     -11.240  13.764  69.130  1.00  0.00    -0.262 C  
HETATM    7  C   UNL     1     -12.347  13.239  70.087  1.00  0.00    -0.306 C  
HETATM    8  C   UNL     1     -10.236  14.535  69.994  1.00  0.00     0.373 C  
ENDROOT
BRANCH   4   9
HETATM    9  C   UNL     1      -9.506  12.198  68.040  1.00  0.00    -0.201 A  
HETATM   10  N   UNL     1      -9.136  10.957  68.496  1.00  0.00    -0.167 NA 
HETATM   11  C   UNL     1      -7.915  10.402  68.252  1.00  0.00    -0.111 A  
HETATM   12  C   UNL     1      -6.973  11.084  67.519  1.00  0.00    -0.086 A  
HETATM   13  C   UNL     1      -8.575  12.959  67.296  1.00  0.00    -0.205 A  
HETATM   14  C   UNL     1      -7.315  12.355  67.038  1.00  0.00    -0.016 A  
BRANCH  11  15
HETATM   15  N   UNL     1      -7.627   9.076  68.762  1.00  0.00    -0.086 NA 
HETATM   16  C   UNL     1      -6.600   8.247  68.328  1.00  0.00    -0.060 A  
HETATM   17  C   UNL     1      -6.680   7.079  69.040  1.00  0.00    -0.056 A  
HETATM   18  N   UNL     1      -8.345   8.469  69.770  1.00  0.00    -0.121 NA 
HETATM   19  C   UNL     1      -7.765   7.269  69.897  1.00  0.00    -0.103 A  
BRANCH  19  20
HETATM   20  O   UNL     1      -8.185   6.328  70.771  1.00  0.00    -0.121 OA 
BRANCH  20  21
HETATM   21  C   UNL     1      -9.273   6.687  71.620  1.00  0.00    -0.145 C  
BRANCH  21  22
HETATM   22  C   UNL     1     -10.465   5.719  71.380  1.00  0.00    -0.296 C  
HETATM   23  F   UNL     1     -11.556   4.644  73.230  1.00  0.00    -0.360 F  
HETATM   24  F   UNL     1     -11.043   6.738  73.478  1.00  0.00    -0.273 F  
HETATM   25  C   UNL     1      -9.955   4.270  71.234  1.00  0.00    -0.230 C  
HETATM   26  C   UNL     1     -11.193   6.083  70.069  1.00  0.00    -0.425 C  
HETATM   27  C   UNL     1     -11.438   5.819  72.569  1.00  0.00    -0.296 C  
HETATM   28  F   UNL     1     -12.685   6.170  72.178  1.00  0.00    -0.374 F  
ENDBRANCH  21  22
ENDBRANCH  20  21
ENDBRANCH  19  20
ENDBRANCH  11  15
BRANCH  13  29
HETATM   29  C   UNL     1      -8.696  14.344  66.678  1.00  0.00    -0.099 C  
HETATM   30  H   UNL     1      -7.317  15.226  67.967  1.00  0.00     0.000 HD 
HETATM   31  N   UNL     1      -8.000  15.433  67.239  1.00  0.00    -0.184 N  
HETATM   32  O   UNL     1      -9.326  14.468  65.636  1.00  0.00    -0.145 OA 
BRANCH  31  33
HETATM   33  S   UNL     1      -8.204  17.062  66.803  1.00  0.00    -0.264 S  
HETATM   34  O   UNL     1      -7.442  17.290  65.601  1.00  0.00    -0.336 OA 
HETATM   35  O   UNL     1      -9.641  17.251  66.797  1.00  0.00    -0.252 OA 
BRANCH  33  36
HETATM   36  C   UNL     1      -7.628  18.270  67.919  1.00  0.00    -0.241 A  
HETATM   37  C   UNL     1      -6.303  18.606  68.160  1.00  0.00    -0.207 A  
HETATM   38  N   UNL     1      -6.312  19.670  69.011  1.00  0.00    -0.282 NA 
HETATM   39  N   UNL     1      -7.543  20.078  69.336  1.00  0.00    -0.027 NA 
HETATM   40  C   UNL     1      -5.203  20.421  69.548  1.00  0.00    -0.266 C  
HETATM   41  C   UNL     1      -8.361  19.285  68.628  1.00  0.00    -0.372 A  
HETATM   42  C   UNL     1      -9.799  19.677  68.673  1.00  0.00    -0.519 C  
ENDBRANCH  33  36
ENDBRANCH  31  33
ENDBRANCH  13  29
ENDBRANCH   4   9
TORSDOF 8
ENDMDL
MODEL       76
REMARK 921   NORMALIZED FREE ENERGY PREDICTED BY IDOCK:   -5.68 KCAL/MOL
REMARK 922        TOTAL FREE ENERGY PREDICTED BY IDOCK:   -9.97 KCAL/MOL
REMARK 923 INTER-LIGAND FREE ENERGY PREDICTED BY IDOCK:   -8.83 KCAL/MOL
REMARK 924 INTRA-LIGAND FREE ENERGY PREDICTED BY IDOCK:   -1.13 KCAL/MOL
REMARK 927      BINDING AFFINITY PREDICTED BY RF-SCORE:    0.00 PKD
ROOT
HETATM    1  C   UNL     1     -10.852  14.043  69.067  1.00  0.00    -0.268 C  
HETATM    2  C   UNL     1     -11.872  13.355  68.160  1.00  0.00    -0.396 C  
HETATM    3  C   UNL     1     -11.415  11.954  67.766  1.00  0.00    -0.319 C  
HETATM    4  N   UNL     1     -10.708  12.113  66.491  1.00  0.00    -0.247 NA 
HETATM    5  C   UNL     1     -12.281  12.697  64.707  1.00  0.00    -0.528 C  
HETATM    6  C   UNL     1     -11.310  13.281  65.750  1.00  0.00    -0.307 C  
HETATM    7  C   UNL     1     -12.076  14.087  66.836  1.00  0.00    -0.465 C  
HETATM    8  C   UNL     1     -10.422  14.278  65.000  1.00  0.00    -0.458 C  
ENDROOT
BRANCH   4   9
HETATM    9  C   UNL     1      -9.420  11.630  66.340  1.00  0.00    -0.217 A  
HETATM   10  N   UNL     1      -9.314  10.537  65.515  1.00  0.00    -0.189 NA 
HETATM   11  C   UNL     1      -8.125   9.953  65.193  1.00  0.00    -0.138 A  
HETATM   12  C   UNL     1      -6.945  10.447  65.698  1.00  0.00    -0.132 A  
HETATM   13  C   UNL     1      -8.245  12.173  66.909  1.00  0.00    -0.134 A  
HETATM   14  C   UNL     1      -7.015  11.561  66.547  1.00  0.00    -0.009 A  
BRANCH  11  15
HETATM   15  N   UNL     1      -8.117   8.814  64.296  1.00  0.00    -0.150 NA 
HETATM   16  C   UNL     1      -8.334   8.861  62.925  1.00  0.00    -0.198 A  
HETATM   17  C   UNL     1      -8.266   7.579  62.449  1.00  0.00    -0.089 A  
HETATM   18  N   UNL     1      -7.874   7.520  64.703  1.00  0.00    -0.125 NA 
HETATM   19  C   UNL     1      -7.991   6.804  63.577  1.00  0.00    -0.067 A  
BRANCH  19  20
HETATM   20  O   UNL     1      -7.855   5.461  63.531  1.00  0.00    -0.080 OA 
BRANCH  20  21
HETATM   21  C   UNL     1      -7.803   4.782  64.784  1.00  0.00    -0.092 C  
BRANCH  21  22
HETATM   22  C   UNL     1      -9.028   3.836  64.918  1.00  0.00    -0.126 C  
HETATM   23  F   UNL     1     -10.073   3.486  67.051  1.00  0.00    -0.131 F  
HETATM   24  F   UNL     1      -9.496   5.521  66.565  1.00  0.00    -0.132 F  
HETATM   25  C   UNL     1      -8.563   2.404  65.254  1.00  0.00    -0.111 C  
HETATM   26  C   UNL     1      -9.798   3.766  63.582  1.00  0.00    -0.168 C  
HETATM   27  C   UNL     1      -9.951   4.366  66.031  1.00  0.00    -0.240 C  
HETATM   28  F   UNL     1     -11.202   4.613  65.580  1.00  0.00    -0.343 F  
ENDBRANCH  21  22
ENDBRANCH  20  21
ENDBRANCH  19  20
ENDBRANCH  11  15
BRANCH  13  29
HETATM   29  C   UNL     1      -8.054  13.353  67.850  1.00  0.00    -0.162 C  
HETATM   30  H   UNL     1      -8.291  14.795  66.365  1.00  0.00     0.000 HD 
HETATM   31  N   UNL     1      -8.033  14.668  67.343  1.00  0.00    -0.190 N  
HETATM   32  O   UNL     1      -8.018  13.142  69.055  1.00  0.00     0.086 OA 
BRANCH  31  33
HETATM   33  S   UNL     1      -7.614  16.057  68.225  1.00  0.00    -0.142 S  
HETATM   34  O   UNL     1      -8.119  15.892  69.564  1.00  0.00    -0.220 OA 
HETATM   35  O   UNL     1      -6.189  16.203  68.001  1.00  0.00    -0.111 OA 
BRANCH  33  36
HETATM   36  C   UNL     1      -8.279  17.577  67.692  1.00  0.00    -0.215 A  
HETATM   37  C   UNL     1      -9.333  17.751  66.805  1.00  0.00    -0.280 A  
HETATM   38  N   UNL     1      -9.598  19.087  66.761  1.00  0.00    -0.319 NA 
HETATM   39  N   UNL     1      -8.815  19.809  67.569  1.00  0.00    -0.317 NA 
HETATM   40  C   UNL     1     -10.616  19.793  66.021  1.00  0.00    -0.468 C  
HETATM   41  C   UNL     1      -8.051  18.904  68.199  1.00  0.00    -0.302 A  
HETATM   42  C   UNL     1      -7.219  19.456  69.306  1.00  0.00    -0.336 C  
ENDBRANCH  33  36
ENDBRANCH  31  33
ENDBRANCH  13  29
ENDBRANCH   4   9
TORSDOF 8
ENDMDL
MODEL       77
REMARK 921   NORMALIZED FREE ENERGY PREDICTED BY IDOCK:   -5.67 KCAL/MOL
REMARK 922        TOTAL FREE ENERGY PREDICTED BY IDOCK:   -9.95 KCAL/MOL
REMARK 923 INTER-LIGAND FREE ENERGY PREDICTED BY IDOCK:   -7.84 KCAL/MOL
REMARK 924 INTRA-LIGAND FREE ENERGY PREDICTED BY IDOCK:   -2.11 KCAL/MOL
REMARK 927      BINDING AFFINITY PREDICTED BY RF-SCORE:    0.00 PKD
ROOT
HETATM    1  C   UNL     1      -5.144   8.694  69.477  1.00  0.00    -0.031 C  
HETATM    2  C   UNL     1      -5.506  10.174  69.601  1.00  0.00    -0.038 C  
HETATM    3  C   UNL     1      -7.010  10.370  69.764  1.00  0.00    -0.138 C  
HETATM    4  N   UNL     1      -7.529  10.577  68.408  1.00  0.00    -0.088 NA 
HETATM    5  C   UNL     1      -6.788  12.739  67.527  1.00  0.00    -0.153 C  
HETATM    6  C   UNL     1      -6.456  11.236  67.577  1.00  0.00    -0.072 C  
HETATM    7  C   UNL     1      -5.137  10.980  68.358  1.00  0.00    -0.040 C  
HETATM    8  C   UNL     1      -6.206  10.802  66.129  1.00  0.00    -0.134 C  
ENDROOT
BRANCH   4   9
HETATM    9  C   UNL     1      -8.565   9.793  67.927  1.00  0.00    -0.125 A  
HETATM   10  N   UNL     1      -8.418   8.448  68.163  1.00  0.00    -0.131 NA 
HETATM   11  C   UNL     1      -9.358   7.521  67.820  1.00  0.00    -0.141 A  
HETATM   12  C   UNL     1     -10.525   7.905  67.204  1.00  0.00    -0.414 A  
HETATM   13  C   UNL     1      -9.734  10.251  67.277  1.00  0.00    -0.199 A  
HETATM   14  C   UNL     1     -10.708   9.270  66.945  1.00  0.00    -0.164 A  
BRANCH  11  15
HETATM   15  N   UNL     1      -9.118   6.125  68.130  1.00  0.00    -0.113 NA 
HETATM   16  C   UNL     1      -9.182   5.073  67.226  1.00  0.00    -0.121 A  
HETATM   17  C   UNL     1      -8.914   3.918  67.912  1.00  0.00    -0.155 A  
HETATM   18  N   UNL     1      -8.778   5.666  69.384  1.00  0.00    -0.108 NA 
HETATM   19  C   UNL     1      -8.684   4.340  69.223  1.00  0.00    -0.084 A  
BRANCH  19  20
HETATM   20  O   UNL     1      -8.391   3.486  70.229  1.00  0.00    -0.055 OA 
BRANCH  20  21
HETATM   21  C   UNL     1      -9.496   2.975  70.974  1.00  0.00    -0.158 C  
BRANCH  21  22
HETATM   22  C   UNL     1      -9.393   3.446  72.451  1.00  0.00    -0.165 C  
HETATM   23  F   UNL     1      -9.529   5.780  73.000  1.00  0.00    -0.148 F  
HETATM   24  F   UNL     1     -10.920   5.043  71.505  1.00  0.00    -0.230 F  
HETATM   25  C   UNL     1      -7.927   3.760  72.811  1.00  0.00    -0.081 C  
HETATM   26  C   UNL     1      -9.870   2.328  73.402  1.00  0.00    -0.150 C  
HETATM   27  C   UNL     1     -10.264   4.703  72.637  1.00  0.00    -0.184 C  
HETATM   28  F   UNL     1     -11.204   4.534  73.595  1.00  0.00    -0.319 F  
ENDBRANCH  21  22
ENDBRANCH  20  21
ENDBRANCH  19  20
ENDBRANCH  11  15
BRANCH  13  29
HETATM   29  C   UNL     1     -10.163  11.656  66.882  1.00  0.00    -0.214 C  
HETATM   30  H   UNL     1     -11.136  12.049  68.682  1.00  0.00     0.000 HD 
HETATM   31  N   UNL     1     -10.976  12.418  67.745  1.00  0.00    -0.218 N  
HETATM   32  O   UNL     1      -9.709  12.140  65.854  1.00  0.00    -0.241 OA 
BRANCH  31  33
HETATM   33  S   UNL     1     -11.710  13.898  67.354  1.00  0.00    -0.410 S  
HETATM   34  O   UNL     1     -12.612  13.661  66.256  1.00  0.00    -0.391 OA 
HETATM   35  O   UNL     1     -12.222  14.386  68.620  1.00  0.00    -0.267 OA 
BRANCH  33  36
HETATM   36  C   UNL     1     -10.676  15.185  66.797  1.00  0.00    -0.311 A  
HETATM   37  C   UNL     1      -9.468  15.575  67.360  1.00  0.00    -0.211 A  
HETATM   38  N   UNL     1      -8.942  16.533  66.546  1.00  0.00    -0.254 NA 
HETATM   39  N   UNL     1      -9.699  16.792  65.476  1.00  0.00    -0.515 NA 
HETATM   40  C   UNL     1      -7.690  17.243  66.659  1.00  0.00    -0.263 C  
HETATM   41  C   UNL     1     -10.726  15.935  65.570  1.00  0.00    -0.372 A  
HETATM   42  C   UNL     1     -11.617  15.898  64.375  1.00  0.00    -0.234 C  
ENDBRANCH  33  36
ENDBRANCH  31  33
ENDBRANCH  13  29
ENDBRANCH   4   9
TORSDOF 8
ENDMDL
MODEL       78
REMARK 921   NORMALIZED FREE ENERGY PREDICTED BY IDOCK:   -5.63 KCAL/MOL
REMARK 922        TOTAL FREE ENERGY PREDICTED BY IDOCK:   -9.89 KCAL/MOL
REMARK 923 INTER-LIGAND FREE ENERGY PREDICTED BY IDOCK:   -9.02 KCAL/MOL
REMARK 924 INTRA-LIGAND FREE ENERGY PREDICTED BY IDOCK:   -0.87 KCAL/MOL
REMARK 927      BINDING AFFINITY PREDICTED BY RF-SCORE:    0.00 PKD
ROOT
HETATM    1  C   UNL     1     -13.454  10.352  70.460  1.00  0.00     0.221 C  
HETATM    2  C   UNL     1     -12.161  10.477  71.266  1.00  0.00    -0.472 C  
HETATM    3  C   UNL     1     -11.036  11.078  70.430  1.00  0.00     0.121 C  
HETATM    4  N   UNL     1     -10.317   9.934  69.858  1.00  0.00    -0.241 NA 
HETATM    5  C   UNL     1      -9.108   8.720  71.608  1.00  0.00    -0.314 C  
HETATM    6  C   UNL     1     -10.426   8.772  70.812  1.00  0.00    -0.219 C  
HETATM    7  C   UNL     1     -11.624   9.127  71.736  1.00  0.00    -0.457 C  
HETATM    8  C   UNL     1     -10.671   7.350  70.294  1.00  0.00    -0.250 C  
ENDROOT
BRANCH   4   9
HETATM    9  C   UNL     1     -10.110   9.850  68.491  1.00  0.00    -0.168 A  
HETATM   10  N   UNL     1      -9.601   8.648  68.065  1.00  0.00    -0.147 NA 
HETATM   11  C   UNL     1      -9.383   8.350  66.752  1.00  0.00    -0.184 A  
HETATM   12  C   UNL     1      -9.671   9.269  65.771  1.00  0.00    -0.339 A  
HETATM   13  C   UNL     1     -10.407  10.846  67.533  1.00  0.00    -0.237 A  
HETATM   14  C   UNL     1     -10.190  10.508  66.170  1.00  0.00    -0.299 A  
BRANCH  11  15
HETATM   15  N   UNL     1      -8.861   7.044  66.402  1.00  0.00    -0.141 NA 
HETATM   16  C   UNL     1      -8.331   6.688  65.169  1.00  0.00    -0.088 A  
HETATM   17  C   UNL     1      -7.971   5.368  65.236  1.00  0.00    -0.109 A  
HETATM   18  N   UNL     1      -8.814   5.978  67.275  1.00  0.00    -0.108 NA 
HETATM   19  C   UNL     1      -8.295   4.986  66.539  1.00  0.00    -0.107 A  
BRANCH  19  20
HETATM   20  O   UNL     1      -8.099   3.734  67.009  1.00  0.00    -0.094 OA 
BRANCH  20  21
HETATM   21  C   UNL     1      -7.406   3.620  68.250  1.00  0.00    -0.054 C  
BRANCH  21  22
HETATM   22  C   UNL     1      -8.261   2.798  69.253  1.00  0.00    -0.074 C  
HETATM   23  F   UNL     1      -8.262   3.346  71.591  1.00  0.00    -0.061 F  
HETATM   24  F   UNL     1      -8.342   5.007  70.195  1.00  0.00    -0.080 F  
HETATM   25  C   UNL     1      -7.429   1.638  69.839  1.00  0.00    -0.036 C  
HETATM   26  C   UNL     1      -9.476   2.174  68.534  1.00  0.00    -0.214 C  
HETATM   27  C   UNL     1      -8.739   3.729  70.383  1.00  0.00    -0.079 C  
HETATM   28  F   UNL     1     -10.088   3.751  70.488  1.00  0.00    -0.251 F  
ENDBRANCH  21  22
ENDBRANCH  20  21
ENDBRANCH  19  20
ENDBRANCH  11  15
BRANCH  13  29
HETATM   29  C   UNL     1     -10.963  12.252  67.704  1.00  0.00    -0.244 C  
HETATM   30  H   UNL     1      -9.108  13.124  68.077  1.00  0.00     0.000 HD 
HETATM   31  N   UNL     1     -10.111  13.311  68.073  1.00  0.00    -0.229 N  
HETATM   32  O   UNL     1     -12.136  12.456  67.420  1.00  0.00    -0.505 OA 
BRANCH  31  33
HETATM   33  S   UNL     1     -10.614  14.872  68.513  1.00  0.00    -0.253 S  
HETATM   34  O   UNL     1     -11.966  14.774  69.001  1.00  0.00    -0.305 OA 
HETATM   35  O   UNL     1      -9.561  15.351  69.388  1.00  0.00    -0.246 OA 
BRANCH  33  36
HETATM   36  C   UNL     1     -10.691  16.075  67.254  1.00  0.00    -0.295 A  
HETATM   37  C   UNL     1     -10.607  17.451  67.421  1.00  0.00    -0.308 A  
HETATM   38  N   UNL     1     -10.596  18.001  66.175  1.00  0.00    -0.329 NA 
HETATM   39  N   UNL     1     -10.643  17.094  65.194  1.00  0.00    -0.682 NA 
HETATM   40  C   UNL     1     -10.489  19.388  65.789  1.00  0.00    -0.392 C  
HETATM   41  C   UNL     1     -10.632  15.910  65.826  1.00  0.00    -0.355 A  
HETATM   42  C   UNL     1     -10.482  14.729  64.929  1.00  0.00    -0.398 C  
ENDBRANCH  33  36
ENDBRANCH  31  33
ENDBRANCH  13  29
ENDBRANCH   4   9
TORSDOF 8
ENDMDL
MODEL       79
REMARK 921   NORMALIZED FREE ENERGY PREDICTED BY IDOCK:   -5.62 KCAL/MOL
REMARK 922        TOTAL FREE ENERGY PREDICTED BY IDOCK:   -9.89 KCAL/MOL
REMARK 923 INTER-LIGAND FREE ENERGY PREDICTED BY IDOCK:   -8.82 KCAL/MOL
REMARK 924 INTRA-LIGAND FREE ENERGY PREDICTED BY IDOCK:   -1.07 KCAL/MOL
REMARK 927      BINDING AFFINITY PREDICTED BY RF-SCORE:    0.00 PKD
ROOT
HETATM    1  C   UNL     1     -11.851  12.296  65.062  1.00  0.00    -0.412 C  
HETATM    2  C   UNL     1     -11.504  13.672  65.630  1.00  0.00    -0.320 C  
HETATM    3  C   UNL     1     -10.002  13.826  65.845  1.00  0.00    -0.293 C  
HETATM    4  N   UNL     1      -9.760  13.428  67.236  1.00  0.00    -0.226 NA 
HETATM    5  C   UNL     1     -10.705  15.081  68.777  1.00  0.00    -0.241 C  
HETATM    6  C   UNL     1     -10.988  13.753  68.050  1.00  0.00    -0.250 C  
HETATM    7  C   UNL     1     -12.124  13.920  67.003  1.00  0.00    -0.451 C  
HETATM    8  C   UNL     1     -11.505  12.781  69.115  1.00  0.00    -0.361 C  
ENDROOT
BRANCH   4   9
HETATM    9  C   UNL     1      -8.821  12.455  67.533  1.00  0.00    -0.181 A  
HETATM   10  N   UNL     1      -9.301  11.169  67.496  1.00  0.00    -0.166 NA 
HETATM   11  C   UNL     1      -8.518  10.071  67.701  1.00  0.00    -0.114 A  
HETATM   12  C   UNL     1      -7.176  10.210  67.962  1.00  0.00    -0.085 A  
HETATM   13  C   UNL     1      -7.452  12.667  67.818  1.00  0.00    -0.131 A  
HETATM   14  C   UNL     1      -6.651  11.508  68.009  1.00  0.00    -0.058 A  
BRANCH  11  15
HETATM   15  N   UNL     1      -9.116   8.753  67.622  1.00  0.00    -0.134 NA 
HETATM   16  C   UNL     1     -10.404   8.422  68.023  1.00  0.00    -0.215 A  
HETATM   17  C   UNL     1     -10.576   7.081  67.805  1.00  0.00    -0.298 A  
HETATM   18  N   UNL     1      -8.468   7.646  67.115  1.00  0.00    -0.120 NA 
HETATM   19  C   UNL     1      -9.363   6.660  67.259  1.00  0.00    -0.132 A  
BRANCH  19  20
HETATM   20  O   UNL     1      -9.120   5.378  66.907  1.00  0.00    -0.113 OA 
BRANCH  20  21
HETATM   21  C   UNL     1      -9.920   4.843  65.854  1.00  0.00    -0.203 C  
BRANCH  21  22
HETATM   22  C   UNL     1      -9.022   4.041  64.871  1.00  0.00    -0.134 C  
HETATM   23  F   UNL     1      -9.937   2.235  63.581  1.00  0.00    -0.118 F  
HETATM   24  F   UNL     1     -11.150   4.026  63.755  1.00  0.00    -0.257 F  
HETATM   25  C   UNL     1      -8.411   2.817  65.584  1.00  0.00    -0.101 C  
HETATM   26  C   UNL     1      -7.850   4.918  64.381  1.00  0.00    -0.088 C  
HETATM   27  C   UNL     1      -9.876   3.584  63.674  1.00  0.00    -0.162 C  
HETATM   28  F   UNL     1      -9.382   4.032  62.496  1.00  0.00    -0.096 F  
ENDBRANCH  21  22
ENDBRANCH  20  21
ENDBRANCH  19  20
ENDBRANCH  11  15
BRANCH  13  29
HETATM   29  C   UNL     1      -6.651  13.955  67.931  1.00  0.00    -0.161 C  
HETATM   30  H   UNL     1      -8.032  14.905  69.170  1.00  0.00     0.000 HD 
HETATM   31  N   UNL     1      -7.178  15.057  68.633  1.00  0.00    -0.110 N  
HETATM   32  O   UNL     1      -5.511  13.977  67.488  1.00  0.00    -0.340 OA 
BRANCH  31  33
HETATM   33  S   UNL     1      -6.509  16.618  68.660  1.00  0.00    -0.163 S  
HETATM   34  O   UNL     1      -6.113  16.900  70.017  1.00  0.00    -0.228 OA 
HETATM   35  O   UNL     1      -5.515  16.597  67.605  1.00  0.00    -0.121 OA 
BRANCH  33  36
HETATM   36  C   UNL     1      -7.552  17.945  68.227  1.00  0.00    -0.266 A  
HETATM   37  C   UNL     1      -8.874  17.855  67.812  1.00  0.00    -0.251 A  
HETATM   38  N   UNL     1      -9.340  19.130  67.691  1.00  0.00    -0.299 NA 
HETATM   39  N   UNL     1      -8.434  20.057  68.015  1.00  0.00    -0.257 NA 
HETATM   40  C   UNL     1     -10.656  19.591  67.321  1.00  0.00    -0.490 C  
HETATM   41  C   UNL     1      -7.359  19.359  68.411  1.00  0.00    -0.312 A  
HETATM   42  C   UNL     1      -6.271  20.182  69.012  1.00  0.00    -0.361 C  
ENDBRANCH  33  36
ENDBRANCH  31  33
ENDBRANCH  13  29
ENDBRANCH   4   9
TORSDOF 8
ENDMDL
MODEL       80
REMARK 921   NORMALIZED FREE ENERGY PREDICTED BY IDOCK:   -5.60 KCAL/MOL
REMARK 922        TOTAL FREE ENERGY PREDICTED BY IDOCK:   -9.85 KCAL/MOL
REMARK 923 INTER-LIGAND FREE ENERGY PREDICTED BY IDOCK:   -8.29 KCAL/MOL
REMARK 924 INTRA-LIGAND FREE ENERGY PREDICTED BY IDOCK:   -1.56 KCAL/MOL
REMARK 927      BINDING AFFINITY PREDICTED BY RF-SCORE:    0.00 PKD
ROOT
HETATM    1  C   UNL     1      -5.180   9.762  66.968  1.00  0.00    -0.041 C  
HETATM    2  C   UNL     1      -6.159  10.542  66.090  1.00  0.00    -0.110 C  
HETATM    3  C   UNL     1      -7.245  11.214  66.924  1.00  0.00    -0.138 C  
HETATM    4  N   UNL     1      -8.362  10.264  66.956  1.00  0.00    -0.125 NA 
HETATM    5  C   UNL     1      -9.401  10.089  64.744  1.00  0.00    -0.330 C  
HETATM    6  C   UNL     1      -8.349   9.463  65.678  1.00  0.00    -0.124 C  
HETATM    7  C   UNL     1      -6.915   9.649  65.109  1.00  0.00    -0.106 C  
HETATM    8  C   UNL     1      -8.629   7.956  65.693  1.00  0.00    -0.159 C  
ENDROOT
BRANCH   4   9
HETATM    9  C   UNL     1      -8.905   9.861  68.164  1.00  0.00    -0.118 A  
HETATM   10  N   UNL     1      -8.206   8.864  68.799  1.00  0.00    -0.114 NA 
HETATM   11  C   UNL     1      -8.546   8.374  70.025  1.00  0.00    -0.131 A  
HETATM   12  C   UNL     1      -9.638   8.871  70.697  1.00  0.00    -0.262 A  
HETATM   13  C   UNL     1     -10.050  10.401  68.793  1.00  0.00    -0.198 A  
HETATM   14  C   UNL     1     -10.376   9.889  70.078  1.00  0.00    -0.320 A  
BRANCH  11  15
HETATM   15  N   UNL     1      -7.731   7.333  70.620  1.00  0.00    -0.091 NA 
HETATM   16  C   UNL     1      -6.344   7.289  70.615  1.00  0.00    -0.039 A  
HETATM   17  C   UNL     1      -5.961   6.140  71.258  1.00  0.00    -0.031 A  
HETATM   18  N   UNL     1      -8.248   6.244  71.289  1.00  0.00    -0.121 NA 
HETATM   19  C   UNL     1      -7.163   5.541  71.639  1.00  0.00    -0.085 A  
BRANCH  19  20
HETATM   20  O   UNL     1      -7.220   4.364  72.301  1.00  0.00    -0.059 OA 
BRANCH  20  21
HETATM   21  C   UNL     1      -8.339   3.527  72.018  1.00  0.00    -0.078 C  
BRANCH  21  22
HETATM   22  C   UNL     1      -9.126   3.245  73.328  1.00  0.00    -0.100 C  
HETATM   23  F   UNL     1     -10.608   4.899  74.240  1.00  0.00    -0.255 F  
HETATM   24  F   UNL     1     -10.661   4.618  72.089  1.00  0.00    -0.259 F  
HETATM   25  C   UNL     1      -8.322   3.733  74.550  1.00  0.00    -0.085 C  
HETATM   26  C   UNL     1      -9.348   1.727  73.502  1.00  0.00    -0.079 C  
HETATM   27  C   UNL     1     -10.482   3.971  73.263  1.00  0.00    -0.177 C  
HETATM   28  F   UNL     1     -11.524   3.119  73.400  1.00  0.00    -0.302 F  
ENDBRANCH  21  22
ENDBRANCH  20  21
ENDBRANCH  19  20
ENDBRANCH  11  15
BRANCH  13  29
HETATM   29  C   UNL     1     -11.012  11.488  68.338  1.00  0.00    -0.221 C  
HETATM   30  H   UNL     1      -9.651  13.043  68.608  1.00  0.00     0.000 HD 
HETATM   31  N   UNL     1     -10.628  12.843  68.393  1.00  0.00    -0.248 N  
HETATM   32  O   UNL     1     -12.077  11.155  67.835  1.00  0.00    -0.627 OA 
BRANCH  31  33
HETATM   33  S   UNL     1     -11.655  14.169  68.131  1.00  0.00    -0.350 S  
HETATM   34  O   UNL     1     -12.520  13.840  67.027  1.00  0.00    -0.315 OA 
HETATM   35  O   UNL     1     -12.221  14.444  69.438  1.00  0.00    -0.317 OA 
BRANCH  33  36
HETATM   36  C   UNL     1     -10.916  15.679  67.670  1.00  0.00    -0.315 A  
HETATM   37  C   UNL     1     -10.585  16.728  68.517  1.00  0.00    -0.354 A  
HETATM   38  N   UNL     1      -9.928  17.653  67.763  1.00  0.00    -0.302 NA 
HETATM   39  N   UNL     1      -9.779  17.287  66.486  1.00  0.00    -0.276 NA 
HETATM   40  C   UNL     1      -9.345  18.911  68.163  1.00  0.00    -0.325 C  
HETATM   41  C   UNL     1     -10.311  16.058  66.421  1.00  0.00    -0.305 A  
HETATM   42  C   UNL     1     -10.089  15.352  65.126  1.00  0.00    -0.299 C  
ENDBRANCH  33  36
ENDBRANCH  31  33
ENDBRANCH  13  29
ENDBRANCH   4   9
TORSDOF 8
ENDMDL
MODEL       81
REMARK 921   NORMALIZED FREE ENERGY PREDICTED BY IDOCK:   -5.59 KCAL/MOL
REMARK 922        TOTAL FREE ENERGY PREDICTED BY IDOCK:   -9.84 KCAL/MOL
REMARK 923 INTER-LIGAND FREE ENERGY PREDICTED BY IDOCK:   -8.68 KCAL/MOL
REMARK 924 INTRA-LIGAND FREE ENERGY PREDICTED BY IDOCK:   -1.15 KCAL/MOL
REMARK 927      BINDING AFFINITY PREDICTED BY RF-SCORE:    0.00 PKD
ROOT
HETATM    1  C   UNL     1     -10.191   9.376  66.719  1.00  0.00    -0.320 C  
HETATM    2  C   UNL     1      -9.724   7.923  66.648  1.00  0.00    -0.305 C  
HETATM    3  C   UNL     1     -10.570   7.019  67.539  1.00  0.00    -0.280 C  
HETATM    4  N   UNL     1      -9.865   6.959  68.823  1.00  0.00    -0.147 NA 
HETATM    5  C   UNL     1      -7.776   5.701  68.597  1.00  0.00    -0.092 C  
HETATM    6  C   UNL     1      -8.387   7.115  68.569  1.00  0.00    -0.125 C  
HETATM    7  C   UNL     1      -8.293   7.736  67.147  1.00  0.00    -0.118 C  
HETATM    8  C   UNL     1      -7.517   7.977  69.489  1.00  0.00    -0.092 C  
ENDROOT
BRANCH   4   9
HETATM    9  C   UNL     1     -10.526   7.270  70.000  1.00  0.00    -0.224 A  
HETATM   10  N   UNL     1     -11.007   8.555  70.061  1.00  0.00    -0.229 NA 
HETATM   11  C   UNL     1     -11.735   9.033  71.110  1.00  0.00    -0.302 A  
HETATM   12  C   UNL     1     -12.026   8.226  72.183  1.00  0.00    -0.429 A  
HETATM   13  C   UNL     1     -10.773   6.395  71.082  1.00  0.00    -0.293 A  
HETATM   14  C   UNL     1     -11.549   6.908  72.156  1.00  0.00    -0.322 A  
BRANCH  11  15
HETATM   15  N   UNL     1     -12.216  10.401  71.071  1.00  0.00    -0.358 NA 
HETATM   16  C   UNL     1     -11.860  11.357  70.129  1.00  0.00    -0.355 A  
HETATM   17  C   UNL     1     -12.509  12.520  70.452  1.00  0.00    -0.215 A  
HETATM   18  N   UNL     1     -13.113  10.924  71.977  1.00  0.00    -0.462 NA 
HETATM   19  C   UNL     1     -13.250  12.199  71.590  1.00  0.00    -0.258 A  
BRANCH  19  20
HETATM   20  O   UNL     1     -14.033  13.092  72.234  1.00  0.00    -0.505 OA 
BRANCH  20  21
HETATM   21  C   UNL     1     -13.962  14.444  71.783  1.00  0.00    -0.454 C  
BRANCH  21  22
HETATM   22  C   UNL     1     -12.872  15.206  72.586  1.00  0.00    -0.478 C  
HETATM   23  F   UNL     1     -10.610  15.302  71.786  1.00  0.00    -0.259 F  
HETATM   24  F   UNL     1     -12.182  15.563  70.312  1.00  0.00    -0.325 F  
HETATM   25  C   UNL     1     -12.162  14.249  73.565  1.00  0.00     0.225 C  
HETATM   26  C   UNL     1     -13.516  16.328  73.428  1.00  0.00    -0.246 C  
HETATM   27  C   UNL     1     -11.852  15.806  71.600  1.00  0.00    -0.464 C  
HETATM   28  F   UNL     1     -11.749  17.149  71.729  1.00  0.00    -0.162 F  
ENDBRANCH  21  22
ENDBRANCH  20  21
ENDBRANCH  19  20
ENDBRANCH  11  15
BRANCH  13  29
HETATM   29  C   UNL     1     -10.366   4.945  71.297  1.00  0.00    -0.148 C  
HETATM   30  H   UNL     1     -10.845   4.932  73.325  1.00  0.00     0.000 HD 
HETATM   31  N   UNL     1     -10.405   4.382  72.588  1.00  0.00    -0.183 N  
HETATM   32  O   UNL     1     -10.103   4.259  70.318  1.00  0.00    -0.191 OA 
BRANCH  31  33
HETATM   33  S   UNL     1      -9.780   2.863  73.019  1.00  0.00    -0.115 S  
HETATM   34  O   UNL     1      -9.832   2.761  74.455  1.00  0.00    -0.095 OA 
HETATM   35  O   UNL     1     -10.523   1.927  72.198  1.00  0.00    -0.157 OA 
BRANCH  33  36
HETATM   36  C   UNL     1      -8.115   2.538  72.619  1.00  0.00    -0.055 A  
HETATM   37  C   UNL     1      -7.650   1.897  71.478  1.00  0.00    -0.040 A  
HETATM   38  N   UNL     1      -6.289   1.960  71.516  1.00  0.00    -0.017 NA 
HETATM   39  N   UNL     1      -5.818   2.612  72.582  1.00  0.00    -0.008 NA 
HETATM   40  C   UNL     1      -5.325   1.475  70.557  1.00  0.00    -0.004 C  
HETATM   41  C   UNL     1      -6.912   3.034  73.233  1.00  0.00    -0.039 A  
HETATM   42  C   UNL     1      -6.641   3.963  74.367  1.00  0.00    -0.041 C  
ENDBRANCH  33  36
ENDBRANCH  31  33
ENDBRANCH  13  29
ENDBRANCH   4   9
TORSDOF 8
ENDMDL
MODEL       82
REMARK 921   NORMALIZED FREE ENERGY PREDICTED BY IDOCK:   -5.54 KCAL/MOL
REMARK 922        TOTAL FREE ENERGY PREDICTED BY IDOCK:   -9.76 KCAL/MOL
REMARK 923 INTER-LIGAND FREE ENERGY PREDICTED BY IDOCK:   -8.35 KCAL/MOL
REMARK 924 INTRA-LIGAND FREE ENERGY PREDICTED BY IDOCK:   -1.41 KCAL/MOL
REMARK 927      BINDING AFFINITY PREDICTED BY RF-SCORE:    0.00 PKD
ROOT
HETATM    1  C   UNL     1     -10.488  10.725  64.641  1.00  0.00    -0.346 C  
HETATM    2  C   UNL     1     -11.014  12.151  64.803  1.00  0.00    -0.356 C  
HETATM    3  C   UNL     1      -9.913  13.107  65.251  1.00  0.00    -0.168 C  
HETATM    4  N   UNL     1      -9.992  13.140  66.715  1.00  0.00    -0.244 NA 
HETATM    5  C   UNL     1     -12.035  14.283  67.437  1.00  0.00    -0.426 C  
HETATM    6  C   UNL     1     -11.424  12.904  67.125  1.00  0.00    -0.336 C  
HETATM    7  C   UNL     1     -12.094  12.266  65.876  1.00  0.00    -0.261 C  
HETATM    8  C   UNL     1     -11.762  12.004  68.319  1.00  0.00    -0.396 C  
ENDROOT
BRANCH   4   9
HETATM    9  C   UNL     1      -8.871  12.875  67.483  1.00  0.00    -0.192 A  
HETATM   10  N   UNL     1      -8.241  13.990  67.977  1.00  0.00    -0.143 NA 
HETATM   11  C   UNL     1      -7.157  13.936  68.802  1.00  0.00    -0.109 A  
HETATM   12  C   UNL     1      -6.631  12.724  69.184  1.00  0.00    -0.101 A  
HETATM   13  C   UNL     1      -8.366  11.598  67.822  1.00  0.00    -0.143 A  
HETATM   14  C   UNL     1      -7.247  11.563  68.697  1.00  0.00    -0.102 A  
BRANCH  11  15
HETATM   15  N   UNL     1      -6.574  15.172  69.286  1.00  0.00    -0.128 NA 
HETATM   16  C   UNL     1      -5.615  15.278  70.284  1.00  0.00    -0.140 A  
HETATM   17  C   UNL     1      -5.345  16.610  70.462  1.00  0.00    -0.197 A  
HETATM   18  N   UNL     1      -6.901  16.417  68.795  1.00  0.00    -0.153 NA 
HETATM   19  C   UNL     1      -6.164  17.256  69.534  1.00  0.00    -0.251 A  
BRANCH  19  20
HETATM   20  O   UNL     1      -6.201  18.600  69.397  1.00  0.00    -0.251 OA 
BRANCH  20  21
HETATM   21  C   UNL     1      -5.853  19.120  68.115  1.00  0.00    -0.208 C  
BRANCH  21  22
HETATM   22  C   UNL     1      -7.092  19.804  67.474  1.00  0.00    -0.268 C  
HETATM   23  F   UNL     1      -7.287  19.986  65.088  1.00  0.00    -0.313 F  
HETATM   24  F   UNL     1      -6.557  18.097  65.869  1.00  0.00    -0.222 F  
HETATM   25  C   UNL     1      -6.822  21.307  67.261  1.00  0.00    -0.341 C  
HETATM   26  C   UNL     1      -8.313  19.686  68.412  1.00  0.00    -0.346 C  
HETATM   27  C   UNL     1      -7.397  19.125  66.126  1.00  0.00    -0.271 C  
HETATM   28  F   UNL     1      -8.652  18.622  66.081  1.00  0.00    -0.297 F  
ENDBRANCH  21  22
ENDBRANCH  20  21
ENDBRANCH  19  20
ENDBRANCH  11  15
BRANCH  13  29
HETATM   29  C   UNL     1      -8.841  10.208  67.426  1.00  0.00    -0.131 C  
HETATM   30  H   UNL     1     -10.186  10.030  69.008  1.00  0.00     0.000 HD 
HETATM   31  N   UNL     1      -9.757   9.513  68.241  1.00  0.00    -0.145 N  
HETATM   32  O   UNL     1      -8.488   9.754  66.346  1.00  0.00    -0.122 OA 
BRANCH  31  33
HETATM   33  S   UNL     1     -10.206   7.886  68.051  1.00  0.00    -0.210 S  
HETATM   34  O   UNL     1     -10.903   7.484  69.246  1.00  0.00    -0.206 OA 
HETATM   35  O   UNL     1     -10.884   7.852  66.770  1.00  0.00    -0.234 OA 
BRANCH  33  36
HETATM   36  C   UNL     1      -8.927   6.715  67.878  1.00  0.00    -0.112 A  
HETATM   37  C   UNL     1      -8.833   5.734  66.901  1.00  0.00    -0.114 A  
HETATM   38  N   UNL     1      -7.627   5.122  67.068  1.00  0.00    -0.087 NA 
HETATM   39  N   UNL     1      -6.905   5.639  68.067  1.00  0.00    -0.062 NA 
HETATM   40  C   UNL     1      -7.026   4.059  66.298  1.00  0.00    -0.063 C  
HETATM   41  C   UNL     1      -7.645   6.656  68.531  1.00  0.00    -0.097 A  
HETATM   42  C   UNL     1      -6.958   7.518  69.534  1.00  0.00    -0.060 C  
ENDBRANCH  33  36
ENDBRANCH  31  33
ENDBRANCH  13  29
ENDBRANCH   4   9
TORSDOF 8
ENDMDL
MODEL       83
REMARK 921   NORMALIZED FREE ENERGY PREDICTED BY IDOCK:   -5.53 KCAL/MOL
REMARK 922        TOTAL FREE ENERGY PREDICTED BY IDOCK:   -9.75 KCAL/MOL
REMARK 923 INTER-LIGAND FREE ENERGY PREDICTED BY IDOCK:   -8.28 KCAL/MOL
REMARK 924 INTRA-LIGAND FREE ENERGY PREDICTED BY IDOCK:   -1.47 KCAL/MOL
REMARK 927      BINDING AFFINITY PREDICTED BY RF-SCORE:    0.00 PKD
ROOT
HETATM    1  C   UNL     1      -6.411  11.374  70.099  1.00  0.00    -0.099 C  
HETATM    2  C   UNL     1      -6.536   9.875  69.831  1.00  0.00    -0.080 C  
HETATM    3  C   UNL     1      -6.784   9.589  68.354  1.00  0.00    -0.058 C  
HETATM    4  N   UNL     1      -8.241   9.521  68.204  1.00  0.00    -0.113 NA 
HETATM    5  C   UNL     1      -9.123   7.517  69.302  1.00  0.00    -0.138 C  
HETATM    6  C   UNL     1      -8.834   9.018  69.496  1.00  0.00    -0.146 C  
HETATM    7  C   UNL     1      -7.721   9.241  70.557  1.00  0.00    -0.160 C  
HETATM    8  C   UNL     1     -10.118   9.632  70.063  1.00  0.00    -0.293 C  
ENDROOT
BRANCH   4   9
HETATM    9  C   UNL     1      -8.886  10.307  67.263  1.00  0.00    -0.132 A  
HETATM   10  N   UNL     1      -9.411  11.474  67.758  1.00  0.00    -0.164 NA 
HETATM   11  C   UNL     1     -10.030  12.407  66.980  1.00  0.00    -0.212 A  
HETATM   12  C   UNL     1     -10.160  12.211  65.626  1.00  0.00    -0.274 A  
HETATM   13  C   UNL     1      -9.005  10.035  65.880  1.00  0.00    -0.182 A  
HETATM   14  C   UNL     1      -9.638  11.028  65.085  1.00  0.00    -0.281 A  
BRANCH  11  15
HETATM   15  N   UNL     1     -10.535  13.619  67.596  1.00  0.00    -0.237 NA 
HETATM   16  C   UNL     1     -11.842  13.829  68.017  1.00  0.00    -0.373 A  
HETATM   17  C   UNL     1     -11.917  15.101  68.521  1.00  0.00    -0.243 A  
HETATM   18  N   UNL     1      -9.758  14.727  67.856  1.00  0.00    -0.209 NA 
HETATM   19  C   UNL     1     -10.620  15.602  68.391  1.00  0.00    -0.252 A  
BRANCH  19  20
HETATM   20  O   UNL     1     -10.273  16.851  68.772  1.00  0.00    -0.272 OA 
BRANCH  20  21
HETATM   21  C   UNL     1      -9.020  17.338  68.296  1.00  0.00    -0.262 C  
BRANCH  21  22
HETATM   22  C   UNL     1      -9.123  18.863  68.016  1.00  0.00    -0.340 C  
HETATM   23  F   UNL     1      -8.662  19.736  65.827  1.00  0.00    -0.355 F  
HETATM   24  F   UNL     1      -9.826  17.907  65.927  1.00  0.00    -0.276 F  
HETATM   25  C   UNL     1      -7.755  19.541  68.240  1.00  0.00    -0.356 C  
HETATM   26  C   UNL     1     -10.124  19.518  68.991  1.00  0.00    -0.444 C  
HETATM   27  C   UNL     1      -9.586  19.075  66.563  1.00  0.00    -0.351 C  
HETATM   28  F   UNL     1     -10.728  19.798  66.493  1.00  0.00    -0.519 F  
ENDBRANCH  21  22
ENDBRANCH  20  21
ENDBRANCH  19  20
ENDBRANCH  11  15
BRANCH  13  29
HETATM   29  C   UNL     1      -8.537   8.842  65.061  1.00  0.00    -0.176 C  
HETATM   30  H   UNL     1      -9.133   7.425  66.467  1.00  0.00     0.000 HD 
HETATM   31  N   UNL     1      -8.622   7.540  65.592  1.00  0.00    -0.139 N  
HETATM   32  O   UNL     1      -8.180   9.029  63.905  1.00  0.00    -0.155 OA 
BRANCH  31  33
HETATM   33  S   UNL     1      -7.945   6.147  64.896  1.00  0.00    -0.126 S  
HETATM   34  O   UNL     1      -8.525   5.986  63.587  1.00  0.00    -0.009 OA 
HETATM   35  O   UNL     1      -6.514   6.339  65.036  1.00  0.00    -0.037 OA 
BRANCH  33  36
HETATM   36  C   UNL     1      -8.242   4.626  65.694  1.00  0.00    -0.115 A  
HETATM   37  C   UNL     1      -8.798   4.450  66.953  1.00  0.00    -0.114 A  
HETATM   38  N   UNL     1      -8.956   3.108  67.133  1.00  0.00    -0.146 NA 
HETATM   39  N   UNL     1      -8.567   2.383  66.080  1.00  0.00    -0.105 NA 
HETATM   40  C   UNL     1      -9.519   2.396  68.255  1.00  0.00    -0.162 C  
HETATM   41  C   UNL     1      -8.193   3.289  65.164  1.00  0.00    -0.094 A  
HETATM   42  C   UNL     1      -7.897   2.724  63.816  1.00  0.00    -0.080 C  
ENDBRANCH  33  36
ENDBRANCH  31  33
ENDBRANCH  13  29
ENDBRANCH   4   9
TORSDOF 8
ENDMDL
MODEL       84
REMARK 921   NORMALIZED FREE ENERGY PREDICTED BY IDOCK:   -5.48 KCAL/MOL
REMARK 922        TOTAL FREE ENERGY PREDICTED BY IDOCK:   -9.68 KCAL/MOL
REMARK 923 INTER-LIGAND FREE ENERGY PREDICTED BY IDOCK:   -8.53 KCAL/MOL
REMARK 924 INTRA-LIGAND FREE ENERGY PREDICTED BY IDOCK:   -1.15 KCAL/MOL
REMARK 927      BINDING AFFINITY PREDICTED BY RF-SCORE:    0.00 PKD
ROOT
HETATM    1  C   UNL     1     -11.681  12.032  65.282  1.00  0.00    -0.312 C  
HETATM    2  C   UNL     1     -11.454  13.508  65.609  1.00  0.00    -0.330 C  
HETATM    3  C   UNL     1     -10.006  13.776  66.007  1.00  0.00    -0.306 C  
HETATM    4  N   UNL     1      -9.973  13.668  67.469  1.00  0.00    -0.227 NA 
HETATM    5  C   UNL     1     -11.177  15.538  68.495  1.00  0.00    -0.334 C  
HETATM    6  C   UNL     1     -11.317  14.082  68.013  1.00  0.00    -0.293 C  
HETATM    7  C   UNL     1     -12.283  13.985  66.799  1.00  0.00    -0.439 C  
HETATM    8  C   UNL     1     -11.971  13.310  69.164  1.00  0.00    -0.343 C  
ENDROOT
BRANCH   4   9
HETATM    9  C   UNL     1      -9.070  12.820  68.088  1.00  0.00    -0.203 A  
HETATM   10  N   UNL     1      -9.572  11.580  68.397  1.00  0.00    -0.192 NA 
HETATM   11  C   UNL     1      -8.824  10.586  68.955  1.00  0.00    -0.169 A  
HETATM   12  C   UNL     1      -7.495  10.790  69.242  1.00  0.00    -0.135 A  
HETATM   13  C   UNL     1      -7.715  13.101  68.378  1.00  0.00    -0.138 A  
HETATM   14  C   UNL     1      -6.949  12.045  68.942  1.00  0.00    -0.104 A  
BRANCH  11  15
HETATM   15  N   UNL     1      -9.442   9.303  69.226  1.00  0.00    -0.156 NA 
HETATM   16  C   UNL     1     -10.787   9.095  69.504  1.00  0.00    -0.180 A  
HETATM   17  C   UNL     1     -10.964   7.754  69.722  1.00  0.00    -0.162 A  
HETATM   18  N   UNL     1      -8.757   8.106  69.227  1.00  0.00    -0.139 NA 
HETATM   19  C   UNL     1      -9.693   7.203  69.547  1.00  0.00    -0.157 A  
BRANCH  19  20
HETATM   20  O   UNL     1      -9.438   5.884  69.687  1.00  0.00    -0.140 OA 
BRANCH  20  21
HETATM   21  C   UNL     1      -9.890   5.271  70.893  1.00  0.00    -0.194 C  
BRANCH  21  22
HETATM   22  C   UNL     1      -8.755   4.396  71.493  1.00  0.00    -0.140 C  
HETATM   23  F   UNL     1      -6.545   5.290  71.776  1.00  0.00    -0.036 F  
HETATM   24  F   UNL     1      -8.202   6.588  72.308  1.00  0.00    -0.105 F  
HETATM   25  C   UNL     1      -7.987   3.673  70.367  1.00  0.00    -0.053 C  
HETATM   26  C   UNL     1      -9.348   3.309  72.414  1.00  0.00    -0.162 C  
HETATM   27  C   UNL     1      -7.796   5.298  72.291  1.00  0.00    -0.102 C  
HETATM   28  F   UNL     1      -7.686   4.908  73.582  1.00  0.00    -0.089 F  
ENDBRANCH  21  22
ENDBRANCH  20  21
ENDBRANCH  19  20
ENDBRANCH  11  15
BRANCH  13  29
HETATM   29  C   UNL     1      -6.896  14.364  68.160  1.00  0.00    -0.123 C  
HETATM   30  H   UNL     1      -7.864  15.452  69.651  1.00  0.00     0.000 HD 
HETATM   31  N   UNL     1      -7.191  15.533  68.889  1.00  0.00    -0.131 N  
HETATM   32  O   UNL     1      -5.924  14.312  67.418  1.00  0.00    -0.346 OA 
BRANCH  31  33
HETATM   33  S   UNL     1      -6.520  17.067  68.602  1.00  0.00    -0.181 S  
HETATM   34  O   UNL     1      -6.358  17.717  69.878  1.00  0.00    -0.186 OA 
HETATM   35  O   UNL     1      -5.361  16.799  67.773  1.00  0.00    -0.111 OA 
BRANCH  33  36
HETATM   36  C   UNL     1      -7.459  18.191  67.657  1.00  0.00    -0.218 A  
HETATM   37  C   UNL     1      -8.748  17.992  67.180  1.00  0.00    -0.243 A  
HETATM   38  N   UNL     1      -9.139  19.160  66.597  1.00  0.00    -0.322 NA 
HETATM   39  N   UNL     1      -8.216  20.124  66.672  1.00  0.00    -0.300 NA 
HETATM   40  C   UNL     1     -10.398  19.496  65.978  1.00  0.00    -0.511 C  
HETATM   41  C   UNL     1      -7.211  19.580  67.374  1.00  0.00    -0.215 A  
HETATM   42  C   UNL     1      -6.133  20.534  67.759  1.00  0.00    -0.300 C  
ENDBRANCH  33  36
ENDBRANCH  31  33
ENDBRANCH  13  29
ENDBRANCH   4   9
TORSDOF 8
ENDMDL
MODEL       85
REMARK 921   NORMALIZED FREE ENERGY PREDICTED BY IDOCK:   -5.48 KCAL/MOL
REMARK 922        TOTAL FREE ENERGY PREDICTED BY IDOCK:   -9.67 KCAL/MOL
REMARK 923 INTER-LIGAND FREE ENERGY PREDICTED BY IDOCK:   -8.97 KCAL/MOL
REMARK 924 INTRA-LIGAND FREE ENERGY PREDICTED BY IDOCK:   -0.70 KCAL/MOL
REMARK 927      BINDING AFFINITY PREDICTED BY RF-SCORE:    0.00 PKD
ROOT
HETATM    1  C   UNL     1     -13.922   8.979  71.049  1.00  0.00     0.016 C  
HETATM    2  C   UNL     1     -12.727   9.553  71.810  1.00  0.00    -0.492 C  
HETATM    3  C   UNL     1     -11.696  10.155  70.861  1.00  0.00    -0.378 C  
HETATM    4  N   UNL     1     -10.735   9.081  70.590  1.00  0.00    -0.223 NA 
HETATM    5  C   UNL     1      -9.413   8.589  72.593  1.00  0.00    -0.295 C  
HETATM    6  C   UNL     1     -10.667   8.180  71.798  1.00  0.00    -0.251 C  
HETATM    7  C   UNL     1     -11.962   8.492  72.598  1.00  0.00    -0.309 C  
HETATM    8  C   UNL     1     -10.599   6.657  71.640  1.00  0.00    -0.245 C  
ENDROOT
BRANCH   4   9
HETATM    9  C   UNL     1     -10.438   8.719  69.287  1.00  0.00    -0.219 A  
HETATM   10  N   UNL     1     -10.028   7.418  69.136  1.00  0.00    -0.169 NA 
HETATM   11  C   UNL     1      -9.747   6.857  67.925  1.00  0.00    -0.122 A  
HETATM   12  C   UNL     1      -9.863   7.593  66.770  1.00  0.00    -0.307 A  
HETATM   13  C   UNL     1     -10.558   9.537  68.139  1.00  0.00    -0.265 A  
HETATM   14  C   UNL     1     -10.277   8.927  66.887  1.00  0.00    -0.347 A  
BRANCH  11  15
HETATM   15  N   UNL     1      -9.340   5.466  67.868  1.00  0.00    -0.110 NA 
HETATM   16  C   UNL     1      -9.978   4.464  67.149  1.00  0.00    -0.137 A  
HETATM   17  C   UNL     1      -9.301   3.295  67.374  1.00  0.00    -0.242 A  
HETATM   18  N   UNL     1      -8.238   4.962  68.527  1.00  0.00    -0.084 NA 
HETATM   19  C   UNL     1      -8.256   3.658  68.226  1.00  0.00    -0.082 A  
BRANCH  19  20
HETATM   20  O   UNL     1      -7.351   2.772  68.697  1.00  0.00    -0.048 OA 
BRANCH  20  21
HETATM   21  C   UNL     1      -7.742   2.003  69.832  1.00  0.00    -0.042 C  
BRANCH  21  22
HETATM   22  C   UNL     1      -7.141   2.630  71.121  1.00  0.00    -0.033 C  
HETATM   23  F   UNL     1      -7.950   4.736  71.944  1.00  0.00    -0.093 F  
HETATM   24  F   UNL     1      -9.439   3.327  71.230  1.00  0.00    -0.171 F  
HETATM   25  C   UNL     1      -5.970   3.567  70.762  1.00  0.00    -0.018 C  
HETATM   26  C   UNL     1      -6.580   1.526  72.041  1.00  0.00    -0.015 C  
HETATM   27  C   UNL     1      -8.243   3.418  71.854  1.00  0.00    -0.063 C  
HETATM   28  F   UNL     1      -8.429   2.975  73.119  1.00  0.00    -0.075 F  
ENDBRANCH  21  22
ENDBRANCH  20  21
ENDBRANCH  19  20
ENDBRANCH  11  15
BRANCH  13  29
HETATM   29  C   UNL     1     -10.974  10.993  67.999  1.00  0.00    -0.258 C  
HETATM   30  H   UNL     1      -9.027  11.733  68.058  1.00  0.00     0.000 HD 
HETATM   31  N   UNL     1     -10.007  12.016  68.061  1.00  0.00    -0.191 N  
HETATM   32  O   UNL     1     -12.142  11.246  67.736  1.00  0.00    -0.631 OA 
BRANCH  31  33
HETATM   33  S   UNL     1     -10.337  13.680  68.142  1.00  0.00    -0.251 S  
HETATM   34  O   UNL     1      -9.084  14.364  68.339  1.00  0.00    -0.184 OA 
HETATM   35  O   UNL     1     -11.127  13.943  66.956  1.00  0.00    -0.291 OA 
BRANCH  33  36
HETATM   36  C   UNL     1     -11.347  14.235  69.449  1.00  0.00    -0.282 A  
HETATM   37  C   UNL     1     -12.130  13.445  70.280  1.00  0.00    -0.349 A  
HETATM   38  N   UNL     1     -12.657  14.269  71.229  1.00  0.00    -0.343 NA 
HETATM   39  N   UNL     1     -12.265  15.541  71.103  1.00  0.00    -0.360 NA 
HETATM   40  C   UNL     1     -13.514  13.947  72.345  1.00  0.00    -0.560 C  
HETATM   41  C   UNL     1     -11.412  15.533  70.069  1.00  0.00    -0.331 A  
HETATM   42  C   UNL     1     -10.684  16.816  69.853  1.00  0.00    -0.123 C  
ENDBRANCH  33  36
ENDBRANCH  31  33
ENDBRANCH  13  29
ENDBRANCH   4   9
TORSDOF 8
ENDMDL
MODEL       86
REMARK 921   NORMALIZED FREE ENERGY PREDICTED BY IDOCK:   -5.48 KCAL/MOL
REMARK 922        TOTAL FREE ENERGY PREDICTED BY IDOCK:   -9.67 KCAL/MOL
REMARK 923 INTER-LIGAND FREE ENERGY PREDICTED BY IDOCK:   -8.37 KCAL/MOL
REMARK 924 INTRA-LIGAND FREE ENERGY PREDICTED BY IDOCK:   -1.29 KCAL/MOL
REMARK 927      BINDING AFFINITY PREDICTED BY RF-SCORE:    0.00 PKD
ROOT
HETATM    1  C   UNL     1     -10.469  10.643  64.820  1.00  0.00    -0.280 C  
HETATM    2  C   UNL     1     -10.997  12.077  64.832  1.00  0.00    -0.356 C  
HETATM    3  C   UNL     1      -9.911  13.070  65.237  1.00  0.00    -0.170 C  
HETATM    4  N   UNL     1     -10.049  13.234  66.688  1.00  0.00    -0.260 NA 
HETATM    5  C   UNL     1     -12.115  14.436  67.222  1.00  0.00    -0.358 C  
HETATM    6  C   UNL     1     -11.497  13.035  67.059  1.00  0.00    -0.333 C  
HETATM    7  C   UNL     1     -12.118  12.287  65.846  1.00  0.00    -0.261 C  
HETATM    8  C   UNL     1     -11.885  12.246  68.314  1.00  0.00    -0.367 C  
ENDROOT
BRANCH   4   9
HETATM    9  C   UNL     1      -8.960  13.039  67.521  1.00  0.00    -0.193 A  
HETATM   10  N   UNL     1      -8.775  11.739  67.922  1.00  0.00    -0.157 NA 
HETATM   11  C   UNL     1      -7.726  11.335  68.694  1.00  0.00    -0.136 A  
HETATM   12  C   UNL     1      -6.783  12.241  69.119  1.00  0.00    -0.095 A  
HETATM   13  C   UNL     1      -8.036  14.024  67.941  1.00  0.00    -0.156 A  
HETATM   14  C   UNL     1      -6.941  13.578  68.730  1.00  0.00    -0.102 A  
BRANCH  11  15
HETATM   15  N   UNL     1      -7.607   9.934  69.048  1.00  0.00    -0.081 NA 
HETATM   16  C   UNL     1      -6.484   9.331  69.598  1.00  0.00    -0.040 A  
HETATM   17  C   UNL     1      -6.766   8.000  69.764  1.00  0.00    -0.040 A  
HETATM   18  N   UNL     1      -8.622   9.015  68.889  1.00  0.00    -0.130 NA 
HETATM   19  C   UNL     1      -8.078   7.865  69.308  1.00  0.00    -0.126 A  
BRANCH  19  20
HETATM   20  O   UNL     1      -8.734   6.683  69.295  1.00  0.00    -0.130 OA 
BRANCH  20  21
HETATM   21  C   UNL     1      -8.495   5.810  70.398  1.00  0.00    -0.129 C  
BRANCH  21  22
HETATM   22  C   UNL     1      -9.493   6.132  71.545  1.00  0.00    -0.161 C  
HETATM   23  F   UNL     1      -8.866   5.790  73.838  1.00  0.00    -0.125 F  
HETATM   24  F   UNL     1      -7.372   6.677  72.536  1.00  0.00    -0.084 F  
HETATM   25  C   UNL     1     -10.317   4.878  71.903  1.00  0.00    -0.259 C  
HETATM   26  C   UNL     1     -10.488   7.223  71.098  1.00  0.00    -0.221 C  
HETATM   27  C   UNL     1      -8.701   6.613  72.775  1.00  0.00    -0.122 C  
HETATM   28  F   UNL     1      -9.085   7.847  73.177  1.00  0.00    -0.209 F  
ENDBRANCH  21  22
ENDBRANCH  20  21
ENDBRANCH  19  20
ENDBRANCH  11  15
BRANCH  13  29
HETATM   29  C   UNL     1      -7.988  15.519  67.668  1.00  0.00    -0.151 C  
HETATM   30  H   UNL     1      -6.533  15.374  66.184  1.00  0.00     0.000 HD 
HETATM   31  N   UNL     1      -7.057  16.041  66.748  1.00  0.00    -0.143 N  
HETATM   32  O   UNL     1      -8.834  16.237  68.185  1.00  0.00    -0.178 OA 
BRANCH  31  33
HETATM   33  S   UNL     1      -6.736  17.691  66.503  1.00  0.00    -0.260 S  
HETATM   34  O   UNL     1      -5.473  17.792  65.816  1.00  0.00    -0.185 OA 
HETATM   35  O   UNL     1      -7.942  18.199  65.879  1.00  0.00    -0.513 OA 
BRANCH  33  36
HETATM   36  C   UNL     1      -6.543  18.691  67.917  1.00  0.00    -0.213 A  
HETATM   37  C   UNL     1      -6.294  18.251  69.210  1.00  0.00    -0.254 A  
HETATM   38  N   UNL     1      -6.100  19.361  69.976  1.00  0.00    -0.265 NA 
HETATM   39  N   UNL     1      -6.180  20.502  69.284  1.00  0.00    -0.307 NA 
HETATM   40  C   UNL     1      -5.779  19.460  71.380  1.00  0.00    -0.160 C  
HETATM   41  C   UNL     1      -6.380  20.117  68.015  1.00  0.00    -0.258 A  
HETATM   42  C   UNL     1      -6.308  21.218  67.013  1.00  0.00    -0.406 C  
ENDBRANCH  33  36
ENDBRANCH  31  33
ENDBRANCH  13  29
ENDBRANCH   4   9
TORSDOF 8
ENDMDL
MODEL       87
REMARK 921   NORMALIZED FREE ENERGY PREDICTED BY IDOCK:   -5.47 KCAL/MOL
REMARK 922        TOTAL FREE ENERGY PREDICTED BY IDOCK:   -9.66 KCAL/MOL
REMARK 923 INTER-LIGAND FREE ENERGY PREDICTED BY IDOCK:   -8.58 KCAL/MOL
REMARK 924 INTRA-LIGAND FREE ENERGY PREDICTED BY IDOCK:   -1.08 KCAL/MOL
REMARK 927      BINDING AFFINITY PREDICTED BY RF-SCORE:    0.00 PKD
ROOT
HETATM    1  C   UNL     1     -10.295  12.622  64.206  1.00  0.00    -0.399 C  
HETATM    2  C   UNL     1     -10.476  11.107  64.114  1.00  0.00    -0.442 C  
HETATM    3  C   UNL     1     -10.397  10.450  65.488  1.00  0.00    -0.195 C  
HETATM    4  N   UNL     1      -8.994  10.058  65.658  1.00  0.00    -0.163 NA 
HETATM    5  C   UNL     1      -8.429   8.220  64.140  1.00  0.00     0.021 C  
HETATM    6  C   UNL     1      -8.413   9.752  64.300  1.00  0.00    -0.178 C  
HETATM    7  C   UNL     1      -9.382  10.429  63.292  1.00  0.00    -0.335 C  
HETATM    8  C   UNL     1      -6.997  10.208  63.930  1.00  0.00    -0.103 C  
ENDROOT
BRANCH   4   9
HETATM    9  C   UNL     1      -8.284  10.463  66.775  1.00  0.00    -0.126 A  
HETATM   10  N   UNL     1      -7.889  11.778  66.754  1.00  0.00    -0.138 NA 
HETATM   11  C   UNL     1      -7.232  12.379  67.787  1.00  0.00    -0.119 A  
HETATM   12  C   UNL     1      -6.926  11.673  68.926  1.00  0.00    -0.109 A  
HETATM   13  C   UNL     1      -7.981   9.675  67.910  1.00  0.00    -0.098 A  
HETATM   14  C   UNL     1      -7.312  10.327  68.981  1.00  0.00    -0.092 A  
BRANCH  11  15
HETATM   15  N   UNL     1      -6.874  13.780  67.676  1.00  0.00    -0.172 NA 
HETATM   16  C   UNL     1      -5.625  14.321  67.950  1.00  0.00    -0.093 A  
HETATM   17  C   UNL     1      -5.704  15.674  67.746  1.00  0.00    -0.156 A  
HETATM   18  N   UNL     1      -7.748  14.764  67.264  1.00  0.00    -0.203 NA 
HETATM   19  C   UNL     1      -7.022  15.886  67.337  1.00  0.00    -0.200 A  
BRANCH  19  20
HETATM   20  O   UNL     1      -7.511  17.111  67.042  1.00  0.00    -0.162 OA 
BRANCH  20  21
HETATM   21  C   UNL     1      -8.756  17.462  67.643  1.00  0.00    -0.221 C  
BRANCH  21  22
HETATM   22  C   UNL     1      -8.728  18.955  68.070  1.00  0.00    -0.330 C  
HETATM   23  F   UNL     1      -7.696  20.607  66.665  1.00  0.00    -0.308 F  
HETATM   24  F   UNL     1      -8.915  19.106  65.679  1.00  0.00    -0.109 F  
HETATM   25  C   UNL     1      -7.437  19.261  68.857  1.00  0.00    -0.397 C  
HETATM   26  C   UNL     1      -9.918  19.267  69.002  1.00  0.00    -0.446 C  
HETATM   27  C   UNL     1      -8.800  19.837  66.810  1.00  0.00    -0.347 C  
HETATM   28  F   UNL     1      -9.859  20.680  66.838  1.00  0.00    -0.557 F  
ENDBRANCH  21  22
ENDBRANCH  20  21
ENDBRANCH  19  20
ENDBRANCH  11  15
BRANCH  13  29
HETATM   29  C   UNL     1      -8.278   8.214  68.210  1.00  0.00    -0.129 C  
HETATM   30  H   UNL     1     -10.262   8.551  68.751  1.00  0.00     0.000 HD 
HETATM   31  N   UNL     1      -9.534   7.838  68.727  1.00  0.00    -0.149 N  
HETATM   32  O   UNL     1      -7.445   7.371  67.902  1.00  0.00    -0.096 OA 
BRANCH  31  33
HETATM   33  S   UNL     1      -9.935   6.295  69.313  1.00  0.00    -0.162 S  
HETATM   34  O   UNL     1     -11.080   5.831  68.572  1.00  0.00    -0.210 OA 
HETATM   35  O   UNL     1      -8.688   5.558  69.257  1.00  0.00    -0.106 OA 
BRANCH  33  36
HETATM   36  C   UNL     1     -10.419   6.172  70.983  1.00  0.00    -0.229 A  
HETATM   37  C   UNL     1      -9.614   5.794  72.049  1.00  0.00    -0.150 A  
HETATM   38  N   UNL     1     -10.359   5.946  73.181  1.00  0.00    -0.198 NA 
HETATM   39  N   UNL     1     -11.587   6.417  72.947  1.00  0.00    -0.088 NA 
HETATM   40  C   UNL     1      -9.986   5.722  74.557  1.00  0.00    -0.278 C  
HETATM   41  C   UNL     1     -11.624   6.628  71.623  1.00  0.00    -0.304 A  
HETATM   42  C   UNL     1     -12.841   7.342  71.141  1.00  0.00    -0.305 C  
ENDBRANCH  33  36
ENDBRANCH  31  33
ENDBRANCH  13  29
ENDBRANCH   4   9
TORSDOF 8
ENDMDL
MODEL       88
REMARK 921   NORMALIZED FREE ENERGY PREDICTED BY IDOCK:   -5.43 KCAL/MOL
REMARK 922        TOTAL FREE ENERGY PREDICTED BY IDOCK:   -9.60 KCAL/MOL
REMARK 923 INTER-LIGAND FREE ENERGY PREDICTED BY IDOCK:   -7.94 KCAL/MOL
REMARK 924 INTRA-LIGAND FREE ENERGY PREDICTED BY IDOCK:   -1.66 KCAL/MOL
REMARK 927      BINDING AFFINITY PREDICTED BY RF-SCORE:    0.00 PKD
ROOT
HETATM    1  C   UNL     1     -10.474  10.282  65.231  1.00  0.00    -0.099 C  
HETATM    2  C   UNL     1     -10.890  11.720  64.921  1.00  0.00    -0.353 C  
HETATM    3  C   UNL     1      -9.731  12.692  65.117  1.00  0.00     0.001 C  
HETATM    4  N   UNL     1      -9.854  13.179  66.494  1.00  0.00    -0.260 NA 
HETATM    5  C   UNL     1     -11.821  14.622  66.721  1.00  0.00    -0.334 C  
HETATM    6  C   UNL     1     -11.313  13.176  66.878  1.00  0.00    -0.318 C  
HETATM    7  C   UNL     1     -11.991  12.231  65.848  1.00  0.00    -0.358 C  
HETATM    8  C   UNL     1     -11.759  12.712  68.268  1.00  0.00    -0.389 C  
ENDROOT
BRANCH   4   9
HETATM    9  C   UNL     1      -8.783  13.090  67.367  1.00  0.00    -0.205 A  
HETATM   10  N   UNL     1      -8.586  11.841  67.903  1.00  0.00    -0.148 NA 
HETATM   11  C   UNL     1      -7.550  11.538  68.736  1.00  0.00    -0.129 A  
HETATM   12  C   UNL     1      -6.631  12.498  69.086  1.00  0.00    -0.100 A  
HETATM   13  C   UNL     1      -7.884  14.129  67.704  1.00  0.00    -0.190 A  
HETATM   14  C   UNL     1      -6.801  13.786  68.559  1.00  0.00    -0.097 A  
BRANCH  11  15
HETATM   15  N   UNL     1      -7.418  10.182  69.234  1.00  0.00    -0.099 NA 
HETATM   16  C   UNL     1      -7.278   9.820  70.567  1.00  0.00    -0.120 A  
HETATM   17  C   UNL     1      -7.162   8.456  70.618  1.00  0.00    -0.051 A  
HETATM   18  N   UNL     1      -7.429   9.065  68.428  1.00  0.00    -0.082 NA 
HETATM   19  C   UNL     1      -7.254   8.051  69.285  1.00  0.00    -0.076 A  
BRANCH  19  20
HETATM   20  O   UNL     1      -7.174   6.757  68.903  1.00  0.00    -0.086 OA 
BRANCH  20  21
HETATM   21  C   UNL     1      -8.386   6.148  68.459  1.00  0.00    -0.114 C  
BRANCH  21  22
HETATM   22  C   UNL     1      -8.102   4.688  68.009  1.00  0.00    -0.088 C  
HETATM   23  F   UNL     1      -9.454   2.877  68.822  1.00  0.00    -0.208 F  
HETATM   24  F   UNL     1     -10.493   4.697  68.257  1.00  0.00    -0.116 F  
HETATM   25  C   UNL     1      -7.134   4.004  68.995  1.00  0.00    -0.050 C  
HETATM   26  C   UNL     1      -7.427   4.678  66.621  1.00  0.00    -0.086 C  
HETATM   27  C   UNL     1      -9.433   3.915  67.953  1.00  0.00    -0.173 C  
HETATM   28  F   UNL     1      -9.670   3.398  66.726  1.00  0.00    -0.212 F  
ENDBRANCH  21  22
ENDBRANCH  20  21
ENDBRANCH  19  20
ENDBRANCH  11  15
BRANCH  13  29
HETATM   29  C   UNL     1      -7.853  15.589  67.280  1.00  0.00    -0.204 C  
HETATM   30  H   UNL     1      -9.511  16.133  68.418  1.00  0.00     0.000 HD 
HETATM   31  N   UNL     1      -8.861  16.474  67.710  1.00  0.00    -0.196 N  
HETATM   32  O   UNL     1      -6.888  15.993  66.644  1.00  0.00    -0.224 OA 
BRANCH  31  33
HETATM   33  S   UNL     1      -9.083  18.061  67.149  1.00  0.00    -0.261 S  
HETATM   34  O   UNL     1      -9.654  17.981  65.828  1.00  0.00    -0.505 OA 
HETATM   35  O   UNL     1      -9.815  18.716  68.215  1.00  0.00    -0.331 OA 
BRANCH  33  36
HETATM   36  C   UNL     1      -7.661  19.049  66.949  1.00  0.00    -0.242 A  
HETATM   37  C   UNL     1      -7.247  19.671  65.780  1.00  0.00    -0.310 A  
HETATM   38  N   UNL     1      -6.160  20.429  66.099  1.00  0.00    -0.188 NA 
HETATM   39  N   UNL     1      -5.837  20.374  67.394  1.00  0.00    -0.178 NA 
HETATM   40  C   UNL     1      -5.372  21.297  65.256  1.00  0.00    -0.147 C  
HETATM   41  C   UNL     1      -6.778  19.594  67.946  1.00  0.00    -0.240 A  
HETATM   42  C   UNL     1      -6.744  19.537  69.435  1.00  0.00    -0.372 C  
ENDBRANCH  33  36
ENDBRANCH  31  33
ENDBRANCH  13  29
ENDBRANCH   4   9
TORSDOF 8
ENDMDL
MODEL       89
REMARK 921   NORMALIZED FREE ENERGY PREDICTED BY IDOCK:   -5.43 KCAL/MOL
REMARK 922        TOTAL FREE ENERGY PREDICTED BY IDOCK:   -9.60 KCAL/MOL
REMARK 923 INTER-LIGAND FREE ENERGY PREDICTED BY IDOCK:   -8.95 KCAL/MOL
REMARK 924 INTRA-LIGAND FREE ENERGY PREDICTED BY IDOCK:   -0.64 KCAL/MOL
REMARK 927      BINDING AFFINITY PREDICTED BY RF-SCORE:    0.00 PKD
ROOT
HETATM    1  C   UNL     1     -11.056  15.752  69.423  1.00  0.00    -0.314 C  
HETATM    2  C   UNL     1     -11.736  14.668  68.587  1.00  0.00    -0.362 C  
HETATM    3  C   UNL     1     -11.215  13.279  68.942  1.00  0.00    -0.277 C  
HETATM    4  N   UNL     1     -10.119  13.017  68.002  1.00  0.00    -0.229 NA 
HETATM    5  C   UNL     1     -10.992  12.710  65.734  1.00  0.00    -0.313 C  
HETATM    6  C   UNL     1     -10.407  13.745  66.714  1.00  0.00    -0.272 C  
HETATM    7  C   UNL     1     -11.467  14.817  67.092  1.00  0.00    -0.375 C  
HETATM    8  C   UNL     1      -9.291  14.471  65.955  1.00  0.00    -0.196 C  
ENDROOT
BRANCH   4   9
HETATM    9  C   UNL     1      -8.868  12.651  68.469  1.00  0.00    -0.044 A  
HETATM   10  N   UNL     1      -8.724  11.309  68.721  1.00  0.00    -0.139 NA 
HETATM   11  C   UNL     1      -7.551  10.745  69.129  1.00  0.00    -0.133 A  
HETATM   12  C   UNL     1      -6.431  11.520  69.314  1.00  0.00    -0.103 A  
HETATM   13  C   UNL     1      -7.759  13.507  68.661  1.00  0.00    -0.093 A  
HETATM   14  C   UNL     1      -6.542  12.896  69.069  1.00  0.00    -0.102 A  
BRANCH  11  15
HETATM   15  N   UNL     1      -7.495   9.313  69.349  1.00  0.00    -0.075 NA 
HETATM   16  C   UNL     1      -6.913   8.385  68.496  1.00  0.00    -0.069 A  
HETATM   17  C   UNL     1      -7.088   7.144  69.049  1.00  0.00    -0.084 A  
HETATM   18  N   UNL     1      -8.012   8.688  70.463  1.00  0.00    -0.096 NA 
HETATM   19  C   UNL     1      -7.770   7.390  70.242  1.00  0.00    -0.093 A  
BRANCH  19  20
HETATM   20  O   UNL     1      -8.145   6.407  71.090  1.00  0.00    -0.114 OA 
BRANCH  20  21
HETATM   21  C   UNL     1      -9.207   6.713  71.991  1.00  0.00    -0.142 C  
BRANCH  21  22
HETATM   22  C   UNL     1     -10.407   5.761  71.730  1.00  0.00    -0.271 C  
HETATM   23  F   UNL     1     -12.617   6.643  71.406  1.00  0.00    -0.378 F  
HETATM   24  F   UNL     1     -10.989   7.695  70.428  1.00  0.00    -0.231 F  
HETATM   25  C   UNL     1     -11.086   5.379  73.062  1.00  0.00    -0.368 C  
HETATM   26  C   UNL     1      -9.918   4.453  71.073  1.00  0.00    -0.242 C  
HETATM   27  C   UNL     1     -11.416   6.469  70.807  1.00  0.00    -0.360 C  
HETATM   28  F   UNL     1     -11.646   5.769  69.672  1.00  0.00    -0.391 F  
ENDBRANCH  21  22
ENDBRANCH  20  21
ENDBRANCH  19  20
ENDBRANCH  11  15
BRANCH  13  29
HETATM   29  C   UNL     1      -7.623  15.010  68.474  1.00  0.00    -0.118 C  
HETATM   30  H   UNL     1      -6.330  14.864  66.848  1.00  0.00     0.000 HD 
HETATM   31  N   UNL     1      -6.746  15.527  67.501  1.00  0.00    -0.180 N  
HETATM   32  O   UNL     1      -8.359  15.749  69.115  1.00  0.00    -0.218 OA 
BRANCH  31  33
HETATM   33  S   UNL     1      -6.324  17.163  67.324  1.00  0.00    -0.176 S  
HETATM   34  O   UNL     1      -5.977  17.667  68.629  1.00  0.00    -0.171 OA 
HETATM   35  O   UNL     1      -5.338  17.163  66.261  1.00  0.00    -0.308 OA 
BRANCH  33  36
HETATM   36  C   UNL     1      -7.558  18.252  66.751  1.00  0.00    -0.222 A  
HETATM   37  C   UNL     1      -8.906  18.218  67.080  1.00  0.00    -0.266 A  
HETATM   38  N   UNL     1      -9.481  19.313  66.507  1.00  0.00    -0.342 NA 
HETATM   39  N   UNL     1      -8.613  20.081  65.842  1.00  0.00    -0.234 NA 
HETATM   40  C   UNL     1     -10.852  19.762  66.567  1.00  0.00    -0.293 C  
HETATM   41  C   UNL     1      -7.423  19.493  66.035  1.00  0.00    -0.299 A  
HETATM   42  C   UNL     1      -6.254  20.280  65.546  1.00  0.00    -0.260 C  
ENDBRANCH  33  36
ENDBRANCH  31  33
ENDBRANCH  13  29
ENDBRANCH   4   9
TORSDOF 8
ENDMDL
MODEL       90
REMARK 921   NORMALIZED FREE ENERGY PREDICTED BY IDOCK:   -5.42 KCAL/MOL
REMARK 922        TOTAL FREE ENERGY PREDICTED BY IDOCK:   -9.59 KCAL/MOL
REMARK 923 INTER-LIGAND FREE ENERGY PREDICTED BY IDOCK:   -7.87 KCAL/MOL
REMARK 924 INTRA-LIGAND FREE ENERGY PREDICTED BY IDOCK:   -1.72 KCAL/MOL
REMARK 927      BINDING AFFINITY PREDICTED BY RF-SCORE:    0.00 PKD
ROOT
HETATM    1  C   UNL     1      -8.123  11.242  66.576  1.00  0.00    -0.160 C  
HETATM    2  C   UNL     1      -7.614   9.805  66.683  1.00  0.00    -0.098 C  
HETATM    3  C   UNL     1      -8.675   8.877  67.266  1.00  0.00    -0.121 C  
HETATM    4  N   UNL     1      -8.421   8.848  68.710  1.00  0.00    -0.130 NA 
HETATM    5  C   UNL     1      -6.333   7.660  69.190  1.00  0.00    -0.036 C  
HETATM    6  C   UNL     1      -6.946   9.052  68.944  1.00  0.00    -0.065 C  
HETATM    7  C   UNL     1      -6.416   9.669  67.620  1.00  0.00    -0.061 C  
HETATM    8  C   UNL     1      -6.447   9.948  70.083  1.00  0.00    -0.093 C  
ENDROOT
BRANCH   4   9
HETATM    9  C   UNL     1      -9.436   9.142  69.605  1.00  0.00    -0.172 A  
HETATM   10  N   UNL     1      -9.997  10.385  69.443  1.00  0.00    -0.224 NA 
HETATM   11  C   UNL     1     -11.047  10.836  70.186  1.00  0.00    -0.223 A  
HETATM   12  C   UNL     1     -11.604  10.042  71.161  1.00  0.00    -0.460 A  
HETATM   13  C   UNL     1      -9.950   8.285  70.606  1.00  0.00    -0.204 A  
HETATM   14  C   UNL     1     -11.055   8.768  71.357  1.00  0.00    -0.361 A  
BRANCH  11  15
HETATM   15  N   UNL     1     -11.582  12.158  69.924  1.00  0.00    -0.263 NA 
HETATM   16  C   UNL     1     -12.491  12.837  70.725  1.00  0.00    -0.271 A  
HETATM   17  C   UNL     1     -12.760  14.038  70.123  1.00  0.00    -0.207 A  
HETATM   18  N   UNL     1     -11.236  12.922  68.830  1.00  0.00    -0.266 NA 
HETATM   19  C   UNL     1     -11.973  14.031  68.970  1.00  0.00    -0.357 A  
BRANCH  19  20
HETATM   20  O   UNL     1     -11.960  15.050  68.083  1.00  0.00    -0.299 OA 
BRANCH  20  21
HETATM   21  C   UNL     1     -11.276  16.236  68.485  1.00  0.00    -0.359 C  
BRANCH  21  22
HETATM   22  C   UNL     1     -10.081  16.500  67.529  1.00  0.00    -0.267 C  
HETATM   23  F   UNL     1     -10.212  18.220  65.858  1.00  0.00    -0.350 F  
HETATM   24  F   UNL     1     -11.004  18.700  67.821  1.00  0.00    -0.428 F  
HETATM   25  C   UNL     1     -10.232  15.664  66.241  1.00  0.00    -0.312 C  
HETATM   26  C   UNL     1      -8.756  16.076  68.198  1.00  0.00    -0.173 C  
HETATM   27  C   UNL     1     -10.040  18.000  67.182  1.00  0.00    -0.346 C  
HETATM   28  F   UNL     1      -8.859  18.568  67.519  1.00  0.00    -0.259 F  
ENDBRANCH  21  22
ENDBRANCH  20  21
ENDBRANCH  19  20
ENDBRANCH  11  15
BRANCH  13  29
HETATM   29  C   UNL     1      -9.534   6.880  71.017  1.00  0.00    -0.163 C  
HETATM   30  H   UNL     1      -8.928   6.316  69.105  1.00  0.00     0.000 HD 
HETATM   31  N   UNL     1      -9.091   5.960  70.046  1.00  0.00    -0.143 N  
HETATM   32  O   UNL     1      -9.500   6.605  72.209  1.00  0.00    -0.148 OA 
BRANCH  31  33
HETATM   33  S   UNL     1      -8.806   4.307  70.314  1.00  0.00    -0.090 S  
HETATM   34  O   UNL     1      -7.591   4.193  71.080  1.00  0.00    -0.052 OA 
HETATM   35  O   UNL     1     -10.056   3.815  70.860  1.00  0.00    -0.105 OA 
BRANCH  33  36
HETATM   36  C   UNL     1      -8.537   3.303  68.916  1.00  0.00    -0.080 A  
HETATM   37  C   UNL     1      -9.317   3.259  67.769  1.00  0.00    -0.197 A  
HETATM   38  N   UNL     1      -8.685   2.431  66.891  1.00  0.00    -0.117 NA 
HETATM   39  N   UNL     1      -7.534   1.940  67.360  1.00  0.00    -0.058 NA 
HETATM   40  C   UNL     1      -9.058   2.069  65.544  1.00  0.00    -0.084 C  
HETATM   41  C   UNL     1      -7.387   2.511  68.565  1.00  0.00    -0.048 A  
HETATM   42  C   UNL     1      -6.067   2.267  69.213  1.00  0.00    -0.024 C  
ENDBRANCH  33  36
ENDBRANCH  31  33
ENDBRANCH  13  29
ENDBRANCH   4   9
TORSDOF 8
ENDMDL
MODEL       91
REMARK 921   NORMALIZED FREE ENERGY PREDICTED BY IDOCK:   -5.39 KCAL/MOL
REMARK 922        TOTAL FREE ENERGY PREDICTED BY IDOCK:   -9.55 KCAL/MOL
REMARK 923 INTER-LIGAND FREE ENERGY PREDICTED BY IDOCK:   -8.33 KCAL/MOL
REMARK 924 INTRA-LIGAND FREE ENERGY PREDICTED BY IDOCK:   -1.22 KCAL/MOL
REMARK 927      BINDING AFFINITY PREDICTED BY RF-SCORE:    0.00 PKD
ROOT
HETATM    1  C   UNL     1     -10.354  12.561  64.392  1.00  0.00    -0.378 C  
HETATM    2  C   UNL     1     -10.417  11.037  64.288  1.00  0.00    -0.427 C  
HETATM    3  C   UNL     1     -10.398  10.381  65.665  1.00  0.00    -0.190 C  
HETATM    4  N   UNL     1      -8.987  10.091  65.943  1.00  0.00    -0.148 NA 
HETATM    5  C   UNL     1      -8.174   8.305  64.476  1.00  0.00    -0.138 C  
HETATM    6  C   UNL     1      -8.281   9.834  64.636  1.00  0.00    -0.150 C  
HETATM    7  C   UNL     1      -9.216  10.444  63.554  1.00  0.00    -0.310 C  
HETATM    8  C   UNL     1      -6.878  10.392  64.377  1.00  0.00     0.004 C  
ENDROOT
BRANCH   4   9
HETATM    9  C   UNL     1      -8.397  10.541  67.112  1.00  0.00    -0.127 A  
HETATM   10  N   UNL     1      -8.186  11.897  67.159  1.00  0.00    -0.165 NA 
HETATM   11  C   UNL     1      -7.672  12.538  68.247  1.00  0.00    -0.141 A  
HETATM   12  C   UNL     1      -7.330  11.832  69.376  1.00  0.00     0.136 A  
HETATM   13  C   UNL     1      -8.047   9.754  68.234  1.00  0.00    -0.104 A  
HETATM   14  C   UNL     1      -7.529  10.445  69.363  1.00  0.00    -0.135 A  
BRANCH  11  15
HETATM   15  N   UNL     1      -7.505  13.978  68.205  1.00  0.00    -0.111 NA 
HETATM   16  C   UNL     1      -6.416  14.652  67.670  1.00  0.00    -0.135 A  
HETATM   17  C   UNL     1      -6.630  15.994  67.844  1.00  0.00    -0.161 A  
HETATM   18  N   UNL     1      -8.436  14.871  68.692  1.00  0.00    -0.159 NA 
HETATM   19  C   UNL     1      -7.872  16.066  68.478  1.00  0.00    -0.160 A  
BRANCH  19  20
HETATM   20  O   UNL     1      -8.446  17.236  68.838  1.00  0.00    -0.257 OA 
BRANCH  20  21
HETATM   21  C   UNL     1      -7.851  18.424  68.320  1.00  0.00    -0.298 C  
BRANCH  21  22
HETATM   22  C   UNL     1      -8.762  19.027  67.215  1.00  0.00    -0.298 C  
HETATM   23  F   UNL     1     -11.134  19.189  67.544  1.00  0.00    -0.526 F  
HETATM   24  F   UNL     1      -9.874  19.713  69.232  1.00  0.00    -0.460 F  
HETATM   25  C   UNL     1      -9.276  17.913  66.280  1.00  0.00    -0.204 C  
HETATM   26  C   UNL     1      -7.962  20.021  66.346  1.00  0.00    -0.325 C  
HETATM   27  C   UNL     1      -9.948  19.746  67.882  1.00  0.00    -0.416 C  
HETATM   28  F   UNL     1     -10.018  21.050  67.528  1.00  0.00    -0.588 F  
ENDBRANCH  21  22
ENDBRANCH  20  21
ENDBRANCH  19  20
ENDBRANCH  11  15
BRANCH  13  29
HETATM   29  C   UNL     1      -8.155   8.255  68.466  1.00  0.00    -0.123 C  
HETATM   30  H   UNL     1      -9.975   8.060  67.471  1.00  0.00     0.000 HD 
HETATM   31  N   UNL     1      -9.304   7.555  68.049  1.00  0.00    -0.139 N  
HETATM   32  O   UNL     1      -7.189   7.663  68.930  1.00  0.00    -0.077 OA 
BRANCH  31  33
HETATM   33  S   UNL     1      -9.665   5.939  68.430  1.00  0.00    -0.135 S  
HETATM   34  O   UNL     1     -11.005   5.672  67.973  1.00  0.00    -0.172 OA 
HETATM   35  O   UNL     1      -8.550   5.188  67.885  1.00  0.00    -0.104 OA 
BRANCH  33  36
HETATM   36  C   UNL     1      -9.683   5.497  70.116  1.00  0.00    -0.182 A  
HETATM   37  C   UNL     1     -10.786   5.502  70.958  1.00  0.00    -0.173 A  
HETATM   38  N   UNL     1     -10.378   4.978  72.148  1.00  0.00    -0.210 NA 
HETATM   39  N   UNL     1      -9.094   4.606  72.151  1.00  0.00    -0.125 NA 
HETATM   40  C   UNL     1     -11.141   4.732  73.349  1.00  0.00    -0.344 C  
HETATM   41  C   UNL     1      -8.668   4.847  70.903  1.00  0.00    -0.120 A  
HETATM   42  C   UNL     1      -7.303   4.329  70.601  1.00  0.00    -0.048 C  
ENDBRANCH  33  36
ENDBRANCH  31  33
ENDBRANCH  13  29
ENDBRANCH   4   9
TORSDOF 8
ENDMDL
MODEL       92
REMARK 921   NORMALIZED FREE ENERGY PREDICTED BY IDOCK:   -5.35 KCAL/MOL
REMARK 922        TOTAL FREE ENERGY PREDICTED BY IDOCK:   -9.49 KCAL/MOL
REMARK 923 INTER-LIGAND FREE ENERGY PREDICTED BY IDOCK:   -9.59 KCAL/MOL
REMARK 924 INTRA-LIGAND FREE ENERGY PREDICTED BY IDOCK:    0.10 KCAL/MOL
REMARK 927      BINDING AFFINITY PREDICTED BY RF-SCORE:    0.00 PKD
ROOT
HETATM    1  C   UNL     1     -10.887  15.749  65.177  1.00  0.00    -0.444 C  
HETATM    2  C   UNL     1     -12.083  14.834  64.917  1.00  0.00    -0.335 C  
HETATM    3  C   UNL     1     -12.335  13.896  66.093  1.00  0.00    -0.465 C  
HETATM    4  N   UNL     1     -11.598  12.666  65.782  1.00  0.00    -0.365 NA 
HETATM    5  C   UNL     1     -12.649  11.489  63.908  1.00  0.00     0.022 C  
HETATM    6  C   UNL     1     -11.550  12.501  64.283  1.00  0.00    -0.371 C  
HETATM    7  C   UNL     1     -11.873  13.912  63.718  1.00  0.00    -0.234 C  
HETATM    8  C   UNL     1     -10.271  12.025  63.586  1.00  0.00    -0.470 C  
ENDROOT
BRANCH   4   9
HETATM    9  C   UNL     1     -10.691  12.145  66.688  1.00  0.00    -0.246 A  
HETATM   10  N   UNL     1     -10.476  10.794  66.568  1.00  0.00    -0.247 NA 
HETATM   11  C   UNL     1      -9.577  10.108  67.329  1.00  0.00    -0.159 A  
HETATM   12  C   UNL     1      -8.825  10.759  68.278  1.00  0.00    -0.139 A  
HETATM   13  C   UNL     1      -9.963  12.870  67.661  1.00  0.00    -0.218 A  
HETATM   14  C   UNL     1      -9.018  12.138  68.430  1.00  0.00    -0.146 A  
BRANCH  11  15
HETATM   15  N   UNL     1      -9.409   8.684  67.112  1.00  0.00    -0.146 NA 
HETATM   16  C   UNL     1      -8.939   8.092  65.947  1.00  0.00    -0.151 A  
HETATM   17  C   UNL     1      -8.951   6.735  66.135  1.00  0.00    -0.157 A  
HETATM   18  N   UNL     1      -9.691   7.726  68.062  1.00  0.00    -0.150 NA 
HETATM   19  C   UNL     1      -9.425   6.571  67.438  1.00  0.00    -0.124 A  
BRANCH  19  20
HETATM   20  O   UNL     1      -9.596   5.359  68.011  1.00  0.00    -0.117 OA 
BRANCH  20  21
HETATM   21  C   UNL     1     -10.166   5.346  69.318  1.00  0.00    -0.245 C  
BRANCH  21  22
HETATM   22  C   UNL     1      -9.185   4.659  70.309  1.00  0.00    -0.195 C  
HETATM   23  F   UNL     1      -9.619   2.439  71.114  1.00  0.00    -0.189 F  
HETATM   24  F   UNL     1      -9.983   2.805  69.005  1.00  0.00    -0.083 F  
HETATM   25  C   UNL     1      -9.613   4.941  71.764  1.00  0.00    -0.210 C  
HETATM   26  C   UNL     1      -7.761   5.228  70.132  1.00  0.00    -0.072 C  
HETATM   27  C   UNL     1      -9.185   3.143  70.042  1.00  0.00    -0.150 C  
HETATM   28  F   UNL     1      -7.948   2.678  69.749  1.00  0.00    -0.043 F  
ENDBRANCH  21  22
ENDBRANCH  20  21
ENDBRANCH  19  20
ENDBRANCH  11  15
BRANCH  13  29
HETATM   29  C   UNL     1      -9.993  14.347  68.024  1.00  0.00    -0.225 C  
HETATM   30  H   UNL     1      -8.294  14.828  66.918  1.00  0.00     0.000 HD 
HETATM   31  N   UNL     1      -8.963  15.204  67.590  1.00  0.00    -0.177 N  
HETATM   32  O   UNL     1     -10.973  14.786  68.612  1.00  0.00    -0.238 OA 
BRANCH  31  33
HETATM   33  S   UNL     1      -8.742  16.811  68.093  1.00  0.00    -0.226 S  
HETATM   34  O   UNL     1     -10.033  17.335  68.460  1.00  0.00    -0.283 OA 
HETATM   35  O   UNL     1      -7.684  16.732  69.081  1.00  0.00    -0.237 OA 
BRANCH  33  36
HETATM   36  C   UNL     1      -8.131  17.943  66.917  1.00  0.00    -0.229 A  
HETATM   37  C   UNL     1      -6.912  17.870  66.257  1.00  0.00    -0.275 A  
HETATM   38  N   UNL     1      -6.892  18.886  65.349  1.00  0.00    -0.478 NA 
HETATM   39  N   UNL     1      -8.013  19.612  65.341  1.00  0.00    -0.232 NA 
HETATM   40  C   UNL     1      -5.871  19.234  64.389  1.00  0.00    -0.282 C  
HETATM   41  C   UNL     1      -8.811  19.015  66.239  1.00  0.00    -0.277 A  
HETATM   42  C   UNL     1     -10.208  19.533  66.271  1.00  0.00    -0.582 C  
ENDBRANCH  33  36
ENDBRANCH  31  33
ENDBRANCH  13  29
ENDBRANCH   4   9
TORSDOF 8
ENDMDL
MODEL       93
REMARK 921   NORMALIZED FREE ENERGY PREDICTED BY IDOCK:   -5.35 KCAL/MOL
REMARK 922        TOTAL FREE ENERGY PREDICTED BY IDOCK:   -9.48 KCAL/MOL
REMARK 923 INTER-LIGAND FREE ENERGY PREDICTED BY IDOCK:   -8.73 KCAL/MOL
REMARK 924 INTRA-LIGAND FREE ENERGY PREDICTED BY IDOCK:   -0.75 KCAL/MOL
REMARK 927      BINDING AFFINITY PREDICTED BY RF-SCORE:    0.00 PKD
ROOT
HETATM    1  C   UNL     1     -10.386  10.920  63.790  1.00  0.00    -0.384 C  
HETATM    2  C   UNL     1     -11.119  12.236  64.051  1.00  0.00    -0.446 C  
HETATM    3  C   UNL     1     -10.151  13.345  64.450  1.00  0.00    -0.099 C  
HETATM    4  N   UNL     1     -10.110  13.325  65.916  1.00  0.00    -0.290 NA 
HETATM    5  C   UNL     1     -12.242  14.099  66.843  1.00  0.00    -0.400 C  
HETATM    6  C   UNL     1     -11.446  12.847  66.427  1.00  0.00    -0.341 C  
HETATM    7  C   UNL     1     -12.108  12.143  65.210  1.00  0.00    -0.257 C  
HETATM    8  C   UNL     1     -11.533  11.871  67.606  1.00  0.00    -0.387 C  
ENDROOT
BRANCH   4   9
HETATM    9  C   UNL     1      -8.901  13.225  66.581  1.00  0.00    -0.058 A  
HETATM   10  N   UNL     1      -8.466  14.396  67.152  1.00  0.00    -0.213 NA 
HETATM   11  C   UNL     1      -7.328  14.488  67.899  1.00  0.00    -0.156 A  
HETATM   12  C   UNL     1      -6.545  13.380  68.117  1.00  0.00    -0.118 A  
HETATM   13  C   UNL     1      -8.128  12.053  66.751  1.00  0.00    -0.081 A  
HETATM   14  C   UNL     1      -6.957  12.167  67.547  1.00  0.00    -0.138 A  
BRANCH  11  15
HETATM   15  N   UNL     1      -6.965  15.767  68.476  1.00  0.00    -0.114 NA 
HETATM   16  C   UNL     1      -6.000  15.969  69.455  1.00  0.00    -0.141 A  
HETATM   17  C   UNL     1      -5.974  17.308  69.744  1.00  0.00    -0.243 A  
HETATM   18  N   UNL     1      -7.536  16.966  68.106  1.00  0.00    -0.181 NA 
HETATM   19  C   UNL     1      -6.936  17.863  68.898  1.00  0.00    -0.260 A  
BRANCH  19  20
HETATM   20  O   UNL     1      -7.226  19.183  68.881  1.00  0.00    -0.318 OA 
BRANCH  20  21
HETATM   21  C   UNL     1      -7.681  19.721  67.641  1.00  0.00    -0.282 C  
BRANCH  21  22
HETATM   22  C   UNL     1      -9.229  19.858  67.667  1.00  0.00    -0.447 C  
HETATM   23  F   UNL     1     -10.493  19.807  65.626  1.00  0.00    -0.532 F  
HETATM   24  F   UNL     1      -8.874  18.373  65.812  1.00  0.00    -0.131 F  
HETATM   25  C   UNL     1      -9.636  21.339  67.524  1.00  0.00     0.066 C  
HETATM   26  C   UNL     1      -9.787  19.358  69.017  1.00  0.00    -0.487 C  
HETATM   27  C   UNL     1      -9.824  19.032  66.512  1.00  0.00    -0.369 C  
HETATM   28  F   UNL     1     -10.701  18.100  66.951  1.00  0.00    -0.369 F  
ENDBRANCH  21  22
ENDBRANCH  20  21
ENDBRANCH  19  20
ENDBRANCH  11  15
BRANCH  13  29
HETATM   29  C   UNL     1      -8.349  10.638  66.238  1.00  0.00    -0.155 C  
HETATM   30  H   UNL     1      -6.500  10.510  65.287  1.00  0.00     0.000 HD 
HETATM   31  N   UNL     1      -7.390  10.028  65.406  1.00  0.00    -0.133 N  
HETATM   32  O   UNL     1      -9.321  10.013  66.643  1.00  0.00    -0.158 OA 
BRANCH  31  33
HETATM   33  S   UNL     1      -7.593   8.555  64.584  1.00  0.00    -0.109 S  
HETATM   34  O   UNL     1      -8.634   8.742  63.605  1.00  0.00    -0.152 OA 
HETATM   35  O   UNL     1      -6.254   8.197  64.159  1.00  0.00    -0.064 OA 
BRANCH  33  36
HETATM   36  C   UNL     1      -8.117   7.180  65.519  1.00  0.00    -0.135 A  
HETATM   37  C   UNL     1      -8.615   5.985  65.019  1.00  0.00    -0.038 A  
HETATM   38  N   UNL     1      -8.788   5.152  66.084  1.00  0.00    -0.128 NA 
HETATM   39  N   UNL     1      -8.422   5.697  67.248  1.00  0.00    -0.107 NA 
HETATM   40  C   UNL     1      -9.251   3.785  66.110  1.00  0.00    -0.164 C  
HETATM   41  C   UNL     1      -7.944   6.907  66.921  1.00  0.00    -0.109 A  
HETATM   42  C   UNL     1      -7.289   7.640  68.041  1.00  0.00    -0.099 C  
ENDBRANCH  33  36
ENDBRANCH  31  33
ENDBRANCH  13  29
ENDBRANCH   4   9
TORSDOF 8
ENDMDL
MODEL       94
REMARK 921   NORMALIZED FREE ENERGY PREDICTED BY IDOCK:   -5.34 KCAL/MOL
REMARK 922        TOTAL FREE ENERGY PREDICTED BY IDOCK:   -9.47 KCAL/MOL
REMARK 923 INTER-LIGAND FREE ENERGY PREDICTED BY IDOCK:   -7.39 KCAL/MOL
REMARK 924 INTRA-LIGAND FREE ENERGY PREDICTED BY IDOCK:   -2.07 KCAL/MOL
REMARK 927      BINDING AFFINITY PREDICTED BY RF-SCORE:    0.00 PKD
ROOT
HETATM    1  C   UNL     1      -9.753   8.629  66.018  1.00  0.00    -0.238 C  
HETATM    2  C   UNL     1      -9.691   9.861  65.116  1.00  0.00    -0.376 C  
HETATM    3  C   UNL     1      -8.439  10.690  65.388  1.00  0.00    -0.160 C  
HETATM    4  N   UNL     1      -8.841  11.697  66.376  1.00  0.00    -0.191 NA 
HETATM    5  C   UNL     1     -10.367  13.326  65.367  1.00  0.00    -0.316 C  
HETATM    6  C   UNL     1     -10.301  12.015  66.173  1.00  0.00    -0.224 C  
HETATM    7  C   UNL     1     -10.855  10.822  65.345  1.00  0.00    -0.062 C  
HETATM    8  C   UNL     1     -11.239  12.199  67.370  1.00  0.00    -0.362 C  
ENDROOT
BRANCH   4   9
HETATM    9  C   UNL     1      -8.133  11.840  67.557  1.00  0.00    -0.152 A  
HETATM   10  N   UNL     1      -7.883  10.663  68.218  1.00  0.00    -0.108 NA 
HETATM   11  C   UNL     1      -7.151  10.589  69.366  1.00  0.00    -0.110 A  
HETATM   12  C   UNL     1      -6.618  11.725  69.928  1.00  0.00    -0.000 A  
HETATM   13  C   UNL     1      -7.630  13.048  68.095  1.00  0.00    -0.136 A  
HETATM   14  C   UNL     1      -6.854  12.946  69.282  1.00  0.00    -0.018 A  
BRANCH  11  15
HETATM   15  N   UNL     1      -6.926   9.295  69.979  1.00  0.00    -0.053 NA 
HETATM   16  C   UNL     1      -5.689   8.767  70.326  1.00  0.00    -0.027 A  
HETATM   17  C   UNL     1      -5.902   7.521  70.854  1.00  0.00    -0.034 A  
HETATM   18  N   UNL     1      -7.936   8.417  70.309  1.00  0.00    -0.098 NA 
HETATM   19  C   UNL     1      -7.288   7.359  70.811  1.00  0.00    -0.069 A  
BRANCH  19  20
HETATM   20  O   UNL     1      -7.910   6.238  71.240  1.00  0.00    -0.104 OA 
BRANCH  20  21
HETATM   21  C   UNL     1      -7.200   5.012  71.077  1.00  0.00    -0.060 C  
BRANCH  21  22
HETATM   22  C   UNL     1      -8.101   3.980  70.344  1.00  0.00    -0.058 C  
HETATM   23  F   UNL     1      -8.736   4.322  68.054  1.00  0.00    -0.099 F  
HETATM   24  F   UNL     1      -6.677   4.768  68.576  1.00  0.00    -0.044 F  
HETATM   25  C   UNL     1      -9.587   4.366  70.494  1.00  0.00    -0.269 C  
HETATM   26  C   UNL     1      -7.926   2.579  70.969  1.00  0.00    -0.054 C  
HETATM   27  C   UNL     1      -7.712   3.944  68.854  1.00  0.00    -0.053 C  
HETATM   28  F   UNL     1      -7.343   2.706  68.453  1.00  0.00    -0.047 F  
ENDBRANCH  21  22
ENDBRANCH  20  21
ENDBRANCH  19  20
ENDBRANCH  11  15
BRANCH  13  29
HETATM   29  C   UNL     1      -7.751  14.480  67.598  1.00  0.00    -0.179 C  
HETATM   30  H   UNL     1      -9.671  14.761  68.355  1.00  0.00     0.000 HD 
HETATM   31  N   UNL     1      -8.955  15.190  67.769  1.00  0.00    -0.176 N  
HETATM   32  O   UNL     1      -6.756  15.028  67.141  1.00  0.00    -0.273 OA 
BRANCH  31  33
HETATM   33  S   UNL     1      -9.314  16.701  67.081  1.00  0.00    -0.233 S  
HETATM   34  O   UNL     1      -8.847  16.682  65.718  1.00  0.00    -0.493 OA 
HETATM   35  O   UNL     1     -10.724  16.893  67.360  1.00  0.00    -0.316 OA 
BRANCH  33  36
HETATM   36  C   UNL     1      -8.554  18.103  67.783  1.00  0.00    -0.255 A  
HETATM   37  C   UNL     1      -7.424  18.112  68.589  1.00  0.00    -0.290 A  
HETATM   38  N   UNL     1      -7.110  19.419  68.816  1.00  0.00    -0.332 NA 
HETATM   39  N   UNL     1      -7.933  20.276  68.203  1.00  0.00    -0.150 NA 
HETATM   40  C   UNL     1      -6.010  19.978  69.565  1.00  0.00    -0.316 C  
HETATM   41  C   UNL     1      -8.779  19.499  67.511  1.00  0.00    -0.307 A  
HETATM   42  C   UNL     1      -9.681  20.236  66.581  1.00  0.00    -0.550 C  
ENDBRANCH  33  36
ENDBRANCH  31  33
ENDBRANCH  13  29
ENDBRANCH   4   9
TORSDOF 8
ENDMDL
MODEL       95
REMARK 921   NORMALIZED FREE ENERGY PREDICTED BY IDOCK:   -5.33 KCAL/MOL
REMARK 922        TOTAL FREE ENERGY PREDICTED BY IDOCK:   -9.46 KCAL/MOL
REMARK 923 INTER-LIGAND FREE ENERGY PREDICTED BY IDOCK:   -7.72 KCAL/MOL
REMARK 924 INTRA-LIGAND FREE ENERGY PREDICTED BY IDOCK:   -1.74 KCAL/MOL
REMARK 927      BINDING AFFINITY PREDICTED BY RF-SCORE:    0.00 PKD
ROOT
HETATM    1  C   UNL     1     -11.771  11.970  68.612  1.00  0.00    -0.380 C  
HETATM    2  C   UNL     1     -11.910  13.257  67.800  1.00  0.00    -0.394 C  
HETATM    3  C   UNL     1     -10.671  13.518  66.949  1.00  0.00    -0.274 C  
HETATM    4  N   UNL     1      -9.806  14.377  67.764  1.00  0.00    -0.219 NA 
HETATM    5  C   UNL     1     -10.789  16.609  67.995  1.00  0.00    -0.337 C  
HETATM    6  C   UNL     1     -10.676  15.224  68.659  1.00  0.00    -0.245 C  
HETATM    7  C   UNL     1     -12.050  14.499  68.678  1.00  0.00    -0.253 C  
HETATM    8  C   UNL     1     -10.288  15.478  70.120  1.00  0.00    -0.279 C  
ENDROOT
BRANCH   4   9
HETATM    9  C   UNL     1      -8.492  14.017  68.009  1.00  0.00    -0.171 A  
HETATM   10  N   UNL     1      -8.306  12.682  68.270  1.00  0.00    -0.170 NA 
HETATM   11  C   UNL     1      -7.079  12.123  68.477  1.00  0.00    -0.099 A  
HETATM   12  C   UNL     1      -5.943  12.896  68.434  1.00  0.00    -0.074 A  
HETATM   13  C   UNL     1      -7.365  14.871  67.972  1.00  0.00    -0.138 A  
HETATM   14  C   UNL     1      -6.096  14.265  68.173  1.00  0.00    -0.138 A  
BRANCH  11  15
HETATM   15  N   UNL     1      -6.986  10.698  68.726  1.00  0.00    -0.064 NA 
HETATM   16  C   UNL     1      -6.178  10.094  69.681  1.00  0.00    -0.052 A  
HETATM   17  C   UNL     1      -6.360   8.739  69.584  1.00  0.00    -0.039 A  
HETATM   18  N   UNL     1      -7.713   9.750  68.038  1.00  0.00    -0.083 NA 
HETATM   19  C   UNL     1      -7.300   8.589  68.562  1.00  0.00    -0.092 A  
BRANCH  19  20
HETATM   20  O   UNL     1      -7.748   7.383  68.147  1.00  0.00    -0.115 OA 
BRANCH  20  21
HETATM   21  C   UNL     1      -9.164   7.216  68.085  1.00  0.00    -0.131 C  
BRANCH  21  22
HETATM   22  C   UNL     1      -9.512   5.702  68.076  1.00  0.00    -0.121 C  
HETATM   23  F   UNL     1     -11.013   4.805  66.432  1.00  0.00    -0.291 F  
HETATM   24  F   UNL     1      -9.555   6.255  65.738  1.00  0.00    -0.106 F  
HETATM   25  C   UNL     1     -10.772   5.439  68.926  1.00  0.00    -0.129 C  
HETATM   26  C   UNL     1      -8.359   4.885  68.699  1.00  0.00    -0.083 C  
HETATM   27  C   UNL     1      -9.750   5.252  66.623  1.00  0.00    -0.164 C  
HETATM   28  F   UNL     1      -8.923   4.245  66.259  1.00  0.00    -0.112 F  
ENDBRANCH  21  22
ENDBRANCH  20  21
ENDBRANCH  19  20
ENDBRANCH  11  15
BRANCH  13  29
HETATM   29  C   UNL     1      -7.264  16.367  67.720  1.00  0.00    -0.138 C  
HETATM   30  H   UNL     1      -7.069  16.867  69.733  1.00  0.00     0.000 HD 
HETATM   31  N   UNL     1      -7.193  17.265  68.803  1.00  0.00    -0.235 N  
HETATM   32  O   UNL     1      -7.146  16.760  66.566  1.00  0.00    -0.231 OA 
BRANCH  31  33
HETATM   33  S   UNL     1      -7.298  18.957  68.688  1.00  0.00    -0.319 S  
HETATM   34  O   UNL     1      -8.588  19.349  69.196  1.00  0.00    -0.301 OA 
HETATM   35  O   UNL     1      -6.090  19.432  69.334  1.00  0.00    -0.255 OA 
BRANCH  33  36
HETATM   36  C   UNL     1      -7.225  19.659  67.095  1.00  0.00    -0.214 A  
HETATM   37  C   UNL     1      -6.076  19.937  66.368  1.00  0.00    -0.168 A  
HETATM   38  N   UNL     1      -6.479  20.367  65.139  1.00  0.00    -0.271 NA 
HETATM   39  N   UNL     1      -7.807  20.374  64.989  1.00  0.00     0.246 NA 
HETATM   40  C   UNL     1      -5.682  20.753  63.998  1.00  0.00    -0.269 C  
HETATM   41  C   UNL     1      -8.281  19.881  66.143  1.00  0.00    -0.322 A  
HETATM   42  C   UNL     1      -9.747  19.608  66.146  1.00  0.00    -0.489 C  
ENDBRANCH  33  36
ENDBRANCH  31  33
ENDBRANCH  13  29
ENDBRANCH   4   9
TORSDOF 8
ENDMDL
MODEL       96
REMARK 921   NORMALIZED FREE ENERGY PREDICTED BY IDOCK:   -5.32 KCAL/MOL
REMARK 922        TOTAL FREE ENERGY PREDICTED BY IDOCK:   -9.44 KCAL/MOL
REMARK 923 INTER-LIGAND FREE ENERGY PREDICTED BY IDOCK:   -8.39 KCAL/MOL
REMARK 924 INTRA-LIGAND FREE ENERGY PREDICTED BY IDOCK:   -1.05 KCAL/MOL
REMARK 927      BINDING AFFINITY PREDICTED BY RF-SCORE:    0.00 PKD
ROOT
HETATM    1  C   UNL     1     -11.380   9.878  71.031  1.00  0.00    -0.460 C  
HETATM    2  C   UNL     1     -11.706  10.036  69.546  1.00  0.00    -0.058 C  
HETATM    3  C   UNL     1     -10.455   9.913  68.683  1.00  0.00    -0.206 C  
HETATM    4  N   UNL     1      -9.965  11.284  68.502  1.00  0.00    -0.197 NA 
HETATM    5  C   UNL     1     -11.493  12.557  67.071  1.00  0.00    -0.419 C  
HETATM    6  C   UNL     1     -11.144  12.224  68.534  1.00  0.00    -0.249 C  
HETATM    7  C   UNL     1     -12.283  11.409  69.209  1.00  0.00    -0.271 C  
HETATM    8  C   UNL     1     -11.060  13.564  69.272  1.00  0.00    -0.230 C  
ENDROOT
BRANCH   4   9
HETATM    9  C   UNL     1      -8.656  11.608  68.817  1.00  0.00    -0.019 A  
HETATM   10  N   UNL     1      -8.275  12.872  68.441  1.00  0.00    -0.145 NA 
HETATM   11  C   UNL     1      -7.047  13.397  68.715  1.00  0.00    -0.101 A  
HETATM   12  C   UNL     1      -6.110  12.660  69.399  1.00  0.00    -0.107 A  
HETATM   13  C   UNL     1      -7.731  10.790  69.506  1.00  0.00    -0.074 A  
HETATM   14  C   UNL     1      -6.463  11.364  69.798  1.00  0.00    -0.133 A  
BRANCH  11  15
HETATM   15  N   UNL     1      -6.747  14.751  68.292  1.00  0.00    -0.103 NA 
HETATM   16  C   UNL     1      -5.541  15.184  67.759  1.00  0.00    -0.083 A  
HETATM   17  C   UNL     1      -5.653  16.527  67.511  1.00  0.00    -0.172 A  
HETATM   18  N   UNL     1      -7.649  15.792  68.358  1.00  0.00    -0.126 NA 
HETATM   19  C   UNL     1      -6.956  16.843  67.902  1.00  0.00    -0.148 A  
BRANCH  19  20
HETATM   20  O   UNL     1      -7.464  18.093  67.823  1.00  0.00    -0.208 OA 
BRANCH  20  21
HETATM   21  C   UNL     1      -8.078  18.455  66.588  1.00  0.00    -0.264 C  
BRANCH  21  22
HETATM   22  C   UNL     1      -9.624  18.425  66.744  1.00  0.00    -0.308 C  
HETATM   23  F   UNL     1     -11.000  17.399  65.065  1.00  0.00    -0.400 F  
HETATM   24  F   UNL     1      -9.180  16.352  65.612  1.00  0.00    -0.319 F  
HETATM   25  C   UNL     1     -10.253  19.661  66.069  1.00  0.00    -0.587 C  
HETATM   26  C   UNL     1     -10.011  18.471  68.238  1.00  0.00    -0.409 C  
HETATM   27  C   UNL     1     -10.167  17.137  66.099  1.00  0.00    -0.334 C  
HETATM   28  F   UNL     1     -10.866  16.382  66.978  1.00  0.00    -0.320 F  
ENDBRANCH  21  22
ENDBRANCH  20  21
ENDBRANCH  19  20
ENDBRANCH  11  15
BRANCH  13  29
HETATM   29  C   UNL     1      -7.863   9.369  70.033  1.00  0.00    -0.132 C  
HETATM   30  H   UNL     1      -7.811   8.484  68.148  1.00  0.00     0.000 HD 
HETATM   31  N   UNL     1      -7.970   8.288  69.136  1.00  0.00    -0.110 N  
HETATM   32  O   UNL     1      -7.777   9.181  71.239  1.00  0.00    -0.266 OA 
BRANCH  31  33
HETATM   33  S   UNL     1      -8.341   6.687  69.563  1.00  0.00    -0.132 S  
HETATM   34  O   UNL     1      -7.146   6.092  70.104  1.00  0.00    -0.066 OA 
HETATM   35  O   UNL     1      -9.528   6.805  70.387  1.00  0.00    -0.165 OA 
BRANCH  33  36
HETATM   36  C   UNL     1      -8.825   5.607  68.284  1.00  0.00    -0.108 A  
HETATM   37  C   UNL     1      -8.699   5.834  66.920  1.00  0.00    -0.110 A  
HETATM   38  N   UNL     1      -9.092   4.691  66.290  1.00  0.00    -0.117 NA 
HETATM   39  N   UNL     1      -9.447   3.717  67.133  1.00  0.00    -0.202 NA 
HETATM   40  C   UNL     1      -9.122   4.389  64.879  1.00  0.00    -0.151 C  
HETATM   41  C   UNL     1      -9.227   4.227  68.354  1.00  0.00    -0.139 A  
HETATM   42  C   UNL     1      -9.368   3.249  69.471  1.00  0.00    -0.235 C  
ENDBRANCH  33  36
ENDBRANCH  31  33
ENDBRANCH  13  29
ENDBRANCH   4   9
TORSDOF 8
ENDMDL
MODEL       97
REMARK 921   NORMALIZED FREE ENERGY PREDICTED BY IDOCK:   -5.30 KCAL/MOL
REMARK 922        TOTAL FREE ENERGY PREDICTED BY IDOCK:   -9.41 KCAL/MOL
REMARK 923 INTER-LIGAND FREE ENERGY PREDICTED BY IDOCK:   -9.50 KCAL/MOL
REMARK 924 INTRA-LIGAND FREE ENERGY PREDICTED BY IDOCK:    0.08 KCAL/MOL
REMARK 927      BINDING AFFINITY PREDICTED BY RF-SCORE:    0.00 PKD
ROOT
HETATM    1  C   UNL     1     -10.671  14.670  64.966  1.00  0.00    -0.448 C  
HETATM    2  C   UNL     1     -11.193  15.019  66.359  1.00  0.00    -0.310 C  
HETATM    3  C   UNL     1     -10.054  15.161  67.364  1.00  0.00    -0.229 C  
HETATM    4  N   UNL     1      -9.909  13.839  67.983  1.00  0.00    -0.232 NA 
HETATM    5  C   UNL     1     -11.838  13.345  69.410  1.00  0.00    -0.390 C  
HETATM    6  C   UNL     1     -11.256  13.163  67.995  1.00  0.00    -0.277 C  
HETATM    7  C   UNL     1     -12.098  13.936  66.941  1.00  0.00    -0.467 C  
HETATM    8  C   UNL     1     -11.391  11.672  67.664  1.00  0.00    -0.362 C  
ENDROOT
BRANCH   4   9
HETATM    9  C   UNL     1      -8.678  13.204  67.998  1.00  0.00    -0.190 A  
HETATM   10  N   UNL     1      -8.741  11.844  68.172  1.00  0.00    -0.168 NA 
HETATM   11  C   UNL     1      -7.643  11.035  68.156  1.00  0.00    -0.095 A  
HETATM   12  C   UNL     1      -6.390  11.563  67.960  1.00  0.00    -0.050 A  
HETATM   13  C   UNL     1      -7.415  13.813  67.812  1.00  0.00    -0.168 A  
HETATM   14  C   UNL     1      -6.287  12.949  67.780  1.00  0.00    -0.144 A  
BRANCH  11  15
HETATM   15  N   UNL     1      -7.816   9.606  68.330  1.00  0.00    -0.086 NA 
HETATM   16  C   UNL     1      -6.905   8.628  67.954  1.00  0.00    -0.067 A  
HETATM   17  C   UNL     1      -7.448   7.410  68.268  1.00  0.00    -0.109 A  
HETATM   18  N   UNL     1      -8.926   9.034  68.914  1.00  0.00    -0.139 NA 
HETATM   19  C   UNL     1      -8.682   7.719  68.842  1.00  0.00    -0.135 A  
BRANCH  19  20
HETATM   20  O   UNL     1      -9.543   6.776  69.285  1.00  0.00    -0.145 OA 
BRANCH  20  21
HETATM   21  C   UNL     1     -10.820   7.235  69.726  1.00  0.00    -0.235 C  
BRANCH  21  22
HETATM   22  C   UNL     1     -10.771   7.535  71.249  1.00  0.00    -0.242 C  
HETATM   23  F   UNL     1     -12.755   8.196  72.428  1.00  0.00    -0.330 F  
HETATM   24  F   UNL     1     -12.964   6.592  70.980  1.00  0.00    -0.345 F  
HETATM   25  C   UNL     1     -10.497   9.034  71.490  1.00  0.00    -0.410 C  
HETATM   26  C   UNL     1      -9.620   6.747  71.912  1.00  0.00    -0.150 C  
HETATM   27  C   UNL     1     -12.116   7.135  71.882  1.00  0.00    -0.321 C  
HETATM   28  F   UNL     1     -11.964   6.223  72.870  1.00  0.00    -0.160 F  
ENDBRANCH  21  22
ENDBRANCH  20  21
ENDBRANCH  19  20
ENDBRANCH  11  15
BRANCH  13  29
HETATM   29  C   UNL     1      -7.040  15.272  67.605  1.00  0.00    -0.182 C  
HETATM   30  H   UNL     1      -6.370  15.553  69.558  1.00  0.00     0.000 HD 
HETATM   31  N   UNL     1      -6.575  16.044  68.689  1.00  0.00    -0.120 N  
HETATM   32  O   UNL     1      -7.056  15.726  66.469  1.00  0.00    -0.099 OA 
BRANCH  31  33
HETATM   33  S   UNL     1      -6.329  17.725  68.666  1.00  0.00    -0.205 S  
HETATM   34  O   UNL     1      -6.254  18.173  70.033  1.00  0.00    -0.179 OA 
HETATM   35  O   UNL     1      -5.195  17.906  67.780  1.00  0.00    -0.135 OA 
BRANCH  33  36
HETATM   36  C   UNL     1      -7.578  18.709  67.953  1.00  0.00    -0.247 A  
HETATM   37  C   UNL     1      -8.925  18.388  67.852  1.00  0.00    -0.283 A  
HETATM   38  N   UNL     1      -9.555  19.481  67.337  1.00  0.00    -0.321 NA 
HETATM   39  N   UNL     1      -8.732  20.509  67.110  1.00  0.00    -0.315 NA 
HETATM   40  C   UNL     1     -10.958  19.684  67.064  1.00  0.00    -0.295 C  
HETATM   41  C   UNL     1      -7.534  20.088  67.542  1.00  0.00    -0.287 A  
HETATM   42  C   UNL     1      -6.479  21.140  67.572  1.00  0.00    -0.427 C  
ENDBRANCH  33  36
ENDBRANCH  31  33
ENDBRANCH  13  29
ENDBRANCH   4   9
TORSDOF 8
ENDMDL
MODEL       98
REMARK 921   NORMALIZED FREE ENERGY PREDICTED BY IDOCK:   -5.26 KCAL/MOL
REMARK 922        TOTAL FREE ENERGY PREDICTED BY IDOCK:   -9.35 KCAL/MOL
REMARK 923 INTER-LIGAND FREE ENERGY PREDICTED BY IDOCK:   -8.95 KCAL/MOL
REMARK 924 INTRA-LIGAND FREE ENERGY PREDICTED BY IDOCK:   -0.40 KCAL/MOL
REMARK 927      BINDING AFFINITY PREDICTED BY RF-SCORE:    0.00 PKD
ROOT
HETATM    1  C   UNL     1     -14.067   9.465  71.082  1.00  0.00     0.043 C  
HETATM    2  C   UNL     1     -12.817   9.795  71.898  1.00  0.00    -0.520 C  
HETATM    3  C   UNL     1     -11.731  10.422  71.029  1.00  0.00    -0.337 C  
HETATM    4  N   UNL     1     -10.888   9.307  70.586  1.00  0.00    -0.255 NA 
HETATM    5  C   UNL     1      -9.618   8.391  72.470  1.00  0.00    -0.358 C  
HETATM    6  C   UNL     1     -10.911   8.235  71.647  1.00  0.00    -0.256 C  
HETATM    7  C   UNL     1     -12.164   8.557  72.508  1.00  0.00    -0.383 C  
HETATM    8  C   UNL     1     -11.001   6.754  71.266  1.00  0.00    -0.288 C  
ENDROOT
BRANCH   4   9
HETATM    9  C   UNL     1     -10.633   9.114  69.239  1.00  0.00    -0.216 A  
HETATM   10  N   UNL     1     -10.276   7.831  68.904  1.00  0.00    -0.207 NA 
HETATM   11  C   UNL     1     -10.043   7.428  67.622  1.00  0.00    -0.186 A  
HETATM   12  C   UNL     1     -10.158   8.316  66.580  1.00  0.00    -0.303 A  
HETATM   13  C   UNL     1     -10.748  10.081  68.214  1.00  0.00    -0.280 A  
HETATM   14  C   UNL     1     -10.519   9.636  66.884  1.00  0.00    -0.282 A  
BRANCH  11  15
HETATM   15  N   UNL     1      -9.690   6.045  67.370  1.00  0.00    -0.111 NA 
HETATM   16  C   UNL     1     -10.232   4.940  68.014  1.00  0.00    -0.038 A  
HETATM   17  C   UNL     1      -9.621   3.822  67.508  1.00  0.00    -0.205 A  
HETATM   18  N   UNL     1      -8.762   5.650  66.430  1.00  0.00    -0.122 NA 
HETATM   19  C   UNL     1      -8.730   4.317  66.554  1.00  0.00    -0.113 A  
BRANCH  19  20
HETATM   20  O   UNL     1      -7.918   3.520  65.825  1.00  0.00    -0.091 OA 
BRANCH  20  21
HETATM   21  C   UNL     1      -8.542   2.450  65.117  1.00  0.00    -0.109 C  
BRANCH  21  22
HETATM   22  C   UNL     1      -8.652   2.814  63.610  1.00  0.00    -0.086 C  
HETATM   23  F   UNL     1     -10.778   2.759  62.494  1.00  0.00    -0.121 F  
HETATM   24  F   UNL     1     -10.741   3.614  64.489  1.00  0.00    -0.211 F  
HETATM   25  C   UNL     1      -8.508   1.547  62.743  1.00  0.00    -0.061 C  
HETATM   26  C   UNL     1      -7.515   3.777  63.208  1.00  0.00    -0.054 C  
HETATM   27  C   UNL     1     -10.019   3.477  63.355  1.00  0.00    -0.164 C  
HETATM   28  F   UNL     1      -9.893   4.714  62.821  1.00  0.00    -0.125 F  
ENDBRANCH  21  22
ENDBRANCH  20  21
ENDBRANCH  19  20
ENDBRANCH  11  15
BRANCH  13  29
HETATM   29  C   UNL     1     -11.113  11.557  68.280  1.00  0.00    -0.239 C  
HETATM   30  H   UNL     1      -9.143  12.211  68.460  1.00  0.00     0.000 HD 
HETATM   31  N   UNL     1     -10.113  12.525  68.496  1.00  0.00    -0.211 N  
HETATM   32  O   UNL     1     -12.269  11.886  68.046  1.00  0.00    -0.491 OA 
BRANCH  31  33
HETATM   33  S   UNL     1     -10.387  14.171  68.812  1.00  0.00    -0.201 S  
HETATM   34  O   UNL     1     -11.630  14.275  69.533  1.00  0.00    -0.267 OA 
HETATM   35  O   UNL     1      -9.154  14.626  69.424  1.00  0.00    -0.026 OA 
BRANCH  33  36
HETATM   36  C   UNL     1     -10.588  15.228  67.441  1.00  0.00    -0.282 A  
HETATM   37  C   UNL     1     -10.559  16.616  67.459  1.00  0.00    -0.311 A  
HETATM   38  N   UNL     1     -10.641  17.030  66.163  1.00  0.00    -0.250 NA 
HETATM   39  N   UNL     1     -10.700  16.022  65.287  1.00  0.00    -0.451 NA 
HETATM   40  C   UNL     1     -10.619  18.371  65.628  1.00  0.00    -0.103 C  
HETATM   41  C   UNL     1     -10.599  14.914  66.037  1.00  0.00    -0.315 A  
HETATM   42  C   UNL     1     -10.445  13.651  65.261  1.00  0.00    -0.362 C  
ENDBRANCH  33  36
ENDBRANCH  31  33
ENDBRANCH  13  29
ENDBRANCH   4   9
TORSDOF 8
ENDMDL
MODEL       99
REMARK 921   NORMALIZED FREE ENERGY PREDICTED BY IDOCK:   -5.26 KCAL/MOL
REMARK 922        TOTAL FREE ENERGY PREDICTED BY IDOCK:   -9.35 KCAL/MOL
REMARK 923 INTER-LIGAND FREE ENERGY PREDICTED BY IDOCK:   -7.77 KCAL/MOL
REMARK 924 INTRA-LIGAND FREE ENERGY PREDICTED BY IDOCK:   -1.57 KCAL/MOL
REMARK 927      BINDING AFFINITY PREDICTED BY RF-SCORE:    0.00 PKD
ROOT
HETATM    1  C   UNL     1      -6.645  12.425  68.948  1.00  0.00    -0.095 C  
HETATM    2  C   UNL     1      -6.300  10.947  69.130  1.00  0.00    -0.058 C  
HETATM    3  C   UNL     1      -6.261  10.213  67.793  1.00  0.00    -0.057 C  
HETATM    4  N   UNL     1      -7.606   9.656  67.611  1.00  0.00    -0.091 NA 
HETATM    5  C   UNL     1      -8.010   7.850  69.215  1.00  0.00    -0.117 C  
HETATM    6  C   UNL     1      -8.192   9.359  68.968  1.00  0.00    -0.108 C  
HETATM    7  C   UNL     1      -7.336  10.195  69.961  1.00  0.00    -0.172 C  
HETATM    8  C   UNL     1      -9.660   9.671  69.276  1.00  0.00    -0.190 C  
ENDROOT
BRANCH   4   9
HETATM    9  C   UNL     1      -8.321   9.918  66.455  1.00  0.00    -0.125 A  
HETATM   10  N   UNL     1      -9.111  11.039  66.514  1.00  0.00    -0.168 NA 
HETATM   11  C   UNL     1      -9.845  11.496  65.460  1.00  0.00    -0.234 A  
HETATM   12  C   UNL     1      -9.825  10.832  64.256  1.00  0.00    -0.384 A  
HETATM   13  C   UNL     1      -8.273   9.178  65.251  1.00  0.00    -0.135 A  
HETATM   14  C   UNL     1      -9.031   9.682  64.159  1.00  0.00    -0.269 A  
BRANCH  11  15
HETATM   15  N   UNL     1     -10.633  12.703  65.617  1.00  0.00    -0.268 NA 
HETATM   16  C   UNL     1     -12.009  12.798  65.455  1.00  0.00    -0.436 A  
HETATM   17  C   UNL     1     -12.364  14.104  65.669  1.00  0.00    -0.473 A  
HETATM   18  N   UNL     1     -10.101  13.925  65.969  1.00  0.00    -0.304 NA 
HETATM   19  C   UNL     1     -11.160  14.745  65.970  1.00  0.00    -0.330 A  
BRANCH  19  20
HETATM   20  O   UNL     1     -11.079  16.066  66.240  1.00  0.00    -0.144 OA 
BRANCH  20  21
HETATM   21  C   UNL     1     -10.366  16.434  67.420  1.00  0.00    -0.295 C  
BRANCH  21  22
HETATM   22  C   UNL     1      -9.645  17.792  67.193  1.00  0.00    -0.276 C  
HETATM   23  F   UNL     1     -10.273  19.732  68.461  1.00  0.00    -0.480 F  
HETATM   24  F   UNL     1     -10.141  17.856  69.544  1.00  0.00    -0.245 F  
HETATM   25  C   UNL     1     -10.392  18.622  66.129  1.00  0.00    -0.481 C  
HETATM   26  C   UNL     1      -8.213  17.556  66.669  1.00  0.00    -0.288 C  
HETATM   27  C   UNL     1      -9.598  18.561  68.527  1.00  0.00    -0.358 C  
HETATM   28  F   UNL     1      -8.332  18.864  68.895  1.00  0.00    -0.355 F  
ENDBRANCH  21  22
ENDBRANCH  20  21
ENDBRANCH  19  20
ENDBRANCH  11  15
BRANCH  13  29
HETATM   29  C   UNL     1      -7.508   7.912  64.895  1.00  0.00    -0.082 C  
HETATM   30  H   UNL     1      -8.719   6.656  66.035  1.00  0.00     0.000 HD 
HETATM   31  N   UNL     1      -7.860   6.682  65.486  1.00  0.00    -0.101 N  
HETATM   32  O   UNL     1      -6.655   7.970  64.019  1.00  0.00    -0.064 OA 
BRANCH  31  33
HETATM   33  S   UNL     1      -6.971   5.240  65.361  1.00  0.00    -0.066 S  
HETATM   34  O   UNL     1      -7.278   4.648  64.084  1.00  0.00    -0.049 OA 
HETATM   35  O   UNL     1      -5.610   5.633  65.669  1.00  0.00    -0.013 OA 
BRANCH  33  36
HETATM   36  C   UNL     1      -7.315   3.983  66.518  1.00  0.00    -0.076 A  
HETATM   37  C   UNL     1      -8.090   4.105  67.663  1.00  0.00    -0.094 A  
HETATM   38  N   UNL     1      -8.190   2.860  68.208  1.00  0.00    -0.064 NA 
HETATM   39  N   UNL     1      -7.559   1.919  67.499  1.00  0.00    -0.059 NA 
HETATM   40  C   UNL     1      -8.909   2.432  69.384  1.00  0.00    -0.093 C  
HETATM   41  C   UNL     1      -7.077   2.566  66.428  1.00  0.00    -0.053 A  
HETATM   42  C   UNL     1      -6.492   1.683  65.379  1.00  0.00    -0.023 C  
ENDBRANCH  33  36
ENDBRANCH  31  33
ENDBRANCH  13  29
ENDBRANCH   4   9
TORSDOF 8
ENDMDL
MODEL      100
REMARK 921   NORMALIZED FREE ENERGY PREDICTED BY IDOCK:   -5.21 KCAL/MOL
REMARK 922        TOTAL FREE ENERGY PREDICTED BY IDOCK:   -9.28 KCAL/MOL
REMARK 923 INTER-LIGAND FREE ENERGY PREDICTED BY IDOCK:   -7.45 KCAL/MOL
REMARK 924 INTRA-LIGAND FREE ENERGY PREDICTED BY IDOCK:   -1.82 KCAL/MOL
REMARK 927      BINDING AFFINITY PREDICTED BY RF-SCORE:    0.00 PKD
ROOT
HETATM    1  C   UNL     1     -11.569  10.372  71.198  1.00  0.00    -0.315 C  
HETATM    2  C   UNL     1     -12.531  11.247  70.395  1.00  0.00    -0.355 C  
HETATM    3  C   UNL     1     -12.379  11.014  68.895  1.00  0.00     0.150 C  
HETATM    4  N   UNL     1     -11.417  12.022  68.436  1.00  0.00    -0.276 NA 
HETATM    5  C   UNL     1     -12.406  14.261  68.543  1.00  0.00    -0.034 C  
HETATM    6  C   UNL     1     -11.544  13.242  69.313  1.00  0.00    -0.314 C  
HETATM    7  C   UNL     1     -12.277  12.740  70.588  1.00  0.00    -0.374 C  
HETATM    8  C   UNL     1     -10.300  14.002  69.786  1.00  0.00     0.466 C  
ENDROOT
BRANCH   4   9
HETATM    9  C   UNL     1     -10.291  11.643  67.725  1.00  0.00    -0.182 A  
HETATM   10  N   UNL     1      -9.822  10.388  68.027  1.00  0.00    -0.149 NA 
HETATM   11  C   UNL     1      -8.761   9.812  67.393  1.00  0.00    -0.132 A  
HETATM   12  C   UNL     1      -8.094  10.485  66.397  1.00  0.00    -0.135 A  
HETATM   13  C   UNL     1      -9.635  12.396  66.724  1.00  0.00    -0.224 A  
HETATM   14  C   UNL     1      -8.543  11.770  66.064  1.00  0.00     0.064 A  
BRANCH  11  15
HETATM   15  N   UNL     1      -8.355   8.472  67.771  1.00  0.00    -0.128 NA 
HETATM   16  C   UNL     1      -7.903   7.488  66.902  1.00  0.00    -0.111 A  
HETATM   17  C   UNL     1      -7.643   6.366  67.643  1.00  0.00    -0.101 A  
HETATM   18  N   UNL     1      -8.355   8.009  69.069  1.00  0.00    -0.128 NA 
HETATM   19  C   UNL     1      -7.944   6.739  68.954  1.00  0.00    -0.116 A  
BRANCH  19  20
HETATM   20  O   UNL     1      -7.827   5.896  70.004  1.00  0.00    -0.095 OA 
BRANCH  20  21
HETATM   21  C   UNL     1      -8.873   4.942  70.175  1.00  0.00    -0.101 C  
BRANCH  21  22
HETATM   22  C   UNL     1      -9.515   5.116  71.580  1.00  0.00    -0.197 C  
HETATM   23  F   UNL     1     -10.545   7.194  72.202  1.00  0.00    -0.206 F  
HETATM   24  F   UNL     1     -10.934   6.471  70.192  1.00  0.00    -0.261 F  
HETATM   25  C   UNL     1      -8.481   5.683  72.573  1.00  0.00    -0.117 C  
HETATM   26  C   UNL     1      -9.977   3.749  72.129  1.00  0.00    -0.239 C  
HETATM   27  C   UNL     1     -10.717   6.071  71.465  1.00  0.00    -0.255 C  
HETATM   28  F   UNL     1     -11.866   5.498  71.895  1.00  0.00    -0.216 F  
ENDBRANCH  21  22
ENDBRANCH  20  21
ENDBRANCH  19  20
ENDBRANCH  11  15
BRANCH  13  29
HETATM   29  C   UNL     1      -9.917  13.792  66.190  1.00  0.00    -0.308 C  
HETATM   30  H   UNL     1      -8.397  14.703  67.286  1.00  0.00     0.000 HD 
HETATM   31  N   UNL     1      -9.195  14.897  66.681  1.00  0.00    -0.261 N  
HETATM   32  O   UNL     1     -10.707  13.916  65.264  1.00  0.00    -0.309 OA 
BRANCH  31  33
HETATM   33  S   UNL     1      -9.542  16.526  66.349  1.00  0.00    -0.304 S  
HETATM   34  O   UNL     1     -10.128  16.588  65.034  1.00  0.00    -0.483 OA 
HETATM   35  O   UNL     1     -10.301  16.970  67.502  1.00  0.00    -0.310 OA 
BRANCH  33  36
HETATM   36  C   UNL     1      -8.200  17.636  66.280  1.00  0.00    -0.229 A  
HETATM   37  C   UNL     1      -8.273  19.009  66.090  1.00  0.00    -0.231 A  
HETATM   38  N   UNL     1      -7.006  19.495  66.220  1.00  0.00    -0.220 NA 
HETATM   39  N   UNL     1      -6.103  18.551  66.504  1.00  0.00    -0.154 NA 
HETATM   40  C   UNL     1      -6.538  20.858  66.147  1.00  0.00    -0.179 C  
HETATM   41  C   UNL     1      -6.816  17.420  66.614  1.00  0.00    -0.233 A  
HETATM   42  C   UNL     1      -6.048  16.248  67.121  1.00  0.00    -0.148 C  
ENDBRANCH  33  36
ENDBRANCH  31  33
ENDBRANCH  13  29
ENDBRANCH   4   9
TORSDOF 8
ENDMDL
MODEL      101
REMARK 921   NORMALIZED FREE ENERGY PREDICTED BY IDOCK:   -5.18 KCAL/MOL
REMARK 922        TOTAL FREE ENERGY PREDICTED BY IDOCK:   -9.23 KCAL/MOL
REMARK 923 INTER-LIGAND FREE ENERGY PREDICTED BY IDOCK:   -7.53 KCAL/MOL
REMARK 924 INTRA-LIGAND FREE ENERGY PREDICTED BY IDOCK:   -1.70 KCAL/MOL
REMARK 927      BINDING AFFINITY PREDICTED BY RF-SCORE:    0.00 PKD
ROOT
HETATM    1  C   UNL     1      -9.877   9.477  69.831  1.00  0.00    -0.254 C  
HETATM    2  C   UNL     1     -11.128  10.350  69.737  1.00  0.00    -0.352 C  
HETATM    3  C   UNL     1     -11.760  10.274  68.350  1.00  0.00     0.189 C  
HETATM    4  N   UNL     1     -11.184  11.391  67.594  1.00  0.00    -0.265 NA 
HETATM    5  C   UNL     1     -12.013  13.529  68.456  1.00  0.00    -0.379 C  
HETATM    6  C   UNL     1     -10.863  12.509  68.554  1.00  0.00    -0.243 C  
HETATM    7  C   UNL     1     -10.833  11.833  69.953  1.00  0.00     0.325 C  
HETATM    8  C   UNL     1      -9.564  13.311  68.421  1.00  0.00    -0.185 C  
ENDROOT
BRANCH   4   9
HETATM    9  C   UNL     1     -10.573  11.168  66.371  1.00  0.00    -0.261 A  
HETATM   10  N   UNL     1      -9.990   9.931  66.243  1.00  0.00    -0.243 NA 
HETATM   11  C   UNL     1      -9.392   9.500  65.096  1.00  0.00    -0.252 A  
HETATM   12  C   UNL     1      -9.344  10.311  63.987  1.00  0.00    -0.337 A  
HETATM   13  C   UNL     1     -10.539  12.058  65.273  1.00  0.00    -0.328 A  
HETATM   14  C   UNL     1      -9.927  11.582  64.082  1.00  0.00    -0.327 A  
BRANCH  11  15
HETATM   15  N   UNL     1      -8.822   8.168  65.054  1.00  0.00     0.031 NA 
HETATM   16  C   UNL     1      -7.769   7.762  64.244  1.00  0.00    -0.124 A  
HETATM   17  C   UNL     1      -7.547   6.432  64.485  1.00  0.00    -0.100 A  
HETATM   18  N   UNL     1      -9.257   7.123  65.840  1.00  0.00    -0.024 NA 
HETATM   19  C   UNL     1      -8.487   6.095  65.460  1.00  0.00    -0.149 A  
BRANCH  19  20
HETATM   20  O   UNL     1      -8.603   4.849  65.970  1.00  0.00    -0.115 OA 
BRANCH  20  21
HETATM   21  C   UNL     1      -8.067   4.642  67.276  1.00  0.00    -0.102 C  
BRANCH  21  22
HETATM   22  C   UNL     1      -7.696   3.145  67.458  1.00  0.00    -0.076 C  
HETATM   23  F   UNL     1      -7.843   2.105  69.618  1.00  0.00    -0.043 F  
HETATM   24  F   UNL     1      -9.464   3.437  69.060  1.00  0.00    -0.201 F  
HETATM   25  C   UNL     1      -6.206   3.005  67.831  1.00  0.00    -0.032 C  
HETATM   26  C   UNL     1      -7.913   2.376  66.137  1.00  0.00    -0.082 C  
HETATM   27  C   UNL     1      -8.577   2.542  68.569  1.00  0.00    -0.079 C  
HETATM   28  F   UNL     1      -9.296   1.483  68.130  1.00  0.00    -0.150 F  
ENDBRANCH  21  22
ENDBRANCH  20  21
ENDBRANCH  19  20
ENDBRANCH  11  15
BRANCH  13  29
HETATM   29  C   UNL     1     -11.084  13.470  65.125  1.00  0.00    -0.316 C  
HETATM   30  H   UNL     1      -9.265  14.398  65.540  1.00  0.00     0.000 HD 
HETATM   31  N   UNL     1     -10.257  14.580  65.391  1.00  0.00    -0.366 N  
HETATM   32  O   UNL     1     -12.214  13.618  64.679  1.00  0.00    -0.396 OA 
BRANCH  31  33
HETATM   33  S   UNL     1     -10.776  16.194  65.483  1.00  0.00    -0.292 S  
HETATM   34  O   UNL     1     -11.163  16.605  64.157  1.00  0.00    -1.103 OA 
HETATM   35  O   UNL     1     -11.753  16.193  66.555  1.00  0.00     0.555 OA 
BRANCH  33  36
HETATM   36  C   UNL     1      -9.607  17.386  65.984  1.00  0.00    -0.118 A  
HETATM   37  C   UNL     1      -9.803  18.759  66.044  1.00  0.00    -0.198 A  
HETATM   38  N   UNL     1      -8.678  19.295  66.595  1.00  0.00    -0.309 NA 
HETATM   39  N   UNL     1      -7.761  18.380  66.925  1.00  0.00    -0.218 NA 
HETATM   40  C   UNL     1      -8.380  20.673  66.907  1.00  0.00    -0.115 C  
HETATM   41  C   UNL     1      -8.333  17.204  66.627  1.00  0.00    -0.251 A  
HETATM   42  C   UNL     1      -7.573  16.008  67.090  1.00  0.00    -0.246 C  
ENDBRANCH  33  36
ENDBRANCH  31  33
ENDBRANCH  13  29
ENDBRANCH   4   9
TORSDOF 8
ENDMDL
MODEL      102
REMARK 921   NORMALIZED FREE ENERGY PREDICTED BY IDOCK:   -5.16 KCAL/MOL
REMARK 922        TOTAL FREE ENERGY PREDICTED BY IDOCK:   -9.21 KCAL/MOL
REMARK 923 INTER-LIGAND FREE ENERGY PREDICTED BY IDOCK:   -8.18 KCAL/MOL
REMARK 924 INTRA-LIGAND FREE ENERGY PREDICTED BY IDOCK:   -1.03 KCAL/MOL
REMARK 927      BINDING AFFINITY PREDICTED BY RF-SCORE:    0.00 PKD
ROOT
HETATM    1  C   UNL     1     -11.938  11.833  64.380  1.00  0.00    -0.240 C  
HETATM    2  C   UNL     1     -11.475  13.253  64.705  1.00  0.00    -0.373 C  
HETATM    3  C   UNL     1      -9.969  13.311  64.936  1.00  0.00    -0.132 C  
HETATM    4  N   UNL     1      -9.786  13.149  66.383  1.00  0.00    -0.267 NA 
HETATM    5  C   UNL     1     -10.599  15.128  67.575  1.00  0.00    -0.269 C  
HETATM    6  C   UNL     1     -10.991  13.721  67.087  1.00  0.00    -0.290 C  
HETATM    7  C   UNL     1     -12.091  13.796  65.992  1.00  0.00    -0.470 C  
HETATM    8  C   UNL     1     -11.610  13.005  68.291  1.00  0.00    -0.375 C  
ENDROOT
BRANCH   4   9
HETATM    9  C   UNL     1      -8.944  12.167  66.876  1.00  0.00    -0.201 A  
HETATM   10  N   UNL     1      -9.463  10.897  66.835  1.00  0.00    -0.174 NA 
HETATM   11  C   UNL     1      -8.767   9.789  67.220  1.00  0.00    -0.132 A  
HETATM   12  C   UNL     1      -7.477   9.902  67.682  1.00  0.00    -0.090 A  
HETATM   13  C   UNL     1      -7.629  12.353  67.362  1.00  0.00    -0.160 A  
HETATM   14  C   UNL     1      -6.915  11.184  67.740  1.00  0.00    -0.078 A  
BRANCH  11  15
HETATM   15  N   UNL     1      -9.398   8.488  67.119  1.00  0.00    -0.147 NA 
HETATM   16  C   UNL     1     -10.642   8.149  67.636  1.00  0.00    -0.188 A  
HETATM   17  C   UNL     1     -10.865   6.828  67.350  1.00  0.00    -0.417 A  
HETATM   18  N   UNL     1      -8.832   7.410  66.473  1.00  0.00    -0.142 NA 
HETATM   19  C   UNL     1      -9.726   6.428  66.647  1.00  0.00    -0.153 A  
BRANCH  19  20
HETATM   20  O   UNL     1      -9.550   5.170  66.187  1.00  0.00    -0.151 OA 
BRANCH  20  21
HETATM   21  C   UNL     1      -8.202   4.729  66.037  1.00  0.00    -0.111 C  
BRANCH  21  22
HETATM   22  C   UNL     1      -8.079   3.253  66.506  1.00  0.00    -0.088 C  
HETATM   23  F   UNL     1      -6.106   1.976  66.014  1.00  0.00    -0.020 F  
HETATM   24  F   UNL     1      -5.810   4.030  66.650  1.00  0.00    -0.020 F  
HETATM   25  C   UNL     1      -8.599   2.299  65.411  1.00  0.00    -0.113 C  
HETATM   26  C   UNL     1      -8.942   3.019  67.765  1.00  0.00    -0.192 C  
HETATM   27  C   UNL     1      -6.602   2.948  66.816  1.00  0.00    -0.037 C  
HETATM   28  F   UNL     1      -6.425   2.527  68.089  1.00  0.00    -0.027 F  
ENDBRANCH  21  22
ENDBRANCH  20  21
ENDBRANCH  19  20
ENDBRANCH  11  15
BRANCH  13  29
HETATM   29  C   UNL     1      -6.804  13.620  67.530  1.00  0.00    -0.137 C  
HETATM   30  H   UNL     1      -8.278  14.642  68.591  1.00  0.00     0.000 HD 
HETATM   31  N   UNL     1      -7.367  14.755  68.145  1.00  0.00    -0.109 N  
HETATM   32  O   UNL     1      -5.623  13.597  67.210  1.00  0.00    -0.334 OA 
BRANCH  31  33
HETATM   33  S   UNL     1      -6.657  16.297  68.207  1.00  0.00    -0.132 S  
HETATM   34  O   UNL     1      -6.311  16.563  69.580  1.00  0.00    -0.196 OA 
HETATM   35  O   UNL     1      -5.620  16.251  67.194  1.00  0.00    -0.269 OA 
BRANCH  33  36
HETATM   36  C   UNL     1      -7.642  17.654  67.734  1.00  0.00    -0.206 A  
HETATM   37  C   UNL     1      -8.667  18.227  68.475  1.00  0.00    -0.308 A  
HETATM   38  N   UNL     1      -9.087  19.326  67.787  1.00  0.00    -0.300 NA 
HETATM   39  N   UNL     1      -8.403  19.538  66.658  1.00  0.00    -0.301 NA 
HETATM   40  C   UNL     1     -10.104  20.289  68.135  1.00  0.00    -0.278 C  
HETATM   41  C   UNL     1      -7.472  18.572  66.639  1.00  0.00    -0.231 A  
HETATM   42  C   UNL     1      -6.451  18.714  65.562  1.00  0.00    -0.321 C  
ENDBRANCH  33  36
ENDBRANCH  31  33
ENDBRANCH  13  29
ENDBRANCH   4   9
TORSDOF 8
ENDMDL
MODEL      103
REMARK 921   NORMALIZED FREE ENERGY PREDICTED BY IDOCK:   -5.16 KCAL/MOL
REMARK 922        TOTAL FREE ENERGY PREDICTED BY IDOCK:   -9.20 KCAL/MOL
REMARK 923 INTER-LIGAND FREE ENERGY PREDICTED BY IDOCK:   -7.07 KCAL/MOL
REMARK 924 INTRA-LIGAND FREE ENERGY PREDICTED BY IDOCK:   -2.13 KCAL/MOL
REMARK 927      BINDING AFFINITY PREDICTED BY RF-SCORE:    0.00 PKD
ROOT
HETATM    1  C   UNL     1      -8.295  11.314  66.665  1.00  0.00    -0.163 C  
HETATM    2  C   UNL     1      -7.668   9.988  66.235  1.00  0.00    -0.105 C  
HETATM    3  C   UNL     1      -8.620   8.819  66.466  1.00  0.00    -0.118 C  
HETATM    4  N   UNL     1      -8.289   8.299  67.797  1.00  0.00    -0.127 NA 
HETATM    5  C   UNL     1      -6.091   7.217  67.771  1.00  0.00    -0.034 C  
HETATM    6  C   UNL     1      -6.824   8.542  68.057  1.00  0.00    -0.070 C  
HETATM    7  C   UNL     1      -6.415   9.638  67.034  1.00  0.00    -0.066 C  
HETATM    8  C   UNL     1      -6.337   9.013  69.432  1.00  0.00    -0.044 C  
ENDROOT
BRANCH   4   9
HETATM    9  C   UNL     1      -9.275   8.158  68.759  1.00  0.00    -0.144 A  
HETATM   10  N   UNL     1      -9.914   9.325  69.095  1.00  0.00    -0.173 NA 
HETATM   11  C   UNL     1     -10.952   9.384  69.978  1.00  0.00    -0.239 A  
HETATM   12  C   UNL     1     -11.414   8.242  70.589  1.00  0.00    -0.236 A  
HETATM   13  C   UNL     1      -9.689   6.951  69.368  1.00  0.00    -0.157 A  
HETATM   14  C   UNL     1     -10.783   7.032  70.271  1.00  0.00    -0.266 A  
BRANCH  11  15
HETATM   15  N   UNL     1     -11.574  10.665  70.252  1.00  0.00    -0.312 NA 
HETATM   16  C   UNL     1     -12.381  10.956  71.345  1.00  0.00    -0.298 A  
HETATM   17  C   UNL     1     -12.786  12.259  71.227  1.00  0.00    -0.337 A  
HETATM   18  N   UNL     1     -11.427  11.776  69.450  1.00  0.00    -0.288 NA 
HETATM   19  C   UNL     1     -12.181  12.705  70.051  1.00  0.00    -0.197 A  
BRANCH  19  20
HETATM   20  O   UNL     1     -12.343  13.958  69.570  1.00  0.00    -0.333 OA 
BRANCH  20  21
HETATM   21  C   UNL     1     -11.247  14.854  69.746  1.00  0.00    -0.280 C  
BRANCH  21  22
HETATM   22  C   UNL     1     -10.664  15.245  68.360  1.00  0.00    -0.250 C  
HETATM   23  F   UNL     1     -11.097  17.412  67.421  1.00  0.00    -0.266 F  
HETATM   24  F   UNL     1     -10.635  17.338  69.540  1.00  0.00    -0.327 F  
HETATM   25  C   UNL     1     -11.667  14.897  67.241  1.00  0.00    -0.308 C  
HETATM   26  C   UNL     1      -9.372  14.448  68.080  1.00  0.00    -0.203 C  
HETATM   27  C   UNL     1     -10.365  16.755  68.351  1.00  0.00    -0.319 C  
HETATM   28  F   UNL     1      -9.066  17.015  68.076  1.00  0.00    -0.219 F  
ENDBRANCH  21  22
ENDBRANCH  20  21
ENDBRANCH  19  20
ENDBRANCH  11  15
BRANCH  13  29
HETATM   29  C   UNL     1      -9.173   5.529  69.203  1.00  0.00    -0.116 C  
HETATM   30  H   UNL     1      -8.771   5.730  67.168  1.00  0.00     0.000 HD 
HETATM   31  N   UNL     1      -8.810   5.051  67.928  1.00  0.00    -0.103 N  
HETATM   32  O   UNL     1      -8.991   4.852  70.206  1.00  0.00    -0.103 OA 
BRANCH  31  33
HETATM   33  S   UNL     1      -8.430   3.439  67.553  1.00  0.00    -0.102 S  
HETATM   34  O   UNL     1      -7.131   3.156  68.107  1.00  0.00    -0.049 OA 
HETATM   35  O   UNL     1      -9.588   2.688  68.000  1.00  0.00    -0.197 OA 
BRANCH  33  36
HETATM   36  C   UNL     1      -8.286   3.020  65.867  1.00  0.00    -0.098 A  
HETATM   37  C   UNL     1      -9.298   2.541  65.047  1.00  0.00    -0.100 A  
HETATM   38  N   UNL     1      -8.782   2.458  63.788  1.00  0.00    -0.085 NA 
HETATM   39  N   UNL     1      -7.512   2.866  63.709  1.00  0.00    -0.065 NA 
HETATM   40  C   UNL     1      -9.424   2.050  62.562  1.00  0.00    -0.089 C  
HETATM   41  C   UNL     1      -7.209   3.279  64.949  1.00  0.00    -0.066 A  
HETATM   42  C   UNL     1      -5.892   3.967  65.071  1.00  0.00    -0.022 C  
ENDBRANCH  33  36
ENDBRANCH  31  33
ENDBRANCH  13  29
ENDBRANCH   4   9
TORSDOF 8
ENDMDL
MODEL      104
REMARK 921   NORMALIZED FREE ENERGY PREDICTED BY IDOCK:   -5.14 KCAL/MOL
REMARK 922        TOTAL FREE ENERGY PREDICTED BY IDOCK:   -9.18 KCAL/MOL
REMARK 923 INTER-LIGAND FREE ENERGY PREDICTED BY IDOCK:   -8.42 KCAL/MOL
REMARK 924 INTRA-LIGAND FREE ENERGY PREDICTED BY IDOCK:   -0.76 KCAL/MOL
REMARK 927      BINDING AFFINITY PREDICTED BY RF-SCORE:    0.00 PKD
ROOT
HETATM    1  C   UNL     1      -7.938  11.748  67.109  1.00  0.00    -0.166 C  
HETATM    2  C   UNL     1      -8.616  10.681  66.250  1.00  0.00    -0.156 C  
HETATM    3  C   UNL     1     -10.059  10.447  66.685  1.00  0.00    -0.224 C  
HETATM    4  N   UNL     1     -10.007   9.338  67.644  1.00  0.00    -0.183 NA 
HETATM    5  C   UNL     1      -9.435   7.247  66.503  1.00  0.00    -0.218 C  
HETATM    6  C   UNL     1      -8.850   8.442  67.280  1.00  0.00    -0.130 C  
HETATM    7  C   UNL     1      -7.946   9.314  66.365  1.00  0.00    -0.107 C  
HETATM    8  C   UNL     1      -7.944   7.848  68.364  1.00  0.00    -0.122 C  
ENDROOT
BRANCH   4   9
HETATM    9  C   UNL     1     -10.568   9.473  68.902  1.00  0.00    -0.216 A  
HETATM   10  N   UNL     1     -10.498   8.344  69.682  1.00  0.00    -0.220 NA 
HETATM   11  C   UNL     1     -10.941   8.295  70.970  1.00  0.00    -0.245 A  
HETATM   12  C   UNL     1     -11.495   9.406  71.561  1.00  0.00    -0.467 A  
HETATM   13  C   UNL     1     -11.147  10.644  69.444  1.00  0.00    -0.315 A  
HETATM   14  C   UNL     1     -11.585  10.576  70.794  1.00  0.00    -0.432 A  
BRANCH  11  15
HETATM   15  N   UNL     1     -10.805   7.060  71.718  1.00  0.00    -0.221 NA 
HETATM   16  C   UNL     1     -11.041   6.906  73.077  1.00  0.00    -0.232 A  
HETATM   17  C   UNL     1     -10.779   5.601  73.400  1.00  0.00    -0.313 A  
HETATM   18  N   UNL     1     -10.427   5.860  71.153  1.00  0.00    -0.223 NA 
HETATM   19  C   UNL     1     -10.403   5.014  72.190  1.00  0.00    -0.215 A  
BRANCH  19  20
HETATM   20  O   UNL     1     -10.050   3.714  72.082  1.00  0.00    -0.168 OA 
BRANCH  20  21
HETATM   21  C   UNL     1      -8.673   3.407  72.294  1.00  0.00    -0.087 C  
BRANCH  21  22
HETATM   22  C   UNL     1      -8.060   2.827  70.990  1.00  0.00    -0.062 C  
HETATM   23  F   UNL     1      -7.822   4.203  69.037  1.00  0.00    -0.057 F  
HETATM   24  F   UNL     1      -7.312   5.110  70.941  1.00  0.00    -0.062 F  
HETATM   25  C   UNL     1      -9.172   2.262  70.082  1.00  0.00    -0.189 C  
HETATM   26  C   UNL     1      -7.103   1.662  71.322  1.00  0.00    -0.032 C  
HETATM   27  C   UNL     1      -7.296   3.944  70.257  1.00  0.00    -0.042 C  
HETATM   28  F   UNL     1      -5.995   3.627  70.059  1.00  0.00    -0.016 F  
ENDBRANCH  21  22
ENDBRANCH  20  21
ENDBRANCH  19  20
ENDBRANCH  11  15
BRANCH  13  29
HETATM   29  C   UNL     1     -11.365  12.017  68.828  1.00  0.00    -0.278 C  
HETATM   30  H   UNL     1      -9.627  12.841  69.629  1.00  0.00     0.000 HD 
HETATM   31  N   UNL     1     -10.479  13.073  69.119  1.00  0.00     0.016 N  
HETATM   32  O   UNL     1     -12.262  12.155  68.006  1.00  0.00    -0.419 OA 
BRANCH  31  33
HETATM   33  S   UNL     1     -10.711  14.700  68.690  1.00  0.00    -0.258 S  
HETATM   34  O   UNL     1     -11.954  15.133  69.277  1.00  0.00    -0.312 OA 
HETATM   35  O   UNL     1      -9.469  15.347  69.064  1.00  0.00    -0.206 OA 
BRANCH  33  36
HETATM   36  C   UNL     1     -10.880  15.067  66.994  1.00  0.00    -0.311 A  
HETATM   37  C   UNL     1     -11.679  14.394  66.080  1.00  0.00    -0.378 A  
HETATM   38  N   UNL     1     -11.600  15.080  64.905  1.00  0.00    -0.388 NA 
HETATM   39  N   UNL     1     -10.828  16.168  64.978  1.00  0.00    -0.584 NA 
HETATM   40  C   UNL     1     -12.264  14.821  63.650  1.00  0.00     0.428 C  
HETATM   41  C   UNL     1     -10.433  16.220  66.258  1.00  0.00    -0.308 A  
HETATM   42  C   UNL     1      -9.709  17.467  66.636  1.00  0.00    -0.303 C  
ENDBRANCH  33  36
ENDBRANCH  31  33
ENDBRANCH  13  29
ENDBRANCH   4   9
TORSDOF 8
ENDMDL
MODEL      105
REMARK 921   NORMALIZED FREE ENERGY PREDICTED BY IDOCK:   -5.13 KCAL/MOL
REMARK 922        TOTAL FREE ENERGY PREDICTED BY IDOCK:   -9.16 KCAL/MOL
REMARK 923 INTER-LIGAND FREE ENERGY PREDICTED BY IDOCK:   -7.64 KCAL/MOL
REMARK 924 INTRA-LIGAND FREE ENERGY PREDICTED BY IDOCK:   -1.53 KCAL/MOL
REMARK 927      BINDING AFFINITY PREDICTED BY RF-SCORE:    0.00 PKD
ROOT
HETATM    1  C   UNL     1      -8.446   8.093  66.045  1.00  0.00    -0.150 C  
HETATM    2  C   UNL     1      -9.276   9.222  65.435  1.00  0.00    -0.284 C  
HETATM    3  C   UNL     1      -8.489  10.527  65.379  1.00  0.00    -0.170 C  
HETATM    4  N   UNL     1      -8.821  11.240  66.617  1.00  0.00    -0.169 NA 
HETATM    5  C   UNL     1     -11.149  12.003  66.569  1.00  0.00    -0.362 C  
HETATM    6  C   UNL     1     -10.222  10.862  67.030  1.00  0.00    -0.214 C  
HETATM    7  C   UNL     1     -10.523   9.550  66.254  1.00  0.00    -0.137 C  
HETATM    8  C   UNL     1     -10.564  10.597  68.500  1.00  0.00    -0.229 C  
ENDROOT
BRANCH   4   9
HETATM    9  C   UNL     1      -7.817  11.686  67.459  1.00  0.00    -0.137 A  
HETATM   10  N   UNL     1      -7.527  13.023  67.344  1.00  0.00    -0.153 NA 
HETATM   11  C   UNL     1      -6.611  13.662  68.126  1.00  0.00    -0.124 A  
HETATM   12  C   UNL     1      -5.917  12.973  69.092  1.00  0.00    -0.086 A  
HETATM   13  C   UNL     1      -7.121  10.916  68.421  1.00  0.00    -0.073 A  
HETATM   14  C   UNL     1      -6.185  11.605  69.238  1.00  0.00    -0.086 A  
BRANCH  11  15
HETATM   15  N   UNL     1      -6.391  15.083  67.940  1.00  0.00    -0.151 NA 
HETATM   16  C   UNL     1      -5.353  15.821  68.493  1.00  0.00    -0.103 A  
HETATM   17  C   UNL     1      -5.511  17.123  68.097  1.00  0.00    -0.120 A  
HETATM   18  N   UNL     1      -7.196  15.888  67.162  1.00  0.00    -0.215 NA 
HETATM   19  C   UNL     1      -6.654  17.105  67.295  1.00  0.00    -0.162 A  
BRANCH  19  20
HETATM   20  O   UNL     1      -7.158  18.213  66.708  1.00  0.00    -0.191 OA 
BRANCH  20  21
HETATM   21  C   UNL     1      -8.520  18.149  66.289  1.00  0.00    -0.185 C  
BRANCH  21  22
HETATM   22  C   UNL     1      -9.302  19.362  66.866  1.00  0.00    -0.394 C  
HETATM   23  F   UNL     1     -11.399  19.038  67.988  1.00  0.00    -0.160 F  
HETATM   24  F   UNL     1      -9.820  17.619  68.437  1.00  0.00    -0.270 F  
HETATM   25  C   UNL     1     -10.295  19.904  65.817  1.00  0.00    -0.512 C  
HETATM   26  C   UNL     1      -8.329  20.509  67.212  1.00  0.00    -0.355 C  
HETATM   27  C   UNL     1     -10.059  18.913  68.129  1.00  0.00    -0.388 C  
HETATM   28  F   UNL     1      -9.714  19.642  69.216  1.00  0.00    -0.446 F  
ENDBRANCH  21  22
ENDBRANCH  20  21
ENDBRANCH  19  20
ENDBRANCH  11  15
BRANCH  13  29
HETATM   29  C   UNL     1      -7.221   9.438  68.766  1.00  0.00    -0.073 C  
HETATM   30  H   UNL     1      -8.769   9.688  70.138  1.00  0.00     0.000 HD 
HETATM   31  N   UNL     1      -8.110   9.003  69.769  1.00  0.00    -0.102 N  
HETATM   32  O   UNL     1      -6.589   8.635  68.092  1.00  0.00    -0.059 OA 
BRANCH  31  33
HETATM   33  S   UNL     1      -8.174   7.434  70.415  1.00  0.00    -0.122 S  
HETATM   34  O   UNL     1      -6.864   7.116  70.922  1.00  0.00    -0.052 OA 
HETATM   35  O   UNL     1      -9.311   7.466  71.314  1.00  0.00    -0.153 OA 
BRANCH  33  36
HETATM   36  C   UNL     1      -8.545   6.130  69.319  1.00  0.00    -0.119 A  
HETATM   37  C   UNL     1      -7.705   5.080  68.972  1.00  0.00    -0.080 A  
HETATM   38  N   UNL     1      -8.431   4.235  68.188  1.00  0.00    -0.093 NA 
HETATM   39  N   UNL     1      -9.694   4.633  68.006  1.00  0.00    -0.153 NA 
HETATM   40  C   UNL     1      -8.041   2.980  67.591  1.00  0.00    -0.079 C  
HETATM   41  C   UNL     1      -9.807   5.749  68.742  1.00  0.00    -0.139 A  
HETATM   42  C   UNL     1     -11.195   6.280  68.857  1.00  0.00    -0.387 C  
ENDBRANCH  33  36
ENDBRANCH  31  33
ENDBRANCH  13  29
ENDBRANCH   4   9
TORSDOF 8
ENDMDL
MODEL      106
REMARK 921   NORMALIZED FREE ENERGY PREDICTED BY IDOCK:   -5.10 KCAL/MOL
REMARK 922        TOTAL FREE ENERGY PREDICTED BY IDOCK:   -9.11 KCAL/MOL
REMARK 923 INTER-LIGAND FREE ENERGY PREDICTED BY IDOCK:   -8.16 KCAL/MOL
REMARK 924 INTRA-LIGAND FREE ENERGY PREDICTED BY IDOCK:   -0.95 KCAL/MOL
REMARK 927      BINDING AFFINITY PREDICTED BY RF-SCORE:    0.00 PKD
ROOT
HETATM    1  C   UNL     1      -6.846   6.813  65.826  1.00  0.00    -0.056 C  
HETATM    2  C   UNL     1      -6.819   7.852  64.705  1.00  0.00    -0.062 C  
HETATM    3  C   UNL     1      -6.192   9.162  65.172  1.00  0.00    -0.061 C  
HETATM    4  N   UNL     1      -7.312   9.994  65.625  1.00  0.00    -0.120 NA 
HETATM    5  C   UNL     1      -8.685  10.693  63.721  1.00  0.00    -0.144 C  
HETATM    6  C   UNL     1      -8.537   9.629  64.825  1.00  0.00    -0.179 C  
HETATM    7  C   UNL     1      -8.214   8.235  64.218  1.00  0.00    -0.116 C  
HETATM    8  C   UNL     1      -9.909   9.514  65.497  1.00  0.00    -0.304 C  
ENDROOT
BRANCH   4   9
HETATM    9  C   UNL     1      -7.303  10.549  66.893  1.00  0.00    -0.110 A  
HETATM   10  N   UNL     1      -6.934  11.871  66.934  1.00  0.00    -0.114 NA 
HETATM   11  C   UNL     1      -6.921  12.611  68.080  1.00  0.00    -0.099 A  
HETATM   12  C   UNL     1      -7.285  12.046  69.279  1.00  0.00     0.067 A  
HETATM   13  C   UNL     1      -7.669   9.904  68.097  1.00  0.00    -0.082 A  
HETATM   14  C   UNL     1      -7.666  10.697  69.276  1.00  0.00    -0.142 A  
BRANCH  11  15
HETATM   15  N   UNL     1      -6.534  14.007  68.015  1.00  0.00    -0.132 NA 
HETATM   16  C   UNL     1      -5.382  14.554  68.564  1.00  0.00    -0.103 A  
HETATM   17  C   UNL     1      -5.397  15.900  68.306  1.00  0.00    -0.106 A  
HETATM   18  N   UNL     1      -7.274  14.978  67.375  1.00  0.00    -0.204 NA 
HETATM   19  C   UNL     1      -6.576  16.101  67.586  1.00  0.00    -0.155 A  
BRANCH  19  20
HETATM   20  O   UNL     1      -6.969  17.316  67.145  1.00  0.00    -0.155 OA 
BRANCH  20  21
HETATM   21  C   UNL     1      -8.375  17.541  67.062  1.00  0.00    -0.219 C  
BRANCH  21  22
HETATM   22  C   UNL     1      -8.685  19.033  67.363  1.00  0.00    -0.301 C  
HETATM   23  F   UNL     1     -10.809  19.982  66.768  1.00  0.00    -0.560 F  
HETATM   24  F   UNL     1     -10.834  17.994  67.638  1.00  0.00    -0.402 F  
HETATM   25  C   UNL     1      -8.298  19.913  66.157  1.00  0.00    -0.345 C  
HETATM   26  C   UNL     1      -7.854  19.519  68.570  1.00  0.00    -0.382 C  
HETATM   27  C   UNL     1     -10.188  19.181  67.665  1.00  0.00    -0.403 C  
HETATM   28  F   UNL     1     -10.412  19.719  68.886  1.00  0.00    -0.486 F  
ENDBRANCH  21  22
ENDBRANCH  20  21
ENDBRANCH  19  20
ENDBRANCH  11  15
BRANCH  13  29
HETATM   29  C   UNL     1      -8.107   8.471  68.359  1.00  0.00    -0.122 C  
HETATM   30  H   UNL     1      -9.896   8.645  67.305  1.00  0.00     0.000 HD 
HETATM   31  N   UNL     1      -9.369   8.024  67.918  1.00  0.00    -0.138 N  
HETATM   32  O   UNL     1      -7.307   7.698  68.869  1.00  0.00    -0.086 OA 
BRANCH  31  33
HETATM   33  S   UNL     1     -10.083   6.537  68.323  1.00  0.00    -0.172 S  
HETATM   34  O   UNL     1     -11.304   6.420  67.567  1.00  0.00    -0.274 OA 
HETATM   35  O   UNL     1      -9.019   5.569  68.136  1.00  0.00    -0.109 OA 
BRANCH  33  36
HETATM   36  C   UNL     1     -10.572   6.306  69.980  1.00  0.00    -0.248 A  
HETATM   37  C   UNL     1     -10.398   5.157  70.739  1.00  0.00    -0.224 A  
HETATM   38  N   UNL     1     -10.817   5.449  72.002  1.00  0.00    -0.225 NA 
HETATM   39  N   UNL     1     -11.234   6.711  72.143  1.00  0.00    -0.253 NA 
HETATM   40  C   UNL     1     -10.818   4.615  73.181  1.00  0.00    -0.264 C  
HETATM   41  C   UNL     1     -11.029   7.273  70.943  1.00  0.00    -0.253 A  
HETATM   42  C   UNL     1     -11.240   8.748  70.903  1.00  0.00    -0.320 C  
ENDBRANCH  33  36
ENDBRANCH  31  33
ENDBRANCH  13  29
ENDBRANCH   4   9
TORSDOF 8
ENDMDL
MODEL      107
REMARK 921   NORMALIZED FREE ENERGY PREDICTED BY IDOCK:   -5.08 KCAL/MOL
REMARK 922        TOTAL FREE ENERGY PREDICTED BY IDOCK:   -9.09 KCAL/MOL
REMARK 923 INTER-LIGAND FREE ENERGY PREDICTED BY IDOCK:   -7.15 KCAL/MOL
REMARK 924 INTRA-LIGAND FREE ENERGY PREDICTED BY IDOCK:   -1.94 KCAL/MOL
REMARK 927      BINDING AFFINITY PREDICTED BY RF-SCORE:    0.00 PKD
ROOT
HETATM    1  C   UNL     1     -11.445  12.962  63.590  1.00  0.00    -0.506 C  
HETATM    2  C   UNL     1     -11.494  11.474  63.936  1.00  0.00    -0.358 C  
HETATM    3  C   UNL     1     -11.288  11.240  65.429  1.00  0.00     0.097 C  
HETATM    4  N   UNL     1      -9.849  11.013  65.597  1.00  0.00    -0.226 NA 
HETATM    5  C   UNL     1      -9.199   8.866  64.612  1.00  0.00     0.182 C  
HETATM    6  C   UNL     1      -9.312  10.378  64.339  1.00  0.00    -0.272 C  
HETATM    7  C   UNL     1     -10.387  10.672  63.256  1.00  0.00    -0.009 C  
HETATM    8  C   UNL     1      -7.963  10.811  63.754  1.00  0.00     0.185 C  
ENDROOT
BRANCH   4   9
HETATM    9  C   UNL     1      -9.122  11.767  66.503  1.00  0.00    -0.203 A  
HETATM   10  N   UNL     1      -9.431  13.105  66.508  1.00  0.00    -0.255 NA 
HETATM   11  C   UNL     1      -8.868  14.001  67.368  1.00  0.00    -0.206 A  
HETATM   12  C   UNL     1      -7.938  13.590  68.293  1.00  0.00    -0.147 A  
HETATM   13  C   UNL     1      -8.157  11.284  67.416  1.00  0.00    -0.135 A  
HETATM   14  C   UNL     1      -7.596  12.231  68.315  1.00  0.00    -0.133 A  
BRANCH  11  15
HETATM   15  N   UNL     1      -9.276  15.391  67.308  1.00  0.00    -0.203 NA 
HETATM   16  C   UNL     1     -10.328  15.958  68.016  1.00  0.00    -0.262 A  
HETATM   17  C   UNL     1     -10.399  17.281  67.667  1.00  0.00    -0.350 A  
HETATM   18  N   UNL     1      -8.646  16.341  66.533  1.00  0.00    -0.266 NA 
HETATM   19  C   UNL     1      -9.356  17.455  66.755  1.00  0.00    -0.268 A  
BRANCH  19  20
HETATM   20  O   UNL     1      -9.091  18.639  66.160  1.00  0.00    -0.454 OA 
BRANCH  20  21
HETATM   21  C   UNL     1      -8.602  19.681  67.002  1.00  0.00    -0.312 C  
BRANCH  21  22
HETATM   22  C   UNL     1      -7.055  19.761  66.891  1.00  0.00    -0.235 C  
HETATM   23  F   UNL     1      -5.691  19.814  68.867  1.00  0.00    -0.219 F  
HETATM   24  F   UNL     1      -7.362  18.429  68.868  1.00  0.00    -0.269 F  
HETATM   25  C   UNL     1      -6.594  21.233  66.903  1.00  0.00    -0.342 C  
HETATM   26  C   UNL     1      -6.582  19.143  65.558  1.00  0.00    -0.308 C  
HETATM   27  C   UNL     1      -6.428  19.001  68.075  1.00  0.00    -0.224 C  
HETATM   28  F   UNL     1      -5.605  18.008  67.665  1.00  0.00    -0.138 F  
ENDBRANCH  21  22
ENDBRANCH  20  21
ENDBRANCH  19  20
ENDBRANCH  11  15
BRANCH  13  29
HETATM   29  C   UNL     1      -7.614   9.880  67.634  1.00  0.00    -0.091 C  
HETATM   30  H   UNL     1      -9.359   9.157  68.512  1.00  0.00     0.000 HD 
HETATM   31  N   UNL     1      -8.389   8.918  68.311  1.00  0.00    -0.124 N  
HETATM   32  O   UNL     1      -6.541   9.582  67.126  1.00  0.00    -0.069 OA 
BRANCH  31  33
HETATM   33  S   UNL     1      -7.841   7.393  68.819  1.00  0.00    -0.123 S  
HETATM   34  O   UNL     1      -7.419   6.668  67.648  1.00  0.00    -0.093 OA 
HETATM   35  O   UNL     1      -6.887   7.690  69.870  1.00  0.00    -0.045 OA 
BRANCH  33  36
HETATM   36  C   UNL     1      -8.997   6.341  69.590  1.00  0.00    -0.135 A  
HETATM   37  C   UNL     1      -8.708   5.247  70.396  1.00  0.00    -0.127 A  
HETATM   38  N   UNL     1      -9.897   4.786  70.878  1.00  0.00    -0.195 NA 
HETATM   39  N   UNL     1     -10.948   5.504  70.471  1.00  0.00    -0.199 NA 
HETATM   40  C   UNL     1     -10.153   3.692  71.783  1.00  0.00    -0.090 C  
HETATM   41  C   UNL     1     -10.419   6.498  69.741  1.00  0.00    -0.211 A  
HETATM   42  C   UNL     1     -11.389   7.554  69.334  1.00  0.00     0.192 C  
ENDBRANCH  33  36
ENDBRANCH  31  33
ENDBRANCH  13  29
ENDBRANCH   4   9
TORSDOF 8
ENDMDL
MODEL      108
REMARK 921   NORMALIZED FREE ENERGY PREDICTED BY IDOCK:   -5.05 KCAL/MOL
REMARK 922        TOTAL FREE ENERGY PREDICTED BY IDOCK:   -9.04 KCAL/MOL
REMARK 923 INTER-LIGAND FREE ENERGY PREDICTED BY IDOCK:   -7.94 KCAL/MOL
REMARK 924 INTRA-LIGAND FREE ENERGY PREDICTED BY IDOCK:   -1.10 KCAL/MOL
REMARK 927      BINDING AFFINITY PREDICTED BY RF-SCORE:    0.00 PKD
ROOT
HETATM    1  C   UNL     1     -12.606  11.250  69.089  1.00  0.00     0.326 C  
HETATM    2  C   UNL     1     -11.467  11.209  70.107  1.00  0.00    -0.361 C  
HETATM    3  C   UNL     1     -10.109  11.091  69.423  1.00  0.00    -0.030 C  
HETATM    4  N   UNL     1      -9.821   9.654  69.362  1.00  0.00    -0.182 NA 
HETATM    5  C   UNL     1      -9.381   8.773  71.605  1.00  0.00    -0.345 C  
HETATM    6  C   UNL     1     -10.477   8.982  70.543  1.00  0.00    -0.223 C  
HETATM    7  C   UNL     1     -11.545   9.998  71.035  1.00  0.00    -0.476 C  
HETATM    8  C   UNL     1     -11.186   7.633  70.386  1.00  0.00    -0.258 C  
ENDROOT
BRANCH   4   9
HETATM    9  C   UNL     1      -9.506   9.053  68.155  1.00  0.00    -0.142 A  
HETATM   10  N   UNL     1      -9.303   7.697  68.229  1.00  0.00    -0.145 NA 
HETATM   11  C   UNL     1      -9.042   6.918  67.141  1.00  0.00    -0.131 A  
HETATM   12  C   UNL     1      -8.966   7.474  65.886  1.00  0.00    -0.128 A  
HETATM   13  C   UNL     1      -9.421   9.690  66.896  1.00  0.00    -0.198 A  
HETATM   14  C   UNL     1      -9.165   8.857  65.773  1.00  0.00    -0.283 A  
BRANCH  11  15
HETATM   15  N   UNL     1      -8.862   5.491  67.321  1.00  0.00    -0.107 NA 
HETATM   16  C   UNL     1      -8.613   4.572  66.310  1.00  0.00    -0.113 A  
HETATM   17  C   UNL     1      -8.529   3.332  66.886  1.00  0.00    -0.103 A  
HETATM   18  N   UNL     1      -8.905   4.861  68.547  1.00  0.00    -0.100 NA 
HETATM   19  C   UNL     1      -8.723   3.569  68.248  1.00  0.00    -0.105 A  
BRANCH  19  20
HETATM   20  O   UNL     1      -8.722   2.583  69.172  1.00  0.00    -0.068 OA 
BRANCH  20  21
HETATM   21  C   UNL     1      -9.722   2.660  70.187  1.00  0.00     0.073 C  
BRANCH  21  22
HETATM   22  C   UNL     1      -9.046   2.818  71.577  1.00  0.00    -0.169 C  
HETATM   23  F   UNL     1      -8.538   4.998  72.445  1.00  0.00    -0.118 F  
HETATM   24  F   UNL     1     -10.460   4.758  71.466  1.00  0.00    -0.263 F  
HETATM   25  C   UNL     1      -7.512   2.857  71.423  1.00  0.00    -0.040 C  
HETATM   26  C   UNL     1      -9.387   1.611  72.477  1.00  0.00    -0.117 C  
HETATM   27  C   UNL     1      -9.545   4.120  72.230  1.00  0.00    -0.143 C  
HETATM   28  F   UNL     1     -10.128   3.897  73.431  1.00  0.00    -0.145 F  
ENDBRANCH  21  22
ENDBRANCH  20  21
ENDBRANCH  19  20
ENDBRANCH  11  15
BRANCH  13  29
HETATM   29  C   UNL     1      -9.587  11.152  66.511  1.00  0.00    -0.197 C  
HETATM   30  H   UNL     1     -11.653  11.033  66.277  1.00  0.00     0.000 HD 
HETATM   31  N   UNL     1     -10.852  11.648  66.139  1.00  0.00    -0.286 N  
HETATM   32  O   UNL     1      -8.625  11.901  66.628  1.00  0.00    -0.187 OA 
BRANCH  31  33
HETATM   33  S   UNL     1     -11.152  13.184  65.479  1.00  0.00    -0.281 S  
HETATM   34  O   UNL     1     -10.529  13.231  64.181  1.00  0.00    -0.414 OA 
HETATM   35  O   UNL     1     -12.588  13.348  65.600  1.00  0.00    -0.466 OA 
BRANCH  33  36
HETATM   36  C   UNL     1     -10.502  14.562  66.325  1.00  0.00    -0.301 A  
HETATM   37  C   UNL     1      -9.636  15.515  65.806  1.00  0.00    -0.332 A  
HETATM   38  N   UNL     1      -9.477  16.470  66.765  1.00  0.00    -0.238 NA 
HETATM   39  N   UNL     1     -10.189  16.233  67.872  1.00  0.00    -0.254 NA 
HETATM   40  C   UNL     1      -8.706  17.690  66.722  1.00  0.00    -0.258 C  
HETATM   41  C   UNL     1     -10.875  15.113  67.601  1.00  0.00    -0.295 A  
HETATM   42  C   UNL     1     -11.899  14.749  68.621  1.00  0.00    -0.334 C  
ENDBRANCH  33  36
ENDBRANCH  31  33
ENDBRANCH  13  29
ENDBRANCH   4   9
TORSDOF 8
ENDMDL
MODEL      109
REMARK 921   NORMALIZED FREE ENERGY PREDICTED BY IDOCK:   -5.04 KCAL/MOL
REMARK 922        TOTAL FREE ENERGY PREDICTED BY IDOCK:   -9.03 KCAL/MOL
REMARK 923 INTER-LIGAND FREE ENERGY PREDICTED BY IDOCK:   -8.13 KCAL/MOL
REMARK 924 INTRA-LIGAND FREE ENERGY PREDICTED BY IDOCK:   -0.90 KCAL/MOL
REMARK 927      BINDING AFFINITY PREDICTED BY RF-SCORE:    0.00 PKD
ROOT
HETATM    1  C   UNL     1     -12.098  11.141  68.910  1.00  0.00    -0.276 C  
HETATM    2  C   UNL     1     -10.666  11.074  69.441  1.00  0.00    -0.247 C  
HETATM    3  C   UNL     1      -9.662  11.574  68.407  1.00  0.00    -0.202 C  
HETATM    4  N   UNL     1      -9.220  10.380  67.678  1.00  0.00    -0.147 NA 
HETATM    5  C   UNL     1      -7.852   8.952  69.122  1.00  0.00    -0.093 C  
HETATM    6  C   UNL     1      -9.284   9.196  68.610  1.00  0.00    -0.136 C  
HETATM    7  C   UNL     1     -10.220   9.650  69.764  1.00  0.00    -0.262 C  
HETATM    8  C   UNL     1      -9.803   7.840  68.123  1.00  0.00    -0.190 C  
ENDROOT
BRANCH   4   9
HETATM    9  C   UNL     1      -9.300  10.334  66.297  1.00  0.00    -0.167 A  
HETATM   10  N   UNL     1      -8.594   9.309  65.718  1.00  0.00    -0.144 NA 
HETATM   11  C   UNL     1      -8.595   9.060  64.378  1.00  0.00    -0.150 A  
HETATM   12  C   UNL     1      -9.324   9.852  63.522  1.00  0.00    -0.231 A  
HETATM   13  C   UNL     1     -10.054  11.198  65.468  1.00  0.00    -0.309 A  
HETATM   14  C   UNL     1     -10.056  10.910  64.077  1.00  0.00    -0.419 A  
BRANCH  11  15
HETATM   15  N   UNL     1      -7.831   7.939  63.866  1.00  0.00    -0.140 NA 
HETATM   16  C   UNL     1      -6.995   7.967  62.758  1.00  0.00    -0.085 A  
HETATM   17  C   UNL     1      -6.480   6.708  62.594  1.00  0.00    -0.039 A  
HETATM   18  N   UNL     1      -7.834   6.685  64.439  1.00  0.00    -0.113 NA 
HETATM   19  C   UNL     1      -7.032   5.969  63.641  1.00  0.00    -0.042 A  
BRANCH  19  20
HETATM   20  O   UNL     1      -6.775   4.655  63.829  1.00  0.00    -0.040 OA 
BRANCH  20  21
HETATM   21  C   UNL     1      -7.557   3.737  63.068  1.00  0.00    -0.058 C  
BRANCH  21  22
HETATM   22  C   UNL     1      -8.541   2.985  64.007  1.00  0.00    -0.089 C  
HETATM   23  F   UNL     1     -10.393   4.139  65.009  1.00  0.00    -0.210 F  
HETATM   24  F   UNL     1      -9.977   4.581  62.925  1.00  0.00    -0.134 F  
HETATM   25  C   UNL     1      -8.073   3.098  65.472  1.00  0.00    -0.086 C  
HETATM   26  C   UNL     1      -8.577   1.484  63.651  1.00  0.00    -0.076 C  
HETATM   27  C   UNL     1      -9.946   3.597  63.852  1.00  0.00    -0.186 C  
HETATM   28  F   UNL     1     -10.864   2.678  63.475  1.00  0.00    -0.197 F  
ENDBRANCH  21  22
ENDBRANCH  20  21
ENDBRANCH  19  20
ENDBRANCH  11  15
BRANCH  13  29
HETATM   29  C   UNL     1     -10.914  12.403  65.816  1.00  0.00    -0.298 C  
HETATM   30  H   UNL     1      -9.322  13.747  65.845  1.00  0.00     0.000 HD 
HETATM   31  N   UNL     1     -10.315  13.656  66.054  1.00  0.00    -0.297 N  
HETATM   32  O   UNL     1     -12.132  12.282  65.788  1.00  0.00    -0.587 OA 
BRANCH  31  33
HETATM   33  S   UNL     1     -11.111  15.028  66.662  1.00  0.00    -0.303 S  
HETATM   34  O   UNL     1     -10.414  16.190  66.171  1.00  0.00    -0.314 OA 
HETATM   35  O   UNL     1     -12.502  14.816  66.312  1.00  0.00    -0.097 OA 
BRANCH  33  36
HETATM   36  C   UNL     1     -11.143  15.238  68.392  1.00  0.00    -0.287 A  
HETATM   37  C   UNL     1     -12.267  15.209  69.206  1.00  0.00    -0.177 A  
HETATM   38  N   UNL     1     -11.826  15.298  70.492  1.00  0.00    -0.295 NA 
HETATM   39  N   UNL     1     -10.495  15.362  70.593  1.00  0.00    -0.160 NA 
HETATM   40  C   UNL     1     -12.584  15.281  71.721  1.00  0.00    -0.362 C  
HETATM   41  C   UNL     1     -10.053  15.257  69.332  1.00  0.00    -0.264 A  
HETATM   42  C   UNL     1      -8.576  15.106  69.201  1.00  0.00    -0.218 C  
ENDBRANCH  33  36
ENDBRANCH  31  33
ENDBRANCH  13  29
ENDBRANCH   4   9
TORSDOF 8
ENDMDL
MODEL      110
REMARK 921   NORMALIZED FREE ENERGY PREDICTED BY IDOCK:   -5.04 KCAL/MOL
REMARK 922        TOTAL FREE ENERGY PREDICTED BY IDOCK:   -9.02 KCAL/MOL
REMARK 923 INTER-LIGAND FREE ENERGY PREDICTED BY IDOCK:   -7.71 KCAL/MOL
REMARK 924 INTRA-LIGAND FREE ENERGY PREDICTED BY IDOCK:   -1.31 KCAL/MOL
REMARK 927      BINDING AFFINITY PREDICTED BY RF-SCORE:    0.00 PKD
ROOT
HETATM    1  C   UNL     1     -10.707   5.275  69.407  1.00  0.00    -0.106 C  
HETATM    2  C   UNL     1     -10.717   6.139  70.667  1.00  0.00    -0.336 C  
HETATM    3  C   UNL     1     -11.257   7.537  70.383  1.00  0.00    -0.253 C  
HETATM    4  N   UNL     1     -10.080   8.361  70.085  1.00  0.00    -0.188 NA 
HETATM    5  C   UNL     1      -8.735   8.695  72.105  1.00  0.00    -0.217 C  
HETATM    6  C   UNL     1      -8.903   7.814  70.853  1.00  0.00    -0.142 C  
HETATM    7  C   UNL     1      -9.320   6.367  71.240  1.00  0.00    -0.162 C  
HETATM    8  C   UNL     1      -7.518   7.719  70.205  1.00  0.00    -0.083 C  
ENDROOT
BRANCH   4   9
HETATM    9  C   UNL     1     -10.018   9.095  68.913  1.00  0.00    -0.180 A  
HETATM   10  N   UNL     1     -10.237  10.441  69.071  1.00  0.00    -0.204 NA 
HETATM   11  C   UNL     1     -10.159  11.338  68.047  1.00  0.00    -0.177 A  
HETATM   12  C   UNL     1      -9.851  10.919  66.774  1.00  0.00    -0.231 A  
HETATM   13  C   UNL     1      -9.718   8.597  67.624  1.00  0.00    -0.201 A  
HETATM   14  C   UNL     1      -9.624   9.551  66.575  1.00  0.00    -0.259 A  
BRANCH  11  15
HETATM   15  N   UNL     1     -10.388  12.744  68.320  1.00  0.00    -0.238 NA 
HETATM   16  C   UNL     1     -11.585  13.421  68.132  1.00  0.00    -0.341 A  
HETATM   17  C   UNL     1     -11.384  14.729  68.484  1.00  0.00    -0.309 A  
HETATM   18  N   UNL     1      -9.425  13.593  68.823  1.00  0.00    -0.062 NA 
HETATM   19  C   UNL     1     -10.049  14.777  68.889  1.00  0.00    -0.237 A  
BRANCH  19  20
HETATM   20  O   UNL     1      -9.448  15.912  69.310  1.00  0.00    -0.235 OA 
BRANCH  20  21
HETATM   21  C   UNL     1      -8.027  15.960  69.201  1.00  0.00    -0.233 C  
BRANCH  21  22
HETATM   22  C   UNL     1      -7.604  17.250  68.445  1.00  0.00    -0.241 C  
HETATM   23  F   UNL     1      -6.542  19.057  69.616  1.00  0.00    -0.298 F  
HETATM   24  F   UNL     1      -5.893  17.048  70.120  1.00  0.00    -0.212 F  
HETATM   25  C   UNL     1      -8.740  18.292  68.490  1.00  0.00    -0.325 C  
HETATM   26  C   UNL     1      -7.331  16.933  66.959  1.00  0.00    -0.228 C  
HETATM   27  C   UNL     1      -6.335  17.822  69.104  1.00  0.00    -0.233 C  
HETATM   28  F   UNL     1      -5.311  17.933  68.226  1.00  0.00    -0.146 F  
ENDBRANCH  21  22
ENDBRANCH  20  21
ENDBRANCH  19  20
ENDBRANCH  11  15
BRANCH  13  29
HETATM   29  C   UNL     1      -9.440   7.179  67.149  1.00  0.00    -0.147 C  
HETATM   30  H   UNL     1      -7.503   7.119  67.915  1.00  0.00     0.000 HD 
HETATM   31  N   UNL     1      -8.166   6.606  67.334  1.00  0.00    -0.120 N  
HETATM   32  O   UNL     1     -10.368   6.520  66.698  1.00  0.00    -0.195 OA 
BRANCH  31  33
HETATM   33  S   UNL     1      -7.643   5.133  66.670  1.00  0.00    -0.089 S  
HETATM   34  O   UNL     1      -6.254   5.283  66.315  1.00  0.00    -0.029 OA 
HETATM   35  O   UNL     1      -8.037   4.141  67.651  1.00  0.00    -0.093 OA 
BRANCH  33  36
HETATM   36  C   UNL     1      -8.412   4.597  65.201  1.00  0.00    -0.130 A  
HETATM   37  C   UNL     1      -9.298   3.536  65.074  1.00  0.00    -0.155 A  
HETATM   38  N   UNL     1      -9.742   3.542  63.785  1.00  0.00    -0.141 NA 
HETATM   39  N   UNL     1      -9.234   4.540  63.055  1.00  0.00    -0.133 NA 
HETATM   40  C   UNL     1     -10.698   2.672  63.143  1.00  0.00    -0.225 C  
HETATM   41  C   UNL     1      -8.475   5.237  63.914  1.00  0.00    -0.100 A  
HETATM   42  C   UNL     1      -7.950   6.524  63.376  1.00  0.00    -0.077 C  
ENDBRANCH  33  36
ENDBRANCH  31  33
ENDBRANCH  13  29
ENDBRANCH   4   9
TORSDOF 8
ENDMDL
MODEL      111
REMARK 921   NORMALIZED FREE ENERGY PREDICTED BY IDOCK:   -5.01 KCAL/MOL
REMARK 922        TOTAL FREE ENERGY PREDICTED BY IDOCK:   -8.99 KCAL/MOL
REMARK 923 INTER-LIGAND FREE ENERGY PREDICTED BY IDOCK:   -8.16 KCAL/MOL
REMARK 924 INTRA-LIGAND FREE ENERGY PREDICTED BY IDOCK:   -0.83 KCAL/MOL
REMARK 927      BINDING AFFINITY PREDICTED BY RF-SCORE:    0.00 PKD
ROOT
HETATM    1  C   UNL     1     -13.925   8.989  71.035  1.00  0.00     0.016 C  
HETATM    2  C   UNL     1     -12.755   9.563  71.834  1.00  0.00    -0.496 C  
HETATM    3  C   UNL     1     -11.736  10.242  70.924  1.00  0.00    -0.379 C  
HETATM    4  N   UNL     1     -10.739   9.212  70.613  1.00  0.00    -0.234 NA 
HETATM    5  C   UNL     1      -9.419   8.669  72.603  1.00  0.00    -0.188 C  
HETATM    6  C   UNL     1     -10.653   8.258  71.778  1.00  0.00    -0.259 C  
HETATM    7  C   UNL     1     -11.964   8.492  72.580  1.00  0.00    -0.401 C  
HETATM    8  C   UNL     1     -10.534   6.748  71.549  1.00  0.00    -0.236 C  
ENDROOT
BRANCH   4   9
HETATM    9  C   UNL     1     -10.420   8.922  69.297  1.00  0.00    -0.224 A  
HETATM   10  N   UNL     1      -9.943   7.651  69.093  1.00  0.00    -0.176 NA 
HETATM   11  C   UNL     1      -9.630   7.157  67.862  1.00  0.00    -0.133 A  
HETATM   12  C   UNL     1      -9.781   7.935  66.738  1.00  0.00    -0.303 A  
HETATM   13  C   UNL     1     -10.579   9.780  68.184  1.00  0.00    -0.276 A  
HETATM   14  C   UNL     1     -10.264   9.239  66.909  1.00  0.00    -0.327 A  
BRANCH  11  15
HETATM   15  N   UNL     1      -9.152   5.793  67.749  1.00  0.00    -0.107 NA 
HETATM   16  C   UNL     1      -9.702   4.806  66.941  1.00  0.00    -0.188 A  
HETATM   17  C   UNL     1      -8.979   3.658  67.135  1.00  0.00    -0.162 A  
HETATM   18  N   UNL     1      -8.061   5.303  68.435  1.00  0.00    -0.091 NA 
HETATM   19  C   UNL     1      -7.998   4.019  68.061  1.00  0.00    -0.085 A  
BRANCH  19  20
HETATM   20  O   UNL     1      -7.075   3.151  68.529  1.00  0.00    -0.048 OA 
BRANCH  20  21
HETATM   21  C   UNL     1      -7.504   2.252  69.550  1.00  0.00    -0.043 C  
BRANCH  21  22
HETATM   22  C   UNL     1      -7.012   2.759  70.934  1.00  0.00    -0.033 C  
HETATM   23  F   UNL     1      -7.980   4.717  71.931  1.00  0.00    -0.089 F  
HETATM   24  F   UNL     1      -9.346   3.326  70.977  1.00  0.00    -0.158 F  
HETATM   25  C   UNL     1      -5.875   3.787  70.753  1.00  0.00    -0.014 C  
HETATM   26  C   UNL     1      -6.442   1.586  71.760  1.00  0.00    -0.015 C  
HETATM   27  C   UNL     1      -8.194   3.404  71.680  1.00  0.00    -0.065 C  
HETATM   28  F   UNL     1      -8.426   2.813  72.874  1.00  0.00    -0.067 F  
ENDBRANCH  21  22
ENDBRANCH  20  21
ENDBRANCH  19  20
ENDBRANCH  11  15
BRANCH  13  29
HETATM   29  C   UNL     1     -11.069  11.218  68.104  1.00  0.00    -0.259 C  
HETATM   30  H   UNL     1      -9.165  12.054  68.224  1.00  0.00     0.000 HD 
HETATM   31  N   UNL     1     -10.158  12.285  68.226  1.00  0.00    -0.215 N  
HETATM   32  O   UNL     1     -12.246  11.421  67.834  1.00  0.00    -0.592 OA 
BRANCH  31  33
HETATM   33  S   UNL     1     -10.576  13.925  68.376  1.00  0.00    -0.260 S  
HETATM   34  O   UNL     1     -11.101  14.359  67.107  1.00  0.00    -0.296 OA 
HETATM   35  O   UNL     1     -11.411  13.971  69.561  1.00  0.00    -0.259 OA 
BRANCH  33  36
HETATM   36  C   UNL     1      -9.293  15.051  68.725  1.00  0.00    -0.200 A  
HETATM   37  C   UNL     1      -8.021  14.737  69.186  1.00  0.00    -0.133 A  
HETATM   38  N   UNL     1      -7.310  15.900  69.211  1.00  0.00    -0.211 NA 
HETATM   39  N   UNL     1      -8.007  16.956  68.781  1.00  0.00    -0.252 NA 
HETATM   40  C   UNL     1      -5.932  16.121  69.579  1.00  0.00    -0.162 C  
HETATM   41  C   UNL     1      -9.195  16.453  68.414  1.00  0.00    -0.217 A  
HETATM   42  C   UNL     1     -10.089  17.418  67.712  1.00  0.00    -0.323 C  
ENDBRANCH  33  36
ENDBRANCH  31  33
ENDBRANCH  13  29
ENDBRANCH   4   9
TORSDOF 8
ENDMDL
MODEL      112
REMARK 921   NORMALIZED FREE ENERGY PREDICTED BY IDOCK:   -5.01 KCAL/MOL
REMARK 922        TOTAL FREE ENERGY PREDICTED BY IDOCK:   -8.98 KCAL/MOL
REMARK 923 INTER-LIGAND FREE ENERGY PREDICTED BY IDOCK:   -8.68 KCAL/MOL
REMARK 924 INTRA-LIGAND FREE ENERGY PREDICTED BY IDOCK:   -0.30 KCAL/MOL
REMARK 927      BINDING AFFINITY PREDICTED BY RF-SCORE:    0.00 PKD
ROOT
HETATM    1  C   UNL     1      -8.332   5.805  64.708  1.00  0.00    -0.116 C  
HETATM    2  C   UNL     1      -7.174   6.773  64.468  1.00  0.00    -0.072 C  
HETATM    3  C   UNL     1      -7.094   7.832  65.562  1.00  0.00    -0.063 C  
HETATM    4  N   UNL     1      -7.870   8.973  65.064  1.00  0.00    -0.109 NA 
HETATM    5  C   UNL     1      -6.715  10.040  63.186  1.00  0.00    -0.131 C  
HETATM    6  C   UNL     1      -7.782   8.993  63.559  1.00  0.00    -0.121 C  
HETATM    7  C   UNL     1      -7.321   7.562  63.168  1.00  0.00    -0.090 C  
HETATM    8  C   UNL     1      -9.013   9.312  62.704  1.00  0.00    -0.161 C  
ENDROOT
BRANCH   4   9
HETATM    9  C   UNL     1      -8.892   9.512  65.828  1.00  0.00    -0.162 A  
HETATM   10  N   UNL     1      -9.127  10.846  65.605  1.00  0.00    -0.199 NA 
HETATM   11  C   UNL     1     -10.128  11.543  66.215  1.00  0.00    -0.226 A  
HETATM   12  C   UNL     1     -10.968  10.920  67.107  1.00  0.00    -0.334 A  
HETATM   13  C   UNL     1      -9.708   8.818  66.751  1.00  0.00    -0.286 A  
HETATM   14  C   UNL     1     -10.756   9.558  67.361  1.00  0.00    -0.297 A  
BRANCH  11  15
HETATM   15  N   UNL     1     -10.308  12.946  65.897  1.00  0.00    -0.280 NA 
HETATM   16  C   UNL     1     -10.448  13.475  64.621  1.00  0.00    -0.421 A  
HETATM   17  C   UNL     1     -10.572  14.834  64.746  1.00  0.00    -0.355 A  
HETATM   18  N   UNL     1     -10.375  13.944  66.845  1.00  0.00    -0.264 NA 
HETATM   19  C   UNL     1     -10.513  15.062  66.122  1.00  0.00    -0.305 A  
BRANCH  19  20
HETATM   20  O   UNL     1     -10.591  16.297  66.666  1.00  0.00    -0.304 OA 
BRANCH  20  21
HETATM   21  C   UNL     1     -10.251  17.391  65.816  1.00  0.00    -0.191 C  
BRANCH  21  22
HETATM   22  C   UNL     1      -9.936  18.644  66.679  1.00  0.00    -0.394 C  
HETATM   23  F   UNL     1      -7.828  18.849  67.810  1.00  0.00    -0.244 F  
HETATM   24  F   UNL     1      -7.780  18.081  65.780  1.00  0.00    -0.261 F  
HETATM   25  C   UNL     1     -10.352  18.403  68.144  1.00  0.00    -0.393 C  
HETATM   26  C   UNL     1     -10.740  19.860  66.168  1.00  0.00    -0.434 C  
HETATM   27  C   UNL     1      -8.427  18.940  66.600  1.00  0.00    -0.302 C  
HETATM   28  F   UNL     1      -8.175  20.185  66.135  1.00  0.00    -0.313 F  
ENDBRANCH  21  22
ENDBRANCH  20  21
ENDBRANCH  19  20
ENDBRANCH  11  15
BRANCH  13  29
HETATM   29  C   UNL     1      -9.681   7.365  67.201  1.00  0.00    -0.171 C  
HETATM   30  H   UNL     1      -8.361   7.700  68.778  1.00  0.00     0.000 HD 
HETATM   31  N   UNL     1      -8.833   6.965  68.252  1.00  0.00    -0.123 N  
HETATM   32  O   UNL     1     -10.476   6.581  66.699  1.00  0.00    -0.212 OA 
BRANCH  31  33
HETATM   33  S   UNL     1      -8.530   5.359  68.716  1.00  0.00    -0.095 S  
HETATM   34  O   UNL     1      -9.284   4.502  67.837  1.00  0.00    -0.118 OA 
HETATM   35  O   UNL     1      -7.084   5.267  68.753  1.00  0.00    -0.058 OA 
BRANCH  33  36
HETATM   36  C   UNL     1      -9.021   4.881  70.318  1.00  0.00    -0.108 A  
HETATM   37  C   UNL     1      -9.889   5.569  71.155  1.00  0.00    -0.181 A  
HETATM   38  N   UNL     1     -10.083   4.787  72.254  1.00  0.00    -0.181 NA 
HETATM   39  N   UNL     1      -9.427   3.624  72.199  1.00  0.00    -0.125 NA 
HETATM   40  C   UNL     1     -10.919   5.022  73.407  1.00  0.00    -0.327 C  
HETATM   41  C   UNL     1      -8.829   3.627  70.999  1.00  0.00    -0.082 A  
HETATM   42  C   UNL     1      -8.186   2.337  70.621  1.00  0.00    -0.068 C  
ENDBRANCH  33  36
ENDBRANCH  31  33
ENDBRANCH  13  29
ENDBRANCH   4   9
TORSDOF 8
ENDMDL
MODEL      113
REMARK 921   NORMALIZED FREE ENERGY PREDICTED BY IDOCK:   -4.98 KCAL/MOL
REMARK 922        TOTAL FREE ENERGY PREDICTED BY IDOCK:   -8.94 KCAL/MOL
REMARK 923 INTER-LIGAND FREE ENERGY PREDICTED BY IDOCK:   -8.12 KCAL/MOL
REMARK 924 INTRA-LIGAND FREE ENERGY PREDICTED BY IDOCK:   -0.82 KCAL/MOL
REMARK 927      BINDING AFFINITY PREDICTED BY RF-SCORE:    0.00 PKD
ROOT
HETATM    1  C   UNL     1     -10.625  13.515  64.532  1.00  0.00    -0.439 C  
HETATM    2  C   UNL     1     -10.677  12.142  63.861  1.00  0.00    -0.456 C  
HETATM    3  C   UNL     1     -11.334  11.103  64.764  1.00  0.00     0.140 C  
HETATM    4  N   UNL     1     -10.235  10.466  65.496  1.00  0.00    -0.271 NA 
HETATM    5  C   UNL     1      -8.878   9.097  63.985  1.00  0.00    -0.112 C  
HETATM    6  C   UNL     1      -9.001  10.491  64.630  1.00  0.00    -0.207 C  
HETATM    7  C   UNL     1      -9.291  11.578  63.558  1.00  0.00    -0.147 C  
HETATM    8  C   UNL     1      -7.627  10.811  65.227  1.00  0.00     0.079 C  
ENDROOT
BRANCH   4   9
HETATM    9  C   UNL     1     -10.258  10.406  66.880  1.00  0.00    -0.227 A  
HETATM   10  N   UNL     1     -10.384   9.139  67.393  1.00  0.00    -0.247 NA 
HETATM   11  C   UNL     1     -10.367   8.867  68.729  1.00  0.00    -0.211 A  
HETATM   12  C   UNL     1     -10.220   9.881  69.646  1.00  0.00    -0.261 A  
HETATM   13  C   UNL     1     -10.124  11.496  67.771  1.00  0.00    -0.198 A  
HETATM   14  C   UNL     1     -10.090  11.188  69.158  1.00  0.00    -0.134 A  
BRANCH  11  15
HETATM   15  N   UNL     1     -10.488   7.492  69.172  1.00  0.00    -0.216 NA 
HETATM   16  C   UNL     1     -11.164   7.063  70.306  1.00  0.00    -0.298 A  
HETATM   17  C   UNL     1     -11.026   5.702  70.383  1.00  0.00    -0.278 A  
HETATM   18  N   UNL     1      -9.945   6.419  68.497  1.00  0.00    -0.137 NA 
HETATM   19  C   UNL     1     -10.268   5.367  69.260  1.00  0.00    -0.245 A  
BRANCH  19  20
HETATM   20  O   UNL     1      -9.901   4.098  68.973  1.00  0.00    -0.154 OA 
BRANCH  20  21
HETATM   21  C   UNL     1      -8.507   3.805  69.049  1.00  0.00    -0.073 C  
BRANCH  21  22
HETATM   22  C   UNL     1      -7.955   3.511  67.627  1.00  0.00    -0.081 C  
HETATM   23  F   UNL     1      -7.690   5.285  66.030  1.00  0.00    -0.086 F  
HETATM   24  F   UNL     1      -7.088   5.708  68.072  1.00  0.00    -0.063 F  
HETATM   25  C   UNL     1      -9.116   3.221  66.653  1.00  0.00    -0.180 C  
HETATM   26  C   UNL     1      -7.054   2.258  67.652  1.00  0.00    -0.048 C  
HETATM   27  C   UNL     1      -7.150   4.730  67.140  1.00  0.00    -0.072 C  
HETATM   28  F   UNL     1      -5.873   4.406  66.831  1.00  0.00    -0.019 F  
ENDBRANCH  21  22
ENDBRANCH  20  21
ENDBRANCH  19  20
ENDBRANCH  11  15
BRANCH  13  29
HETATM   29  C   UNL     1      -9.976  12.986  67.500  1.00  0.00    -0.212 C  
HETATM   30  H   UNL     1     -11.330  13.562  68.976  1.00  0.00     0.000 HD 
HETATM   31  N   UNL     1     -10.772  13.915  68.198  1.00  0.00    -0.245 N  
HETATM   32  O   UNL     1      -9.091  13.358  66.741  1.00  0.00    -0.242 OA 
BRANCH  31  33
HETATM   33  S   UNL     1     -10.880  15.574  67.854  1.00  0.00    -0.315 S  
HETATM   34  O   UNL     1     -11.053  15.714  66.430  1.00  0.00    -0.254 OA 
HETATM   35  O   UNL     1     -11.903  16.060  68.759  1.00  0.00    -0.375 OA 
BRANCH  33  36
HETATM   36  C   UNL     1      -9.492  16.562  68.223  1.00  0.00    -0.220 A  
HETATM   37  C   UNL     1      -8.285  16.125  68.750  1.00  0.00    -0.216 A  
HETATM   38  N   UNL     1      -7.448  17.200  68.768  1.00  0.00    -0.242 NA 
HETATM   39  N   UNL     1      -8.002  18.311  68.274  1.00  0.00    -0.290 NA 
HETATM   40  C   UNL     1      -6.070  17.279  69.190  1.00  0.00    -0.217 C  
HETATM   41  C   UNL     1      -9.223  17.931  67.871  1.00  0.00    -0.263 A  
HETATM   42  C   UNL     1      -9.972  18.964  67.099  1.00  0.00    -0.382 C  
ENDBRANCH  33  36
ENDBRANCH  31  33
ENDBRANCH  13  29
ENDBRANCH   4   9
TORSDOF 8
ENDMDL
MODEL      114
REMARK 921   NORMALIZED FREE ENERGY PREDICTED BY IDOCK:   -4.93 KCAL/MOL
REMARK 922        TOTAL FREE ENERGY PREDICTED BY IDOCK:   -8.86 KCAL/MOL
REMARK 923 INTER-LIGAND FREE ENERGY PREDICTED BY IDOCK:   -6.80 KCAL/MOL
REMARK 924 INTRA-LIGAND FREE ENERGY PREDICTED BY IDOCK:   -2.07 KCAL/MOL
REMARK 927      BINDING AFFINITY PREDICTED BY RF-SCORE:    0.00 PKD
ROOT
HETATM    1  C   UNL     1     -10.705  12.673  64.102  1.00  0.00    -0.435 C  
HETATM    2  C   UNL     1     -10.744  11.147  64.041  1.00  0.00    -0.409 C  
HETATM    3  C   UNL     1     -10.300  10.523  65.360  1.00  0.00    -0.222 C  
HETATM    4  N   UNL     1      -8.861  10.278  65.215  1.00  0.00    -0.170 NA 
HETATM    5  C   UNL     1      -8.457   8.483  63.598  1.00  0.00    -0.030 C  
HETATM    6  C   UNL     1      -8.563  10.011  63.761  1.00  0.00    -0.198 C  
HETATM    7  C   UNL     1      -9.794  10.570  62.995  1.00  0.00    -0.267 C  
HETATM    8  C   UNL     1      -7.317  10.602  63.093  1.00  0.00     0.082 C  
ENDROOT
BRANCH   4   9
HETATM    9  C   UNL     1      -7.969  10.770  66.153  1.00  0.00    -0.157 A  
HETATM   10  N   UNL     1      -8.303  11.999  66.666  1.00  0.00    -0.134 NA 
HETATM   11  C   UNL     1      -7.584  12.624  67.642  1.00  0.00    -0.152 A  
HETATM   12  C   UNL     1      -6.459  12.032  68.168  1.00  0.00    -0.054 A  
HETATM   13  C   UNL     1      -6.812  10.118  66.636  1.00  0.00    -0.084 A  
HETATM   14  C   UNL     1      -6.088  10.778  67.665  1.00  0.00    -0.047 A  
BRANCH  11  15
HETATM   15  N   UNL     1      -8.030  13.913  68.133  1.00  0.00    -0.137 NA 
HETATM   16  C   UNL     1      -7.584  14.538  69.290  1.00  0.00    -0.073 A  
HETATM   17  C   UNL     1      -8.261  15.722  69.412  1.00  0.00    -0.211 A  
HETATM   18  N   UNL     1      -8.962  14.698  67.489  1.00  0.00    -0.182 NA 
HETATM   19  C   UNL     1      -9.092  15.762  68.291  1.00  0.00    -0.187 A  
BRANCH  19  20
HETATM   20  O   UNL     1      -9.943  16.782  68.043  1.00  0.00    -0.256 OA 
BRANCH  20  21
HETATM   21  C   UNL     1      -9.654  18.024  68.683  1.00  0.00    -0.328 C  
BRANCH  21  22
HETATM   22  C   UNL     1      -9.587  19.157  67.621  1.00  0.00    -0.375 C  
HETATM   23  F   UNL     1      -7.841  20.802  67.701  1.00  0.00    -0.336 F  
HETATM   24  F   UNL     1      -7.265  18.745  68.082  1.00  0.00    -0.237 F  
HETATM   25  C   UNL     1     -10.360  20.397  68.115  1.00  0.00    -0.255 C  
HETATM   26  C   UNL     1     -10.252  18.696  66.306  1.00  0.00    -0.462 C  
HETATM   27  C   UNL     1      -8.112  19.519  67.368  1.00  0.00    -0.280 C  
HETATM   28  F   UNL     1      -7.769  19.375  66.067  1.00  0.00    -0.271 F  
ENDBRANCH  21  22
ENDBRANCH  20  21
ENDBRANCH  19  20
ENDBRANCH  11  15
BRANCH  13  29
HETATM   29  C   UNL     1      -6.198   8.778  66.258  1.00  0.00    -0.060 C  
HETATM   30  H   UNL     1      -7.851   7.660  66.856  1.00  0.00     0.000 HD 
HETATM   31  N   UNL     1      -6.887   7.581  66.534  1.00  0.00    -0.060 N  
HETATM   32  O   UNL     1      -5.150   8.771  65.626  1.00  0.00    -0.030 OA 
BRANCH  31  33
HETATM   33  S   UNL     1      -6.245   6.016  66.375  1.00  0.00    -0.038 S  
HETATM   34  O   UNL     1      -5.952   5.804  64.980  1.00  0.00    -0.024 OA 
HETATM   35  O   UNL     1      -5.176   5.970  67.354  1.00  0.00    -0.004 OA 
BRANCH  33  36
HETATM   36  C   UNL     1      -7.272   4.678  66.813  1.00  0.00    -0.080 A  
HETATM   37  C   UNL     1      -6.891   3.538  67.506  1.00  0.00    -0.050 A  
HETATM   38  N   UNL     1      -8.023   2.814  67.732  1.00  0.00    -0.067 NA 
HETATM   39  N   UNL     1      -9.129   3.400  67.261  1.00  0.00    -0.160 NA 
HETATM   40  C   UNL     1      -8.185   1.566  68.438  1.00  0.00    -0.056 C  
HETATM   41  C   UNL     1      -8.706   4.569  66.758  1.00  0.00    -0.111 A  
HETATM   42  C   UNL     1      -9.796   5.497  66.342  1.00  0.00    -0.192 C  
ENDBRANCH  33  36
ENDBRANCH  31  33
ENDBRANCH  13  29
ENDBRANCH   4   9
TORSDOF 8
ENDMDL
MODEL      115
REMARK 921   NORMALIZED FREE ENERGY PREDICTED BY IDOCK:   -4.93 KCAL/MOL
REMARK 922        TOTAL FREE ENERGY PREDICTED BY IDOCK:   -8.86 KCAL/MOL
REMARK 923 INTER-LIGAND FREE ENERGY PREDICTED BY IDOCK:   -7.15 KCAL/MOL
REMARK 924 INTRA-LIGAND FREE ENERGY PREDICTED BY IDOCK:   -1.71 KCAL/MOL
REMARK 927      BINDING AFFINITY PREDICTED BY RF-SCORE:    0.00 PKD
ROOT
HETATM    1  C   UNL     1      -5.182   9.764  66.972  1.00  0.00    -0.041 C  
HETATM    2  C   UNL     1      -6.169  10.545  66.104  1.00  0.00    -0.111 C  
HETATM    3  C   UNL     1      -7.236  11.232  66.951  1.00  0.00    -0.142 C  
HETATM    4  N   UNL     1      -8.360  10.291  67.007  1.00  0.00    -0.125 NA 
HETATM    5  C   UNL     1      -9.436  10.109  64.814  1.00  0.00    -0.355 C  
HETATM    6  C   UNL     1      -8.373   9.480  65.735  1.00  0.00    -0.128 C  
HETATM    7  C   UNL     1      -6.947   9.651  65.141  1.00  0.00    -0.106 C  
HETATM    8  C   UNL     1      -8.664   7.976  65.765  1.00  0.00    -0.175 C  
ENDROOT
BRANCH   4   9
HETATM    9  C   UNL     1      -8.885   9.900  68.227  1.00  0.00    -0.119 A  
HETATM   10  N   UNL     1      -8.186   8.899  68.855  1.00  0.00    -0.116 NA 
HETATM   11  C   UNL     1      -8.510   8.419  70.090  1.00  0.00    -0.126 A  
HETATM   12  C   UNL     1      -9.585   8.931  70.777  1.00  0.00    -0.283 A  
HETATM   13  C   UNL     1     -10.014  10.455  68.873  1.00  0.00    -0.208 A  
HETATM   14  C   UNL     1     -10.323   9.953  70.166  1.00  0.00    -0.336 A  
BRANCH  11  15
HETATM   15  N   UNL     1      -7.696   7.373  70.677  1.00  0.00    -0.090 NA 
HETATM   16  C   UNL     1      -7.209   7.360  71.977  1.00  0.00    -0.067 A  
HETATM   17  C   UNL     1      -6.471   6.216  72.134  1.00  0.00    -0.058 A  
HETATM   18  N   UNL     1      -7.310   6.234  70.004  1.00  0.00    -0.080 NA 
HETATM   19  C   UNL     1      -6.562   5.574  70.897  1.00  0.00    -0.043 A  
BRANCH  19  20
HETATM   20  O   UNL     1      -5.952   4.397  70.634  1.00  0.00    -0.013 OA 
BRANCH  20  21
HETATM   21  C   UNL     1      -5.502   4.197  69.296  1.00  0.00    -0.012 C  
BRANCH  21  22
HETATM   22  C   UNL     1      -6.172   2.926  68.703  1.00  0.00    -0.029 C  
HETATM   23  F   UNL     1      -7.972   3.117  67.126  1.00  0.00    -0.076 F  
HETATM   24  F   UNL     1      -6.300   4.477  66.872  1.00  0.00    -0.032 F  
HETATM   25  C   UNL     1      -7.379   2.506  69.567  1.00  0.00    -0.044 C  
HETATM   26  C   UNL     1      -5.175   1.747  68.705  1.00  0.00    -0.012 C  
HETATM   27  C   UNL     1      -6.630   3.226  67.264  1.00  0.00    -0.038 C  
HETATM   28  F   UNL     1      -6.078   2.378  66.366  1.00  0.00    -0.021 F  
ENDBRANCH  21  22
ENDBRANCH  20  21
ENDBRANCH  19  20
ENDBRANCH  11  15
BRANCH  13  29
HETATM   29  C   UNL     1     -10.972  11.550  68.427  1.00  0.00    -0.221 C  
HETATM   30  H   UNL     1      -9.498  13.014  68.274  1.00  0.00     0.000 HD 
HETATM   31  N   UNL     1     -10.506  12.866  68.240  1.00  0.00    -0.236 N  
HETATM   32  O   UNL     1     -12.122  11.242  68.144  1.00  0.00    -0.635 OA 
BRANCH  31  33
HETATM   33  S   UNL     1     -11.484  14.226  67.962  1.00  0.00    -0.333 S  
HETATM   34  O   UNL     1     -12.531  13.833  67.054  1.00  0.00    -0.315 OA 
HETATM   35  O   UNL     1     -11.818  14.701  69.291  1.00  0.00    -0.294 OA 
BRANCH  33  36
HETATM   36  C   UNL     1     -10.742  15.606  67.200  1.00  0.00    -0.314 A  
HETATM   37  C   UNL     1     -10.221  16.722  67.841  1.00  0.00    -0.300 A  
HETATM   38  N   UNL     1      -9.639  17.495  66.881  1.00  0.00    -0.268 NA 
HETATM   39  N   UNL     1      -9.715  16.965  65.656  1.00  0.00    -0.548 NA 
HETATM   40  C   UNL     1      -8.929  18.744  67.019  1.00  0.00    -0.291 C  
HETATM   41  C   UNL     1     -10.321  15.782  65.835  1.00  0.00    -0.354 A  
HETATM   42  C   UNL     1     -10.347  14.908  64.627  1.00  0.00    -0.056 C  
ENDBRANCH  33  36
ENDBRANCH  31  33
ENDBRANCH  13  29
ENDBRANCH   4   9
TORSDOF 8
ENDMDL
MODEL      116
REMARK 921   NORMALIZED FREE ENERGY PREDICTED BY IDOCK:   -4.90 KCAL/MOL
REMARK 922        TOTAL FREE ENERGY PREDICTED BY IDOCK:   -8.83 KCAL/MOL
REMARK 923 INTER-LIGAND FREE ENERGY PREDICTED BY IDOCK:   -6.96 KCAL/MOL
REMARK 924 INTRA-LIGAND FREE ENERGY PREDICTED BY IDOCK:   -1.87 KCAL/MOL
REMARK 927      BINDING AFFINITY PREDICTED BY RF-SCORE:    0.00 PKD
ROOT
HETATM    1  C   UNL     1     -10.258  12.532  64.327  1.00  0.00    -0.359 C  
HETATM    2  C   UNL     1     -10.386  11.013  64.208  1.00  0.00    -0.430 C  
HETATM    3  C   UNL     1     -10.403  10.345  65.579  1.00  0.00    -0.195 C  
HETATM    4  N   UNL     1      -9.008   9.990  65.862  1.00  0.00    -0.148 NA 
HETATM    5  C   UNL     1      -8.266   8.184  64.383  1.00  0.00    -0.105 C  
HETATM    6  C   UNL     1      -8.308   9.715  64.555  1.00  0.00    -0.169 C  
HETATM    7  C   UNL     1      -9.209  10.375  63.475  1.00  0.00    -0.310 C  
HETATM    8  C   UNL     1      -6.880  10.214  64.308  1.00  0.00    -0.103 C  
ENDROOT
BRANCH   4   9
HETATM    9  C   UNL     1      -8.405  10.404  67.038  1.00  0.00    -0.127 A  
HETATM   10  N   UNL     1      -8.185  11.757  67.121  1.00  0.00    -0.162 NA 
HETATM   11  C   UNL     1      -7.657  12.364  68.222  1.00  0.00    -0.131 A  
HETATM   12  C   UNL     1      -7.310  11.625  69.328  1.00  0.00     0.025 A  
HETATM   13  C   UNL     1      -8.050   9.584  68.134  1.00  0.00    -0.102 A  
HETATM   14  C   UNL     1      -7.519  10.240  69.278  1.00  0.00    -0.112 A  
BRANCH  11  15
HETATM   15  N   UNL     1      -7.482  13.803  68.219  1.00  0.00    -0.108 NA 
HETATM   16  C   UNL     1      -6.334  14.479  67.827  1.00  0.00    -0.152 A  
HETATM   17  C   UNL     1      -6.563  15.819  67.992  1.00  0.00    -0.147 A  
HETATM   18  N   UNL     1      -8.461  14.695  68.602  1.00  0.00    -0.161 NA 
HETATM   19  C   UNL     1      -7.872  15.890  68.473  1.00  0.00    -0.142 A  
BRANCH  19  20
HETATM   20  O   UNL     1      -8.481  17.058  68.776  1.00  0.00    -0.254 OA 
BRANCH  20  21
HETATM   21  C   UNL     1      -7.788  18.251  68.415  1.00  0.00    -0.305 C  
BRANCH  21  22
HETATM   22  C   UNL     1      -8.786  19.269  67.796  1.00  0.00    -0.345 C  
HETATM   23  F   UNL     1      -8.489  20.056  65.547  1.00  0.00    -0.297 F  
HETATM   24  F   UNL     1      -8.160  17.939  65.895  1.00  0.00    -0.254 F  
HETATM   25  C   UNL     1      -8.297  20.712  68.040  1.00  0.00     0.106 C  
HETATM   26  C   UNL     1     -10.170  19.134  68.466  1.00  0.00    -0.448 C  
HETATM   27  C   UNL     1      -8.903  18.999  66.285  1.00  0.00    -0.277 C  
HETATM   28  F   UNL     1     -10.177  18.741  65.911  1.00  0.00    -0.385 F  
ENDBRANCH  21  22
ENDBRANCH  20  21
ENDBRANCH  19  20
ENDBRANCH  11  15
BRANCH  13  29
HETATM   29  C   UNL     1      -8.166   8.080  68.325  1.00  0.00    -0.123 C  
HETATM   30  H   UNL     1      -6.109   7.762  68.420  1.00  0.00     0.000 HD 
HETATM   31  N   UNL     1      -7.007   7.281  68.373  1.00  0.00    -0.076 N  
HETATM   32  O   UNL     1      -9.272   7.599  68.532  1.00  0.00    -0.144 OA 
BRANCH  31  33
HETATM   33  S   UNL     1      -6.980   5.582  68.360  1.00  0.00    -0.066 S  
HETATM   34  O   UNL     1      -5.708   5.170  67.823  1.00  0.00    -0.015 OA 
HETATM   35  O   UNL     1      -7.352   5.210  69.711  1.00  0.00    -0.058 OA 
BRANCH  33  36
HETATM   36  C   UNL     1      -8.157   4.769  67.364  1.00  0.00    -0.102 A  
HETATM   37  C   UNL     1      -8.444   5.045  66.034  1.00  0.00    -0.116 A  
HETATM   38  N   UNL     1      -9.336   4.102  65.617  1.00  0.00    -0.150 NA 
HETATM   39  N   UNL     1      -9.644   3.210  66.564  1.00  0.00    -0.042 NA 
HETATM   40  C   UNL     1      -9.929   3.918  64.315  1.00  0.00    -0.193 C  
HETATM   41  C   UNL     1      -8.886   3.554  67.615  1.00  0.00    -0.125 A  
HETATM   42  C   UNL     1      -8.910   2.581  68.744  1.00  0.00    -0.154 C  
ENDBRANCH  33  36
ENDBRANCH  31  33
ENDBRANCH  13  29
ENDBRANCH   4   9
TORSDOF 8
ENDMDL
MODEL      117
REMARK 921   NORMALIZED FREE ENERGY PREDICTED BY IDOCK:   -4.88 KCAL/MOL
REMARK 922        TOTAL FREE ENERGY PREDICTED BY IDOCK:   -8.80 KCAL/MOL
REMARK 923 INTER-LIGAND FREE ENERGY PREDICTED BY IDOCK:   -7.91 KCAL/MOL
REMARK 924 INTRA-LIGAND FREE ENERGY PREDICTED BY IDOCK:   -0.88 KCAL/MOL
REMARK 927      BINDING AFFINITY PREDICTED BY RF-SCORE:    0.00 PKD
ROOT
HETATM    1  C   UNL     1     -11.062   9.683  71.531  1.00  0.00    -0.335 C  
HETATM    2  C   UNL     1     -11.485   9.565  70.067  1.00  0.00    -0.149 C  
HETATM    3  C   UNL     1     -10.287   9.317  69.157  1.00  0.00    -0.211 C  
HETATM    4  N   UNL     1      -9.854  10.643  68.703  1.00  0.00    -0.172 NA 
HETATM    5  C   UNL     1     -11.510  11.608  67.177  1.00  0.00    -0.344 C  
HETATM    6  C   UNL     1     -11.059  11.549  68.649  1.00  0.00    -0.238 C  
HETATM    7  C   UNL     1     -12.126  10.843  69.531  1.00  0.00    -0.380 C  
HETATM    8  C   UNL     1     -10.973  13.001  69.130  1.00  0.00    -0.190 C  
ENDROOT
BRANCH   4   9
HETATM    9  C   UNL     1      -8.540  11.045  68.868  1.00  0.00    -0.119 A  
HETATM   10  N   UNL     1      -8.299  12.356  68.536  1.00  0.00    -0.126 NA 
HETATM   11  C   UNL     1      -7.083  12.955  68.684  1.00  0.00    -0.103 A  
HETATM   12  C   UNL     1      -6.014  12.250  69.187  1.00  0.00    -0.080 A  
HETATM   13  C   UNL     1      -7.477  10.260  69.371  1.00  0.00    -0.128 A  
HETATM   14  C   UNL     1      -6.223  10.909  69.534  1.00  0.00    -0.073 A  
BRANCH  11  15
HETATM   15  N   UNL     1      -6.935  14.351  68.323  1.00  0.00    -0.101 NA 
HETATM   16  C   UNL     1      -5.770  14.948  67.858  1.00  0.00    -0.125 A  
HETATM   17  C   UNL     1      -6.036  16.276  67.653  1.00  0.00    -0.173 A  
HETATM   18  N   UNL     1      -7.958  15.272  68.387  1.00  0.00    -0.127 NA 
HETATM   19  C   UNL     1      -7.382  16.417  67.999  1.00  0.00    -0.136 A  
BRANCH  19  20
HETATM   20  O   UNL     1      -8.035  17.598  67.943  1.00  0.00    -0.220 OA 
BRANCH  20  21
HETATM   21  C   UNL     1      -8.524  17.996  66.663  1.00  0.00    -0.262 C  
BRANCH  21  22
HETATM   22  C   UNL     1     -10.077  17.940  66.656  1.00  0.00    -0.362 C  
HETATM   23  F   UNL     1     -11.253  16.949  64.812  1.00  0.00    -0.429 F  
HETATM   24  F   UNL     1      -9.481  15.911  65.515  1.00  0.00    -0.342 F  
HETATM   25  C   UNL     1     -10.654  19.188  65.957  1.00  0.00    -0.524 C  
HETATM   26  C   UNL     1     -10.618  17.933  68.102  1.00  0.00    -0.351 C  
HETATM   27  C   UNL     1     -10.528  16.665  65.919  1.00  0.00    -0.313 C  
HETATM   28  F   UNL     1     -11.301  15.873  66.697  1.00  0.00    -0.197 F  
ENDBRANCH  21  22
ENDBRANCH  20  21
ENDBRANCH  19  20
ENDBRANCH  11  15
BRANCH  13  29
HETATM   29  C   UNL     1      -7.441   8.803  69.808  1.00  0.00    -0.056 C  
HETATM   30  H   UNL     1      -7.283   8.048  67.872  1.00  0.00     0.000 HD 
HETATM   31  N   UNL     1      -7.419   7.775  68.845  1.00  0.00    -0.093 N  
HETATM   32  O   UNL     1      -7.334   8.552  71.001  1.00  0.00    -0.058 OA 
BRANCH  31  33
HETATM   33  S   UNL     1      -7.599   6.118  69.170  1.00  0.00    -0.096 S  
HETATM   34  O   UNL     1      -8.138   5.497  67.987  1.00  0.00    -0.096 OA 
HETATM   35  O   UNL     1      -6.301   5.711  69.674  1.00  0.00    -0.033 OA 
BRANCH  33  36
HETATM   36  C   UNL     1      -8.702   5.665  70.442  1.00  0.00    -0.133 A  
HETATM   37  C   UNL     1      -9.798   6.394  70.881  1.00  0.00    -0.184 A  
HETATM   38  N   UNL     1     -10.443   5.623  71.802  1.00  0.00    -0.222 NA 
HETATM   39  N   UNL     1      -9.870   4.430  71.988  1.00  0.00    -0.169 NA 
HETATM   40  C   UNL     1     -11.655   5.898  72.537  1.00  0.00    -0.277 C  
HETATM   41  C   UNL     1      -8.848   4.404  71.121  1.00  0.00    -0.115 A  
HETATM   42  C   UNL     1      -8.166   3.084  71.003  1.00  0.00    -0.074 C  
ENDBRANCH  33  36
ENDBRANCH  31  33
ENDBRANCH  13  29
ENDBRANCH   4   9
TORSDOF 8
ENDMDL
MODEL      118
REMARK 921   NORMALIZED FREE ENERGY PREDICTED BY IDOCK:   -4.84 KCAL/MOL
REMARK 922        TOTAL FREE ENERGY PREDICTED BY IDOCK:   -8.74 KCAL/MOL
REMARK 923 INTER-LIGAND FREE ENERGY PREDICTED BY IDOCK:   -7.47 KCAL/MOL
REMARK 924 INTRA-LIGAND FREE ENERGY PREDICTED BY IDOCK:   -1.27 KCAL/MOL
REMARK 927      BINDING AFFINITY PREDICTED BY RF-SCORE:    0.00 PKD
ROOT
HETATM    1  C   UNL     1     -10.458  13.209  64.212  1.00  0.00    -0.410 C  
HETATM    2  C   UNL     1     -10.455  11.731  63.824  1.00  0.00    -0.466 C  
HETATM    3  C   UNL     1     -11.221  10.885  64.836  1.00  0.00     0.312 C  
HETATM    4  N   UNL     1     -10.218  10.414  65.797  1.00  0.00    -0.255 NA 
HETATM    5  C   UNL     1      -8.721   8.785  64.744  1.00  0.00    -0.133 C  
HETATM    6  C   UNL     1      -8.896  10.278  65.083  1.00  0.00    -0.184 C  
HETATM    7  C   UNL     1      -9.051  11.130  63.793  1.00  0.00    -0.081 C  
HETATM    8  C   UNL     1      -7.591  10.721  65.754  1.00  0.00    -0.079 C  
ENDROOT
BRANCH   4   9
HETATM    9  C   UNL     1     -10.393  10.629  67.153  1.00  0.00    -0.228 A  
HETATM   10  N   UNL     1     -10.685   9.498  67.876  1.00  0.00    -0.248 NA 
HETATM   11  C   UNL     1     -10.834   9.493  69.231  1.00  0.00    -0.191 A  
HETATM   12  C   UNL     1     -10.697  10.655  69.953  1.00  0.00    -0.260 A  
HETATM   13  C   UNL     1     -10.259  11.861  67.834  1.00  0.00    -0.203 A  
HETATM   14  C   UNL     1     -10.401  11.830  69.248  1.00  0.00     0.084 A  
BRANCH  11  15
HETATM   15  N   UNL     1     -11.123   8.242  69.905  1.00  0.00    -0.163 NA 
HETATM   16  C   UNL     1     -11.979   8.084  70.987  1.00  0.00    -0.245 A  
HETATM   17  C   UNL     1     -11.960   6.761  71.343  1.00  0.00    -0.403 A  
HETATM   18  N   UNL     1     -10.579   7.030  69.537  1.00  0.00    -0.227 NA 
HETATM   19  C   UNL     1     -11.085   6.170  70.430  1.00  0.00    -0.352 A  
BRANCH  19  20
HETATM   20  O   UNL     1     -10.783   4.853  70.449  1.00  0.00    -0.100 OA 
BRANCH  20  21
HETATM   21  C   UNL     1      -9.624   4.454  69.720  1.00  0.00    -0.205 C  
BRANCH  21  22
HETATM   22  C   UNL     1      -8.666   3.663  70.653  1.00  0.00    -0.124 C  
HETATM   23  F   UNL     1      -6.335   4.230  70.772  1.00  0.00    -0.019 F  
HETATM   24  F   UNL     1      -7.744   5.881  70.727  1.00  0.00    -0.087 F  
HETATM   25  C   UNL     1      -8.026   2.486  69.888  1.00  0.00    -0.053 C  
HETATM   26  C   UNL     1      -9.449   3.065  71.841  1.00  0.00    -0.207 C  
HETATM   27  C   UNL     1      -7.571   4.615  71.169  1.00  0.00    -0.079 C  
HETATM   28  F   UNL     1      -7.543   4.675  72.520  1.00  0.00    -0.076 F  
ENDBRANCH  21  22
ENDBRANCH  20  21
ENDBRANCH  19  20
ENDBRANCH  11  15
BRANCH  13  29
HETATM   29  C   UNL     1      -9.953  13.255  67.309  1.00  0.00    -0.231 C  
HETATM   30  H   UNL     1     -11.414  14.195  68.459  1.00  0.00     0.000 HD 
HETATM   31  N   UNL     1     -10.741  14.352  67.709  1.00  0.00    -0.246 N  
HETATM   32  O   UNL     1      -8.956  13.415  66.617  1.00  0.00    -0.213 OA 
BRANCH  31  33
HETATM   33  S   UNL     1     -10.664  15.914  67.047  1.00  0.00    -0.251 S  
HETATM   34  O   UNL     1     -11.147  15.837  65.691  1.00  0.00    -0.265 OA 
HETATM   35  O   UNL     1     -11.353  16.745  68.015  1.00  0.00    -0.224 OA 
BRANCH  33  36
HETATM   36  C   UNL     1      -9.090  16.650  66.908  1.00  0.00    -0.228 A  
HETATM   37  C   UNL     1      -8.698  17.585  65.960  1.00  0.00    -0.034 A  
HETATM   38  N   UNL     1      -7.434  17.974  66.287  1.00  0.00    -0.265 NA 
HETATM   39  N   UNL     1      -6.968  17.385  67.393  1.00  0.00    -0.160 NA 
HETATM   40  C   UNL     1      -6.582  18.948  65.646  1.00  0.00    -0.268 C  
HETATM   41  C   UNL     1      -7.984  16.627  67.828  1.00  0.00    -0.172 A  
HETATM   42  C   UNL     1      -7.772  16.013  69.170  1.00  0.00    -0.231 C  
ENDBRANCH  33  36
ENDBRANCH  31  33
ENDBRANCH  13  29
ENDBRANCH   4   9
TORSDOF 8
ENDMDL
MODEL      119
REMARK 921   NORMALIZED FREE ENERGY PREDICTED BY IDOCK:   -4.84 KCAL/MOL
REMARK 922        TOTAL FREE ENERGY PREDICTED BY IDOCK:   -8.73 KCAL/MOL
REMARK 923 INTER-LIGAND FREE ENERGY PREDICTED BY IDOCK:   -8.91 KCAL/MOL
REMARK 924 INTRA-LIGAND FREE ENERGY PREDICTED BY IDOCK:    0.18 KCAL/MOL
REMARK 927      BINDING AFFINITY PREDICTED BY RF-SCORE:    0.00 PKD
ROOT
HETATM    1  C   UNL     1      -7.402   8.529  66.642  1.00  0.00    -0.081 C  
HETATM    2  C   UNL     1      -6.863   8.407  68.067  1.00  0.00    -0.070 C  
HETATM    3  C   UNL     1      -7.976   8.554  69.100  1.00  0.00    -0.112 C  
HETATM    4  N   UNL     1      -7.996   9.977  69.457  1.00  0.00    -0.142 NA 
HETATM    5  C   UNL     1      -5.987  10.568  70.729  1.00  0.00    -0.073 C  
HETATM    6  C   UNL     1      -6.599  10.528  69.316  1.00  0.00    -0.060 C  
HETATM    7  C   UNL     1      -5.857   9.501  68.415  1.00  0.00    -0.040 C  
HETATM    8  C   UNL     1      -6.358  11.912  68.703  1.00  0.00    -0.058 C  
ENDROOT
BRANCH   4   9
HETATM    9  C   UNL     1      -9.171  10.704  69.372  1.00  0.00    -0.051 A  
HETATM   10  N   UNL     1      -9.048  11.912  68.730  1.00  0.00    -0.027 NA 
HETATM   11  C   UNL     1     -10.101  12.745  68.493  1.00  0.00    -0.185 A  
HETATM   12  C   UNL     1     -11.368  12.402  68.901  1.00  0.00    -0.342 A  
HETATM   13  C   UNL     1     -10.445  10.302  69.835  1.00  0.00    -0.304 A  
HETATM   14  C   UNL     1     -11.531  11.176  69.562  1.00  0.00    -0.374 A  
BRANCH  11  15
HETATM   15  N   UNL     1      -9.871  13.991  67.789  1.00  0.00    -0.227 NA 
HETATM   16  C   UNL     1     -10.120  14.218  66.442  1.00  0.00    -0.288 A  
HETATM   17  C   UNL     1      -9.751  15.507  66.161  1.00  0.00    -0.348 A  
HETATM   18  N   UNL     1      -9.380  15.131  68.389  1.00  0.00    -0.191 NA 
HETATM   19  C   UNL     1      -9.301  16.012  67.383  1.00  0.00    -0.217 A  
BRANCH  19  20
HETATM   20  O   UNL     1      -8.834  17.271  67.530  1.00  0.00    -0.215 OA 
BRANCH  20  21
HETATM   21  C   UNL     1      -8.351  17.914  66.352  1.00  0.00    -0.242 C  
BRANCH  21  22
HETATM   22  C   UNL     1      -8.550  19.450  66.476  1.00  0.00    -0.363 C  
HETATM   23  F   UNL     1     -10.059  20.607  65.009  1.00  0.00    -0.194 F  
HETATM   24  F   UNL     1     -10.731  18.701  65.799  1.00  0.00    -0.472 F  
HETATM   25  C   UNL     1      -7.565  20.193  65.550  1.00  0.00    -0.116 C  
HETATM   26  C   UNL     1      -8.259  19.912  67.920  1.00  0.00    -0.318 C  
HETATM   27  C   UNL     1     -10.000  19.799  66.094  1.00  0.00    -0.473 C  
HETATM   28  F   UNL     1     -10.650  20.442  67.092  1.00  0.00    -0.483 F  
ENDBRANCH  21  22
ENDBRANCH  20  21
ENDBRANCH  19  20
ENDBRANCH  11  15
BRANCH  13  29
HETATM   29  C   UNL     1     -10.879   9.045  70.574  1.00  0.00    -0.251 C  
HETATM   30  H   UNL     1      -9.981   7.736  69.224  1.00  0.00     0.000 HD 
HETATM   31  N   UNL     1     -10.599   7.774  70.035  1.00  0.00    -0.235 N  
HETATM   32  O   UNL     1     -11.384   9.162  71.682  1.00  0.00    -0.330 OA 
BRANCH  31  33
HETATM   33  S   UNL     1     -11.204   6.300  70.622  1.00  0.00    -0.332 S  
HETATM   34  O   UNL     1     -12.572   6.518  71.021  1.00  0.00    -0.201 OA 
HETATM   35  O   UNL     1     -10.898   5.347  69.573  1.00  0.00    -0.269 OA 
BRANCH  33  36
HETATM   36  C   UNL     1     -10.441   5.625  72.036  1.00  0.00    -0.219 A  
HETATM   37  C   UNL     1     -10.131   4.288  72.247  1.00  0.00    -0.182 A  
HETATM   38  N   UNL     1      -9.443   4.222  73.422  1.00  0.00    -0.110 NA 
HETATM   39  N   UNL     1      -9.256   5.416  73.994  1.00  0.00    -0.121 NA 
HETATM   40  C   UNL     1      -8.865   3.075  74.080  1.00  0.00    -0.079 C  
HETATM   41  C   UNL     1      -9.794   6.293  73.134  1.00  0.00    -0.167 A  
HETATM   42  C   UNL     1      -9.535   7.724  73.462  1.00  0.00    -0.346 C  
ENDBRANCH  33  36
ENDBRANCH  31  33
ENDBRANCH  13  29
ENDBRANCH   4   9
TORSDOF 8
ENDMDL
MODEL      120
REMARK 921   NORMALIZED FREE ENERGY PREDICTED BY IDOCK:   -4.83 KCAL/MOL
REMARK 922        TOTAL FREE ENERGY PREDICTED BY IDOCK:   -8.72 KCAL/MOL
REMARK 923 INTER-LIGAND FREE ENERGY PREDICTED BY IDOCK:   -7.77 KCAL/MOL
REMARK 924 INTRA-LIGAND FREE ENERGY PREDICTED BY IDOCK:   -0.95 KCAL/MOL
REMARK 927      BINDING AFFINITY PREDICTED BY RF-SCORE:    0.00 PKD
ROOT
HETATM    1  C   UNL     1     -13.541   8.086  71.218  1.00  0.00    -0.196 C  
HETATM    2  C   UNL     1     -12.445   8.762  72.042  1.00  0.00    -0.452 C  
HETATM    3  C   UNL     1     -11.753   9.868  71.252  1.00  0.00    -0.392 C  
HETATM    4  N   UNL     1     -10.591   9.233  70.620  1.00  0.00    -0.239 NA 
HETATM    5  C   UNL     1      -8.918   8.638  72.308  1.00  0.00    -0.245 C  
HETATM    6  C   UNL     1     -10.119   8.106  71.504  1.00  0.00    -0.188 C  
HETATM    7  C   UNL     1     -11.325   7.802  72.437  1.00  0.00    -0.400 C  
HETATM    8  C   UNL     1      -9.675   6.769  70.902  1.00  0.00    -0.186 C  
ENDROOT
BRANCH   4   9
HETATM    9  C   UNL     1     -10.395   9.333  69.253  1.00  0.00    -0.215 A  
HETATM   10  N   UNL     1     -10.274   8.129  68.605  1.00  0.00    -0.204 NA 
HETATM   11  C   UNL     1     -10.135   8.016  67.253  1.00  0.00    -0.240 A  
HETATM   12  C   UNL     1     -10.109   9.137  66.458  1.00  0.00    -0.357 A  
HETATM   13  C   UNL     1     -10.355  10.526  68.494  1.00  0.00    -0.199 A  
HETATM   14  C   UNL     1     -10.228  10.384  67.086  1.00  0.00    -0.271 A  
BRANCH  11  15
HETATM   15  N   UNL     1     -10.034   6.696  66.662  1.00  0.00    -0.165 NA 
HETATM   16  C   UNL     1     -11.023   5.721  66.682  1.00  0.00    -0.128 A  
HETATM   17  C   UNL     1     -10.531   4.616  66.038  1.00  0.00    -0.303 A  
HETATM   18  N   UNL     1      -8.923   6.244  65.981  1.00  0.00    -0.155 NA 
HETATM   19  C   UNL     1      -9.247   4.991  65.640  1.00  0.00    -0.157 A  
BRANCH  19  20
HETATM   20  O   UNL     1      -8.414   4.163  64.971  1.00  0.00    -0.111 OA 
BRANCH  20  21
HETATM   21  C   UNL     1      -8.076   2.938  65.619  1.00  0.00    -0.087 C  
BRANCH  21  22
HETATM   22  C   UNL     1      -6.712   3.091  66.347  1.00  0.00    -0.047 C  
HETATM   23  F   UNL     1      -6.522   4.465  68.307  1.00  0.00    -0.033 F  
HETATM   24  F   UNL     1      -8.281   3.201  68.164  1.00  0.00    -0.074 F  
HETATM   25  C   UNL     1      -5.944   4.309  65.793  1.00  0.00    -0.023 C  
HETATM   26  C   UNL     1      -5.834   1.845  66.103  1.00  0.00    -0.021 C  
HETATM   27  C   UNL     1      -6.967   3.269  67.855  1.00  0.00    -0.050 C  
HETATM   28  F   UNL     1      -6.345   2.320  68.592  1.00  0.00    -0.027 F  
ENDBRANCH  21  22
ENDBRANCH  20  21
ENDBRANCH  19  20
ENDBRANCH  11  15
BRANCH  13  29
HETATM   29  C   UNL     1     -10.454  11.980  68.928  1.00  0.00    -0.125 C  
HETATM   30  H   UNL     1     -12.330  11.767  69.809  1.00  0.00     0.000 HD 
HETATM   31  N   UNL     1     -11.628  12.457  69.544  1.00  0.00    -0.293 N  
HETATM   32  O   UNL     1      -9.465  12.693  68.820  1.00  0.00    -0.047 OA 
BRANCH  31  33
HETATM   33  S   UNL     1     -11.972  14.087  69.880  1.00  0.00    -0.353 S  
HETATM   34  O   UNL     1     -13.403  14.220  69.978  1.00  0.00     0.268 OA 
HETATM   35  O   UNL     1     -11.135  14.397  71.023  1.00  0.00     0.100 OA 
BRANCH  33  36
HETATM   36  C   UNL     1     -11.505  15.268  68.687  1.00  0.00    -0.337 A  
HETATM   37  C   UNL     1     -10.845  16.466  68.926  1.00  0.00    -0.334 A  
HETATM   38  N   UNL     1     -10.577  17.020  67.710  1.00  0.00    -0.352 NA 
HETATM   39  N   UNL     1     -10.990  16.270  66.683  1.00  0.00    -0.107 NA 
HETATM   40  C   UNL     1      -9.881  18.245  67.397  1.00  0.00    -0.316 C  
HETATM   41  C   UNL     1     -11.496  15.165  67.251  1.00  0.00    -0.279 A  
HETATM   42  C   UNL     1     -11.850  14.079  66.293  1.00  0.00    -0.428 C  
ENDBRANCH  33  36
ENDBRANCH  31  33
ENDBRANCH  13  29
ENDBRANCH   4   9
TORSDOF 8
ENDMDL
MODEL      121
REMARK 921   NORMALIZED FREE ENERGY PREDICTED BY IDOCK:   -4.80 KCAL/MOL
REMARK 922        TOTAL FREE ENERGY PREDICTED BY IDOCK:   -8.68 KCAL/MOL
REMARK 923 INTER-LIGAND FREE ENERGY PREDICTED BY IDOCK:   -7.81 KCAL/MOL
REMARK 924 INTRA-LIGAND FREE ENERGY PREDICTED BY IDOCK:   -0.87 KCAL/MOL
REMARK 927      BINDING AFFINITY PREDICTED BY RF-SCORE:    0.00 PKD
ROOT
HETATM    1  C   UNL     1      -7.296  14.548  69.217  1.00  0.00    -0.126 C  
HETATM    2  C   UNL     1      -6.318  13.714  68.389  1.00  0.00    -0.098 C  
HETATM    3  C   UNL     1      -7.017  13.031  67.219  1.00  0.00    -0.035 C  
HETATM    4  N   UNL     1      -7.401  11.703  67.710  1.00  0.00    -0.099 NA 
HETATM    5  C   UNL     1      -5.415  10.309  68.050  1.00  0.00    -0.037 C  
HETATM    6  C   UNL     1      -6.399  11.267  68.749  1.00  0.00    -0.051 C  
HETATM    7  C   UNL     1      -5.687  12.576  69.188  1.00  0.00    -0.075 C  
HETATM    8  C   UNL     1      -6.852  10.557  70.030  1.00  0.00    -0.154 C  
ENDROOT
BRANCH   4   9
HETATM    9  C   UNL     1      -8.713  11.272  67.613  1.00  0.00    -0.131 A  
HETATM   10  N   UNL     1      -8.908   9.956  67.950  1.00  0.00    -0.128 NA 
HETATM   11  C   UNL     1     -10.135   9.362  67.975  1.00  0.00    -0.191 A  
HETATM   12  C   UNL     1     -11.264  10.078  67.652  1.00  0.00    -0.099 A  
HETATM   13  C   UNL     1      -9.832  12.059  67.251  1.00  0.00    -0.200 A  
HETATM   14  C   UNL     1     -11.103  11.425  67.301  1.00  0.00    -0.363 A  
BRANCH  11  15
HETATM   15  N   UNL     1     -10.238   7.969  68.364  1.00  0.00    -0.203 NA 
HETATM   16  C   UNL     1      -9.820   6.884  67.605  1.00  0.00    -0.134 A  
HETATM   17  C   UNL     1     -10.111   5.746  68.311  1.00  0.00    -0.208 A  
HETATM   18  N   UNL     1     -10.764   7.546  69.566  1.00  0.00    -0.235 NA 
HETATM   19  C   UNL     1     -10.692   6.211  69.493  1.00  0.00    -0.320 A  
BRANCH  19  20
HETATM   20  O   UNL     1     -11.134   5.386  70.468  1.00  0.00    -0.139 OA 
BRANCH  20  21
HETATM   21  C   UNL     1     -11.052   5.878  71.804  1.00  0.00    -0.265 C  
BRANCH  21  22
HETATM   22  C   UNL     1     -10.037   5.026  72.614  1.00  0.00    -0.227 C  
HETATM   23  F   UNL     1      -7.729   4.926  71.957  1.00  0.00    -0.087 F  
HETATM   24  F   UNL     1      -8.688   6.872  71.877  1.00  0.00    -0.125 F  
HETATM   25  C   UNL     1      -9.948   3.601  72.028  1.00  0.00    -0.232 C  
HETATM   26  C   UNL     1     -10.502   4.890  74.080  1.00  0.00    -0.329 C  
HETATM   27  C   UNL     1      -8.657   5.707  72.560  1.00  0.00    -0.124 C  
HETATM   28  F   UNL     1      -8.181   5.991  73.794  1.00  0.00    -0.108 F  
ENDBRANCH  21  22
ENDBRANCH  20  21
ENDBRANCH  19  20
ENDBRANCH  11  15
BRANCH  13  29
HETATM   29  C   UNL     1      -9.923  13.517  66.829  1.00  0.00    -0.269 C  
HETATM   30  H   UNL     1     -10.209  14.235  68.764  1.00  0.00     0.000 HD 
HETATM   31  N   UNL     1     -10.211  14.513  67.783  1.00  0.00    -0.225 N  
HETATM   32  O   UNL     1      -9.646  13.812  65.674  1.00  0.00    -0.158 OA 
BRANCH  31  33
HETATM   33  S   UNL     1     -10.559  16.139  67.435  1.00  0.00    -0.294 S  
HETATM   34  O   UNL     1     -11.342  16.167  66.225  1.00  0.00     0.117 OA 
HETATM   35  O   UNL     1     -11.116  16.656  68.670  1.00  0.00    -0.341 OA 
BRANCH  33  36
HETATM   36  C   UNL     1      -9.213  17.196  67.108  1.00  0.00    -0.236 A  
HETATM   37  C   UNL     1      -8.039  16.858  66.449  1.00  0.00    -0.315 A  
HETATM   38  N   UNL     1      -7.317  18.005  66.311  1.00  0.00    -0.261 NA 
HETATM   39  N   UNL     1      -7.934  19.082  66.808  1.00  0.00    -0.250 NA 
HETATM   40  C   UNL     1      -6.040  18.210  65.670  1.00  0.00    -0.230 C  
HETATM   41  C   UNL     1      -9.120  18.626  67.237  1.00  0.00    -0.277 A  
HETATM   42  C   UNL     1     -10.076  19.688  67.664  1.00  0.00    -0.544 C  
ENDBRANCH  33  36
ENDBRANCH  31  33
ENDBRANCH  13  29
ENDBRANCH   4   9
TORSDOF 8
ENDMDL
MODEL      122
REMARK 921   NORMALIZED FREE ENERGY PREDICTED BY IDOCK:   -4.75 KCAL/MOL
REMARK 922        TOTAL FREE ENERGY PREDICTED BY IDOCK:   -8.61 KCAL/MOL
REMARK 923 INTER-LIGAND FREE ENERGY PREDICTED BY IDOCK:   -7.23 KCAL/MOL
REMARK 924 INTRA-LIGAND FREE ENERGY PREDICTED BY IDOCK:   -1.37 KCAL/MOL
REMARK 927      BINDING AFFINITY PREDICTED BY RF-SCORE:    0.00 PKD
ROOT
HETATM    1  C   UNL     1      -9.839  10.568  65.637  1.00  0.00    -0.311 C  
HETATM    2  C   UNL     1     -10.322   9.505  66.624  1.00  0.00    -0.280 C  
HETATM    3  C   UNL     1     -10.144   9.961  68.069  1.00  0.00    -0.171 C  
HETATM    4  N   UNL     1      -8.836   9.448  68.486  1.00  0.00    -0.128 NA 
HETATM    5  C   UNL     1      -8.898   7.007  68.687  1.00  0.00    -0.128 C  
HETATM    6  C   UNL     1      -8.559   8.169  67.734  1.00  0.00    -0.131 C  
HETATM    7  C   UNL     1      -9.533   8.202  66.524  1.00  0.00    -0.286 C  
HETATM    8  C   UNL     1      -7.164   7.873  67.174  1.00  0.00    -0.090 C  
ENDROOT
BRANCH   4   9
HETATM    9  C   UNL     1      -7.884  10.302  69.016  1.00  0.00    -0.114 A  
HETATM   10  N   UNL     1      -7.879  11.561  68.467  1.00  0.00    -0.135 NA 
HETATM   11  C   UNL     1      -7.057  12.562  68.895  1.00  0.00    -0.073 A  
HETATM   12  C   UNL     1      -6.172  12.346  69.924  1.00  0.00    -0.102 A  
HETATM   13  C   UNL     1      -6.982  10.010  70.065  1.00  0.00    -0.135 A  
HETATM   14  C   UNL     1      -6.149  11.072  70.508  1.00  0.00    -0.094 A  
BRANCH  11  15
HETATM   15  N   UNL     1      -7.141  13.863  68.262  1.00  0.00    -0.095 NA 
HETATM   16  C   UNL     1      -6.073  14.718  68.024  1.00  0.00    -0.154 A  
HETATM   17  C   UNL     1      -6.570  15.850  67.432  1.00  0.00    -0.222 A  
HETATM   18  N   UNL     1      -8.316  14.416  67.798  1.00  0.00    -0.156 NA 
HETATM   19  C   UNL     1      -7.942  15.612  67.327  1.00  0.00    -0.197 A  
BRANCH  19  20
HETATM   20  O   UNL     1      -8.804  16.507  66.796  1.00  0.00    -0.194 OA 
BRANCH  20  21
HETATM   21  C   UNL     1      -8.232  17.679  66.218  1.00  0.00    -0.229 C  
BRANCH  21  22
HETATM   22  C   UNL     1      -8.857  18.942  66.871  1.00  0.00    -0.306 C  
HETATM   23  F   UNL     1     -10.407  20.308  65.647  1.00  0.00    -0.529 F  
HETATM   24  F   UNL     1     -10.636  18.158  65.459  1.00  0.00    -0.396 F  
HETATM   25  C   UNL     1      -7.993  20.184  66.565  1.00  0.00    -0.317 C  
HETATM   26  C   UNL     1      -8.903  18.784  68.406  1.00  0.00    -0.375 C  
HETATM   27  C   UNL     1     -10.280  19.139  66.318  1.00  0.00    -0.452 C  
HETATM   28  F   UNL     1     -11.211  19.153  67.300  1.00  0.00    -0.531 F  
ENDBRANCH  21  22
ENDBRANCH  20  21
ENDBRANCH  19  20
ENDBRANCH  11  15
BRANCH  13  29
HETATM   29  C   UNL     1      -6.758   8.726  70.850  1.00  0.00    -0.058 C  
HETATM   30  H   UNL     1      -8.635   8.748  71.753  1.00  0.00     0.000 HD 
HETATM   31  N   UNL     1      -7.734   8.270  71.757  1.00  0.00    -0.102 N  
HETATM   32  O   UNL     1      -5.764   8.055  70.604  1.00  0.00    -0.029 OA 
BRANCH  31  33
HETATM   33  S   UNL     1      -7.537   6.990  72.855  1.00  0.00    -0.084 S  
HETATM   34  O   UNL     1      -6.148   6.954  73.238  1.00  0.00    -0.057 OA 
HETATM   35  O   UNL     1      -8.559   7.220  73.858  1.00  0.00    -0.148 OA 
BRANCH  33  36
HETATM   36  C   UNL     1      -7.871   5.379  72.280  1.00  0.00    -0.103 A  
HETATM   37  C   UNL     1      -9.027   4.956  71.637  1.00  0.00    -0.138 A  
HETATM   38  N   UNL     1      -8.820   3.663  71.260  1.00  0.00    -0.085 NA 
HETATM   39  N   UNL     1      -7.607   3.204  71.584  1.00  0.00    -0.047 NA 
HETATM   40  C   UNL     1      -9.693   2.772  70.534  1.00  0.00     0.002 C  
HETATM   41  C   UNL     1      -6.986   4.253  72.144  1.00  0.00    -0.054 A  
HETATM   42  C   UNL     1      -5.535   4.043  72.417  1.00  0.00     0.000 C  
ENDBRANCH  33  36
ENDBRANCH  31  33
ENDBRANCH  13  29
ENDBRANCH   4   9
TORSDOF 8
ENDMDL
MODEL      123
REMARK 921   NORMALIZED FREE ENERGY PREDICTED BY IDOCK:   -4.74 KCAL/MOL
REMARK 922        TOTAL FREE ENERGY PREDICTED BY IDOCK:   -8.58 KCAL/MOL
REMARK 923 INTER-LIGAND FREE ENERGY PREDICTED BY IDOCK:   -7.25 KCAL/MOL
REMARK 924 INTRA-LIGAND FREE ENERGY PREDICTED BY IDOCK:   -1.34 KCAL/MOL
REMARK 927      BINDING AFFINITY PREDICTED BY RF-SCORE:    0.00 PKD
ROOT
HETATM    1  C   UNL     1      -9.983   7.307  66.752  1.00  0.00    -0.287 C  
HETATM    2  C   UNL     1     -10.830   8.168  67.690  1.00  0.00    -0.093 C  
HETATM    3  C   UNL     1     -10.447   9.641  67.595  1.00  0.00    -0.261 C  
HETATM    4  N   UNL     1      -9.447   9.857  68.646  1.00  0.00    -0.149 NA 
HETATM    5  C   UNL     1     -10.485   9.704  70.860  1.00  0.00    -0.359 C  
HETATM    6  C   UNL     1      -9.729   8.905  69.781  1.00  0.00    -0.175 C  
HETATM    7  C   UNL     1     -10.637   7.806  69.161  1.00  0.00    -0.193 C  
HETATM    8  C   UNL     1      -8.587   8.182  70.502  1.00  0.00    -0.130 C  
ENDROOT
BRANCH   4   9
HETATM    9  C   UNL     1      -8.219  10.419  68.339  1.00  0.00    -0.114 A  
HETATM   10  N   UNL     1      -8.096  11.742  68.682  1.00  0.00    -0.135 NA 
HETATM   11  C   UNL     1      -6.945  12.455  68.516  1.00  0.00    -0.092 A  
HETATM   12  C   UNL     1      -5.827  11.861  67.980  1.00  0.00    -0.048 A  
HETATM   13  C   UNL     1      -7.111   9.754  67.764  1.00  0.00    -0.087 A  
HETATM   14  C   UNL     1      -5.917  10.511  67.616  1.00  0.00    -0.044 A  
BRANCH  11  15
HETATM   15  N   UNL     1      -6.910  13.845  68.928  1.00  0.00    -0.105 NA 
HETATM   16  C   UNL     1      -5.978  14.411  69.789  1.00  0.00    -0.119 A  
HETATM   17  C   UNL     1      -6.301  15.733  69.941  1.00  0.00    -0.146 A  
HETATM   18  N   UNL     1      -7.809  14.796  68.496  1.00  0.00    -0.123 NA 
HETATM   19  C   UNL     1      -7.428  15.909  69.136  1.00  0.00    -0.210 A  
BRANCH  19  20
HETATM   20  O   UNL     1      -8.069  17.093  69.017  1.00  0.00    -0.220 OA 
BRANCH  20  21
HETATM   21  C   UNL     1      -8.773  17.317  67.797  1.00  0.00    -0.226 C  
BRANCH  21  22
HETATM   22  C   UNL     1      -9.188  18.811  67.698  1.00  0.00    -0.310 C  
HETATM   23  F   UNL     1      -9.846  19.759  65.593  1.00  0.00    -0.402 F  
HETATM   24  F   UNL     1     -10.598  17.775  66.051  1.00  0.00    -0.365 F  
HETATM   25  C   UNL     1      -7.962  19.684  67.361  1.00  0.00    -0.313 C  
HETATM   26  C   UNL     1      -9.742  19.302  69.053  1.00  0.00    -0.453 C  
HETATM   27  C   UNL     1     -10.261  18.961  66.604  1.00  0.00    -0.405 C  
HETATM   28  F   UNL     1     -11.403  19.506  67.083  1.00  0.00    -0.540 F  
ENDBRANCH  21  22
ENDBRANCH  20  21
ENDBRANCH  19  20
ENDBRANCH  11  15
BRANCH  13  29
HETATM   29  C   UNL     1      -6.956   8.319  67.284  1.00  0.00    -0.075 C  
HETATM   30  H   UNL     1      -6.741   7.523  69.197  1.00  0.00     0.000 HD 
HETATM   31  N   UNL     1      -6.684   7.290  68.206  1.00  0.00    -0.052 N  
HETATM   32  O   UNL     1      -7.168   8.070  66.104  1.00  0.00    -0.068 OA 
BRANCH  31  33
HETATM   33  S   UNL     1      -6.270   5.692  67.804  1.00  0.00    -0.035 S  
HETATM   34  O   UNL     1      -5.178   5.748  66.866  1.00  0.00    -0.005 OA 
HETATM   35  O   UNL     1      -6.091   5.038  69.086  1.00  0.00    -0.023 OA 
BRANCH  33  36
HETATM   36  C   UNL     1      -7.481   4.725  67.007  1.00  0.00    -0.086 A  
HETATM   37  C   UNL     1      -7.354   4.094  65.777  1.00  0.00    -0.077 A  
HETATM   38  N   UNL     1      -8.486   3.358  65.591  1.00  0.00    -0.106 NA 
HETATM   39  N   UNL     1      -9.343   3.436  66.614  1.00  0.00    -0.176 NA 
HETATM   40  C   UNL     1      -8.844   2.492  64.493  1.00  0.00    -0.110 C  
HETATM   41  C   UNL     1      -8.722   4.208  67.519  1.00  0.00    -0.107 A  
HETATM   42  C   UNL     1      -9.404   4.285  68.842  1.00  0.00    -0.222 C  
ENDBRANCH  33  36
ENDBRANCH  31  33
ENDBRANCH  13  29
ENDBRANCH   4   9
TORSDOF 8
ENDMDL
MODEL      124
REMARK 921   NORMALIZED FREE ENERGY PREDICTED BY IDOCK:   -4.72 KCAL/MOL
REMARK 922        TOTAL FREE ENERGY PREDICTED BY IDOCK:   -8.56 KCAL/MOL
REMARK 923 INTER-LIGAND FREE ENERGY PREDICTED BY IDOCK:   -7.72 KCAL/MOL
REMARK 924 INTRA-LIGAND FREE ENERGY PREDICTED BY IDOCK:   -0.85 KCAL/MOL
REMARK 927      BINDING AFFINITY PREDICTED BY RF-SCORE:    0.00 PKD
ROOT
HETATM    1  C   UNL     1      -7.618   7.406  66.690  1.00  0.00    -0.100 C  
HETATM    2  C   UNL     1      -7.907   8.296  65.481  1.00  0.00    -0.107 C  
HETATM    3  C   UNL     1      -7.072   9.572  65.513  1.00  0.00    -0.090 C  
HETATM    4  N   UNL     1      -7.909  10.574  66.181  1.00  0.00    -0.139 NA 
HETATM    5  C   UNL     1      -9.802  11.196  64.756  1.00  0.00    -0.326 C  
HETATM    6  C   UNL     1      -9.356  10.260  65.895  1.00  0.00    -0.180 C  
HETATM    7  C   UNL     1      -9.355   8.776  65.431  1.00  0.00    -0.095 C  
HETATM    8  C   UNL     1     -10.419  10.381  66.992  1.00  0.00    -0.309 C  
ENDROOT
BRANCH   4   9
HETATM    9  C   UNL     1      -7.428  11.270  67.277  1.00  0.00    -0.126 A  
HETATM   10  N   UNL     1      -7.101  12.579  67.022  1.00  0.00    -0.040 NA 
HETATM   11  C   UNL     1      -6.667  13.444  67.983  1.00  0.00    -0.131 A  
HETATM   12  C   UNL     1      -6.533  13.028  69.287  1.00  0.00    -0.103 A  
HETATM   13  C   UNL     1      -7.293  10.775  68.595  1.00  0.00    -0.097 A  
HETATM   14  C   UNL     1      -6.857  11.697  69.584  1.00  0.00    -0.006 A  
BRANCH  11  15
HETATM   15  N   UNL     1      -6.364  14.814  67.617  1.00  0.00    -0.269 NA 
HETATM   16  C   UNL     1      -5.125  15.429  67.735  1.00  0.00    -0.074 A  
HETATM   17  C   UNL     1      -5.260  16.723  67.305  1.00  0.00    -0.167 A  
HETATM   18  N   UNL     1      -7.289  15.686  67.082  1.00  0.00    -0.221 NA 
HETATM   19  C   UNL     1      -6.600  16.824  66.927  1.00  0.00    -0.213 A  
BRANCH  19  20
HETATM   20  O   UNL     1      -7.145  17.964  66.448  1.00  0.00    -0.211 OA 
BRANCH  20  21
HETATM   21  C   UNL     1      -8.567  17.994  66.338  1.00  0.00    -0.228 C  
BRANCH  21  22
HETATM   22  C   UNL     1      -9.166  18.804  67.521  1.00  0.00    -0.306 C  
HETATM   23  F   UNL     1      -9.927  21.058  67.196  1.00  0.00    -0.601 F  
HETATM   24  F   UNL     1     -10.425  19.623  65.645  1.00  0.00    -0.516 F  
HETATM   25  C   UNL     1      -8.058  19.605  68.235  1.00  0.00    -0.357 C  
HETATM   26  C   UNL     1      -9.785  17.848  68.563  1.00  0.00    -0.352 C  
HETATM   27  C   UNL     1     -10.244  19.760  66.978  1.00  0.00    -0.452 C  
HETATM   28  F   UNL     1     -11.448  19.552  67.558  1.00  0.00    -0.430 F  
ENDBRANCH  21  22
ENDBRANCH  20  21
ENDBRANCH  19  20
ENDBRANCH  11  15
BRANCH  13  29
HETATM   29  C   UNL     1      -7.567   9.392  69.167  1.00  0.00    -0.074 C  
HETATM   30  H   UNL     1      -5.811   9.321  70.287  1.00  0.00     0.000 HD 
HETATM   31  N   UNL     1      -6.609   8.762  69.985  1.00  0.00    -0.038 N  
HETATM   32  O   UNL     1      -8.667   8.889  68.982  1.00  0.00    -0.132 OA 
BRANCH  31  33
HETATM   33  S   UNL     1      -6.673   7.148  70.512  1.00  0.00    -0.053 S  
HETATM   34  O   UNL     1      -6.323   6.310  69.394  1.00  0.00    -0.032 OA 
HETATM   35  O   UNL     1      -5.858   7.134  71.711  1.00  0.00    -0.037 OA 
BRANCH  33  36
HETATM   36  C   UNL     1      -8.215   6.539  71.047  1.00  0.00    -0.121 A  
HETATM   37  C   UNL     1      -9.046   7.118  71.997  1.00  0.00    -0.130 A  
HETATM   38  N   UNL     1     -10.192   6.381  72.022  1.00  0.00    -0.193 NA 
HETATM   39  N   UNL     1     -10.192   5.371  71.146  1.00  0.00    -0.211 NA 
HETATM   40  C   UNL     1     -11.387   6.575  72.809  1.00  0.00    -0.185 C  
HETATM   41  C   UNL     1      -9.027   5.489  70.492  1.00  0.00    -0.136 A  
HETATM   42  C   UNL     1      -8.879   4.581  69.319  1.00  0.00    -0.128 C  
ENDBRANCH  33  36
ENDBRANCH  31  33
ENDBRANCH  13  29
ENDBRANCH   4   9
TORSDOF 8
ENDMDL
MODEL      125
REMARK 921   NORMALIZED FREE ENERGY PREDICTED BY IDOCK:   -4.71 KCAL/MOL
REMARK 922        TOTAL FREE ENERGY PREDICTED BY IDOCK:   -8.54 KCAL/MOL
REMARK 923 INTER-LIGAND FREE ENERGY PREDICTED BY IDOCK:   -7.80 KCAL/MOL
REMARK 924 INTRA-LIGAND FREE ENERGY PREDICTED BY IDOCK:   -0.74 KCAL/MOL
REMARK 927      BINDING AFFINITY PREDICTED BY RF-SCORE:    0.00 PKD
ROOT
HETATM    1  C   UNL     1      -8.727   7.922  66.351  1.00  0.00    -0.170 C  
HETATM    2  C   UNL     1      -9.265   9.047  65.468  1.00  0.00    -0.262 C  
HETATM    3  C   UNL     1      -8.326  10.249  65.458  1.00  0.00    -0.164 C  
HETATM    4  N   UNL     1      -8.812  11.138  66.518  1.00  0.00    -0.165 NA 
HETATM    5  C   UNL     1     -10.965  12.123  65.890  1.00  0.00    -0.332 C  
HETATM    6  C   UNL     1     -10.304  10.958  66.650  1.00  0.00    -0.239 C  
HETATM    7  C   UNL     1     -10.602   9.598  65.959  1.00  0.00     0.109 C  
HETATM    8  C   UNL     1     -10.970  10.911  68.029  1.00  0.00    -0.317 C  
ENDROOT
BRANCH   4   9
HETATM    9  C   UNL     1      -7.954  11.578  67.511  1.00  0.00    -0.133 A  
HETATM   10  N   UNL     1      -7.521  12.872  67.358  1.00  0.00    -0.150 NA 
HETATM   11  C   UNL     1      -6.719  13.506  68.261  1.00  0.00    -0.107 A  
HETATM   12  C   UNL     1      -6.296  12.856  69.396  1.00  0.00    -0.109 A  
HETATM   13  C   UNL     1      -7.537  10.847  68.647  1.00  0.00    -0.114 A  
HETATM   14  C   UNL     1      -6.717  11.532  69.584  1.00  0.00    -0.083 A  
BRANCH  11  15
HETATM   15  N   UNL     1      -6.333  14.882  68.019  1.00  0.00    -0.138 NA 
HETATM   16  C   UNL     1      -5.149  15.476  68.436  1.00  0.00    -0.096 A  
HETATM   17  C   UNL     1      -5.174  16.784  68.030  1.00  0.00    -0.123 A  
HETATM   18  N   UNL     1      -7.105  15.784  67.319  1.00  0.00    -0.203 NA 
HETATM   19  C   UNL     1      -6.392  16.916  67.362  1.00  0.00    -0.156 A  
BRANCH  19  20
HETATM   20  O   UNL     1      -6.806  18.078  66.810  1.00  0.00    -0.179 OA 
BRANCH  20  21
HETATM   21  C   UNL     1      -8.170  18.139  66.398  1.00  0.00    -0.253 C  
BRANCH  21  22
HETATM   22  C   UNL     1      -8.945  19.139  67.300  1.00  0.00    -0.329 C  
HETATM   23  F   UNL     1     -11.344  19.097  67.387  1.00  0.00    -0.473 F  
HETATM   24  F   UNL     1     -10.331  17.178  67.396  1.00  0.00    -0.295 F  
HETATM   25  C   UNL     1      -9.301  20.411  66.503  1.00  0.00    -0.360 C  
HETATM   26  C   UNL     1      -8.067  19.576  68.492  1.00  0.00    -0.376 C  
HETATM   27  C   UNL     1     -10.229  18.460  67.812  1.00  0.00    -0.385 C  
HETATM   28  F   UNL     1     -10.288  18.436  69.164  1.00  0.00    -0.377 F  
ENDBRANCH  21  22
ENDBRANCH  20  21
ENDBRANCH  19  20
ENDBRANCH  11  15
BRANCH  13  29
HETATM   29  C   UNL     1      -7.842   9.419  69.074  1.00  0.00    -0.079 C  
HETATM   30  H   UNL     1      -9.870   9.769  69.401  1.00  0.00     0.000 HD 
HETATM   31  N   UNL     1      -9.134   9.073  69.516  1.00  0.00    -0.147 N  
HETATM   32  O   UNL     1      -6.975   8.567  68.931  1.00  0.00    -0.060 OA 
BRANCH  31  33
HETATM   33  S   UNL     1      -9.568   7.592  70.225  1.00  0.00    -0.164 S  
HETATM   34  O   UNL     1     -10.970   7.659  70.552  1.00  0.00    -0.242 OA 
HETATM   35  O   UNL     1      -9.089   6.595  69.288  1.00  0.00    -0.138 OA 
BRANCH  33  36
HETATM   36  C   UNL     1      -8.791   7.162  71.725  1.00  0.00    -0.124 A  
HETATM   37  C   UNL     1      -7.424   7.128  71.966  1.00  0.00    -0.085 A  
HETATM   38  N   UNL     1      -7.262   6.857  73.292  1.00  0.00    -0.075 NA 
HETATM   39  N   UNL     1      -8.418   6.730  73.951  1.00  0.00    -0.129 NA 
HETATM   40  C   UNL     1      -6.045   6.745  74.060  1.00  0.00    -0.064 C  
HETATM   41  C   UNL     1      -9.363   6.980  73.033  1.00  0.00    -0.147 A  
HETATM   42  C   UNL     1     -10.746   7.090  73.578  1.00  0.00    -0.368 C  
ENDBRANCH  33  36
ENDBRANCH  31  33
ENDBRANCH  13  29
ENDBRANCH   4   9
TORSDOF 8
ENDMDL
MODEL      126
REMARK 921   NORMALIZED FREE ENERGY PREDICTED BY IDOCK:   -4.63 KCAL/MOL
REMARK 922        TOTAL FREE ENERGY PREDICTED BY IDOCK:   -8.42 KCAL/MOL
REMARK 923 INTER-LIGAND FREE ENERGY PREDICTED BY IDOCK:   -6.55 KCAL/MOL
REMARK 924 INTRA-LIGAND FREE ENERGY PREDICTED BY IDOCK:   -1.87 KCAL/MOL
REMARK 927      BINDING AFFINITY PREDICTED BY RF-SCORE:    0.00 PKD
ROOT
HETATM    1  C   UNL     1     -11.300   9.678  71.299  1.00  0.00    -0.458 C  
HETATM    2  C   UNL     1     -12.456  10.594  70.896  1.00  0.00    -0.495 C  
HETATM    3  C   UNL     1     -12.887  10.349  69.453  1.00  0.00     0.936 C  
HETATM    4  N   UNL     1     -12.126  11.310  68.647  1.00  0.00    -0.570 NA 
HETATM    5  C   UNL     1     -12.908  13.593  69.071  1.00  0.00     1.086 C  
HETATM    6  C   UNL     1     -11.863  12.538  69.482  1.00  0.00    -0.310 C  
HETATM    7  C   UNL     1     -12.085  12.074  70.949  1.00  0.00    -0.203 C  
HETATM    8  C   UNL     1     -10.502  13.241  69.440  1.00  0.00     0.287 C  
ENDROOT
BRANCH   4   9
HETATM    9  C   UNL     1     -11.366  10.876  67.574  1.00  0.00    -0.232 A  
HETATM   10  N   UNL     1     -10.881   9.598  67.699  1.00  0.00    -0.265 NA 
HETATM   11  C   UNL     1     -10.162   8.971  66.725  1.00  0.00    -0.271 A  
HETATM   12  C   UNL     1      -9.881   9.613  65.542  1.00  0.00    -0.352 A  
HETATM   13  C   UNL     1     -11.093  11.599  66.390  1.00  0.00    -0.347 A  
HETATM   14  C   UNL     1     -10.358  10.921  65.381  1.00  0.00    -0.326 A  
BRANCH  11  15
HETATM   15  N   UNL     1      -9.711   7.610  66.944  1.00  0.00    -0.196 NA 
HETATM   16  C   UNL     1      -9.267   6.736  65.961  1.00  0.00    -0.030 A  
HETATM   17  C   UNL     1      -8.955   5.549  66.570  1.00  0.00    -0.123 A  
HETATM   18  N   UNL     1      -9.655   7.012  68.185  1.00  0.00    -0.130 NA 
HETATM   19  C   UNL     1      -9.219   5.774  67.923  1.00  0.00    -0.108 A  
BRANCH  19  20
HETATM   20  O   UNL     1      -9.045   4.828  68.872  1.00  0.00    -0.104 OA 
BRANCH  20  21
HETATM   21  C   UNL     1     -10.188   4.499  69.660  1.00  0.00     0.052 C  
BRANCH  21  22
HETATM   22  C   UNL     1      -9.838   4.630  71.169  1.00  0.00    -0.261 C  
HETATM   23  F   UNL     1     -10.766   3.104  72.773  1.00  0.00    -0.233 F  
HETATM   24  F   UNL     1     -10.076   2.254  70.899  1.00  0.00    -0.169 F  
HETATM   25  C   UNL     1     -10.872   5.527  71.880  1.00  0.00    -0.286 C  
HETATM   26  C   UNL     1      -8.457   5.297  71.341  1.00  0.00    -0.125 C  
HETATM   27  C   UNL     1      -9.829   3.227  71.804  1.00  0.00    -0.159 C  
HETATM   28  F   UNL     1      -8.638   2.935  72.376  1.00  0.00    -0.070 F  
ENDBRANCH  21  22
ENDBRANCH  20  21
ENDBRANCH  19  20
ENDBRANCH  11  15
BRANCH  13  29
HETATM   29  C   UNL     1     -11.484  13.010  65.978  1.00  0.00    -0.335 C  
HETATM   30  H   UNL     1      -9.600  13.822  66.341  1.00  0.00     0.000 HD 
HETATM   31  N   UNL     1     -10.561  14.067  66.105  1.00  0.00    -0.286 N  
HETATM   32  O   UNL     1     -12.573  13.185  65.447  1.00  0.00    -0.483 OA 
BRANCH  31  33
HETATM   33  S   UNL     1     -10.916  15.715  65.898  1.00  0.00    -0.172 S  
HETATM   34  O   UNL     1     -11.081  15.951  64.486  1.00  0.00    -0.495 OA 
HETATM   35  O   UNL     1     -12.018  15.958  66.808  1.00  0.00     0.597 OA 
BRANCH  33  36
HETATM   36  C   UNL     1      -9.704  16.865  66.393  1.00  0.00    -0.284 A  
HETATM   37  C   UNL     1      -9.886  18.229  66.573  1.00  0.00    -0.361 A  
HETATM   38  N   UNL     1      -8.718  18.723  67.072  1.00  0.00    -0.276 NA 
HETATM   39  N   UNL     1      -7.783  17.786  67.256  1.00  0.00    -0.203 NA 
HETATM   40  C   UNL     1      -8.388  20.073  67.463  1.00  0.00    -0.334 C  
HETATM   41  C   UNL     1      -8.383  16.635  66.916  1.00  0.00    -0.210 A  
HETATM   42  C   UNL     1      -7.595  15.408  67.224  1.00  0.00    -0.246 C  
ENDBRANCH  33  36
ENDBRANCH  31  33
ENDBRANCH  13  29
ENDBRANCH   4   9
TORSDOF 8
ENDMDL
MODEL      127
REMARK 921   NORMALIZED FREE ENERGY PREDICTED BY IDOCK:   -4.59 KCAL/MOL
REMARK 922        TOTAL FREE ENERGY PREDICTED BY IDOCK:   -8.37 KCAL/MOL
REMARK 923 INTER-LIGAND FREE ENERGY PREDICTED BY IDOCK:   -7.64 KCAL/MOL
REMARK 924 INTRA-LIGAND FREE ENERGY PREDICTED BY IDOCK:   -0.73 KCAL/MOL
REMARK 927      BINDING AFFINITY PREDICTED BY RF-SCORE:    0.00 PKD
ROOT
HETATM    1  C   UNL     1     -12.810  10.536  71.106  1.00  0.00    -0.513 C  
HETATM    2  C   UNL     1     -11.786   9.622  71.778  1.00  0.00    -0.356 C  
HETATM    3  C   UNL     1     -10.473   9.586  71.002  1.00  0.00    -0.306 C  
HETATM    4  N   UNL     1     -10.583   8.439  70.094  1.00  0.00    -0.229 NA 
HETATM    5  C   UNL     1     -10.530   6.340  71.355  1.00  0.00    -0.264 C  
HETATM    6  C   UNL     1     -11.464   7.398  70.739  1.00  0.00    -0.288 C  
HETATM    7  C   UNL     1     -12.243   8.166  71.842  1.00  0.00    -0.373 C  
HETATM    8  C   UNL     1     -12.502   6.628  69.916  1.00  0.00     0.864 C  
ENDROOT
BRANCH   4   9
HETATM    9  C   UNL     1     -10.373   8.599  68.735  1.00  0.00    -0.208 A  
HETATM   10  N   UNL     1     -10.561   9.879  68.276  1.00  0.00    -0.216 NA 
HETATM   11  C   UNL     1     -10.346  10.250  66.981  1.00  0.00    -0.243 A  
HETATM   12  C   UNL     1      -9.919   9.330  66.053  1.00  0.00    -0.325 A  
HETATM   13  C   UNL     1      -9.955   7.600  67.825  1.00  0.00    -0.219 A  
HETATM   14  C   UNL     1      -9.719   8.012  66.486  1.00  0.00    -0.297 A  
BRANCH  11  15
HETATM   15  N   UNL     1     -10.554  11.633  66.599  1.00  0.00    -0.233 NA 
HETATM   16  C   UNL     1     -11.562  12.100  65.766  1.00  0.00    -0.355 A  
HETATM   17  C   UNL     1     -11.402  13.454  65.636  1.00  0.00    -0.316 A  
HETATM   18  N   UNL     1      -9.767  12.677  67.037  1.00  0.00    -0.220 NA 
HETATM   19  C   UNL     1     -10.289  13.748  66.426  1.00  0.00    -0.290 A  
BRANCH  19  20
HETATM   20  O   UNL     1      -9.792  14.998  66.560  1.00  0.00    -0.239 OA 
BRANCH  20  21
HETATM   21  C   UNL     1      -8.893  15.213  67.646  1.00  0.00    -0.173 C  
BRANCH  21  22
HETATM   22  C   UNL     1      -8.730  16.738  67.895  1.00  0.00    -0.203 C  
HETATM   23  F   UNL     1     -10.603  18.221  67.655  1.00  0.00    -0.374 F  
HETATM   24  F   UNL     1     -10.974  16.329  68.653  1.00  0.00    -0.267 F  
HETATM   25  C   UNL     1      -8.380  17.460  66.578  1.00  0.00    -0.308 C  
HETATM   26  C   UNL     1      -7.571  16.998  68.882  1.00  0.00    -0.233 C  
HETATM   27  C   UNL     1     -10.046  17.295  68.470  1.00  0.00    -0.341 C  
HETATM   28  F   UNL     1      -9.865  17.893  69.670  1.00  0.00    -0.040 F  
ENDBRANCH  21  22
ENDBRANCH  20  21
ENDBRANCH  19  20
ENDBRANCH  11  15
BRANCH  13  29
HETATM   29  C   UNL     1      -9.677   6.120  68.038  1.00  0.00    -0.120 C  
HETATM   30  H   UNL     1      -7.796   6.419  68.883  1.00  0.00     0.000 HD 
HETATM   31  N   UNL     1      -8.430   5.698  68.541  1.00  0.00    -0.105 N  
HETATM   32  O   UNL     1     -10.587   5.321  67.857  1.00  0.00    -0.135 OA 
BRANCH  31  33
HETATM   33  S   UNL     1      -7.896   4.088  68.624  1.00  0.00    -0.068 S  
HETATM   34  O   UNL     1      -6.502   4.109  68.989  1.00  0.00    -0.037 OA 
HETATM   35  O   UNL     1      -8.861   3.437  69.488  1.00  0.00    -0.073 OA 
BRANCH  33  36
HETATM   36  C   UNL     1      -7.948   3.148  67.157  1.00  0.00    -0.078 A  
HETATM   37  C   UNL     1      -8.933   3.197  66.180  1.00  0.00    -0.148 A  
HETATM   38  N   UNL     1      -8.521   2.392  65.161  1.00  0.00    -0.095 NA 
HETATM   39  N   UNL     1      -7.328   1.830  65.379  1.00  0.00    -0.052 NA 
HETATM   40  C   UNL     1      -9.161   2.117  63.897  1.00  0.00    -0.101 C  
HETATM   41  C   UNL     1      -6.927   2.331  66.557  1.00  0.00    -0.044 A  
HETATM   42  C   UNL     1      -5.521   1.999  66.927  1.00  0.00    -0.017 C  
ENDBRANCH  33  36
ENDBRANCH  31  33
ENDBRANCH  13  29
ENDBRANCH   4   9
TORSDOF 8
ENDMDL
MODEL      128
REMARK 921   NORMALIZED FREE ENERGY PREDICTED BY IDOCK:   -4.53 KCAL/MOL
REMARK 922        TOTAL FREE ENERGY PREDICTED BY IDOCK:   -8.28 KCAL/MOL
REMARK 923 INTER-LIGAND FREE ENERGY PREDICTED BY IDOCK:   -8.51 KCAL/MOL
REMARK 924 INTRA-LIGAND FREE ENERGY PREDICTED BY IDOCK:    0.23 KCAL/MOL
REMARK 927      BINDING AFFINITY PREDICTED BY RF-SCORE:    0.00 PKD
ROOT
HETATM    1  C   UNL     1      -8.401  15.760  68.348  1.00  0.00    -0.164 C  
HETATM    2  C   UNL     1      -8.931  14.785  69.399  1.00  0.00     0.037 C  
HETATM    3  C   UNL     1      -8.789  13.337  68.941  1.00  0.00     0.288 C  
HETATM    4  N   UNL     1     -10.063  13.001  68.297  1.00  0.00    -0.236 NA 
HETATM    5  C   UNL     1     -11.856  12.874  69.960  1.00  0.00    -0.356 C  
HETATM    6  C   UNL     1     -11.159  13.804  68.950  1.00  0.00    -0.266 C  
HETATM    7  C   UNL     1     -10.421  14.964  69.676  1.00  0.00    -0.182 C  
HETATM    8  C   UNL     1     -12.273  14.441  68.113  1.00  0.00    -0.142 C  
ENDROOT
BRANCH   4   9
HETATM    9  C   UNL     1     -10.084  12.491  67.010  1.00  0.00    -0.216 A  
HETATM   10  N   UNL     1      -9.776  11.156  66.920  1.00  0.00    -0.189 NA 
HETATM   11  C   UNL     1      -9.800  10.457  65.749  1.00  0.00    -0.239 A  
HETATM   12  C   UNL     1     -10.143  11.081  64.572  1.00  0.00    -0.380 A  
HETATM   13  C   UNL     1     -10.424  13.195  65.831  1.00  0.00    -0.288 A  
HETATM   14  C   UNL     1     -10.461  12.444  64.625  1.00  0.00    -0.338 A  
BRANCH  11  15
HETATM   15  N   UNL     1      -9.478   9.044  65.762  1.00  0.00    -0.250 NA 
HETATM   16  C   UNL     1      -8.595   8.407  64.901  1.00  0.00    -0.080 A  
HETATM   17  C   UNL     1      -8.586   7.075  65.224  1.00  0.00     0.001 A  
HETATM   18  N   UNL     1     -10.012   8.145  66.661  1.00  0.00    -0.267 NA 
HETATM   19  C   UNL     1      -9.473   6.974  66.297  1.00  0.00    -0.072 A  
BRANCH  19  20
HETATM   20  O   UNL     1      -9.755   5.802  66.910  1.00  0.00    -0.132 OA 
BRANCH  20  21
HETATM   21  C   UNL     1      -8.887   5.414  67.974  1.00  0.00    -0.105 C  
BRANCH  21  22
HETATM   22  C   UNL     1      -8.445   3.938  67.776  1.00  0.00    -0.104 C  
HETATM   23  F   UNL     1      -8.230   2.466  69.661  1.00  0.00    -0.052 F  
HETATM   24  F   UNL     1      -9.959   3.779  69.636  1.00  0.00    -0.270 F  
HETATM   25  C   UNL     1      -6.912   3.819  67.896  1.00  0.00    -0.051 C  
HETATM   26  C   UNL     1      -8.834   3.448  66.365  1.00  0.00    -0.137 C  
HETATM   27  C   UNL     1      -9.129   3.064  68.844  1.00  0.00    -0.149 C  
HETATM   28  F   UNL     1      -9.871   2.075  68.295  1.00  0.00    -0.265 F  
ENDBRANCH  21  22
ENDBRANCH  20  21
ENDBRANCH  19  20
ENDBRANCH  11  15
BRANCH  13  29
HETATM   29  C   UNL     1     -10.797  14.655  65.622  1.00  0.00    -0.331 C  
HETATM   30  H   UNL     1      -8.946  15.392  66.232  1.00  0.00     0.000 HD 
HETATM   31  N   UNL     1      -9.891  15.675  65.975  1.00  0.00    -0.306 N  
HETATM   32  O   UNL     1     -11.850  14.915  65.055  1.00  0.00    -0.356 OA 
BRANCH  31  33
HETATM   33  S   UNL     1     -10.244  17.336  66.007  1.00  0.00    -0.245 S  
HETATM   34  O   UNL     1     -10.802  17.689  64.726  1.00  0.00    -0.762 OA 
HETATM   35  O   UNL     1     -11.030  17.509  67.213  1.00  0.00    -0.196 OA 
BRANCH  33  36
HETATM   36  C   UNL     1      -8.908  18.436  66.218  1.00  0.00    -0.188 A  
HETATM   37  C   UNL     1      -7.625  18.281  65.712  1.00  0.00    -0.034 A  
HETATM   38  N   UNL     1      -6.940  19.420  66.014  1.00  0.00    -0.250 NA 
HETATM   39  N   UNL     1      -7.679  20.326  66.663  1.00  0.00    -0.283 NA 
HETATM   40  C   UNL     1      -5.582  19.784  65.689  1.00  0.00    -0.160 C  
HETATM   41  C   UNL     1      -8.900  19.778  66.738  1.00  0.00    -0.347 A  
HETATM   42  C   UNL     1      -9.960  20.689  67.255  1.00  0.00    -0.452 C  
ENDBRANCH  33  36
ENDBRANCH  31  33
ENDBRANCH  13  29
ENDBRANCH   4   9
TORSDOF 8
ENDMDL
MODEL      129
REMARK 921   NORMALIZED FREE ENERGY PREDICTED BY IDOCK:   -4.53 KCAL/MOL
REMARK 922        TOTAL FREE ENERGY PREDICTED BY IDOCK:   -8.28 KCAL/MOL
REMARK 923 INTER-LIGAND FREE ENERGY PREDICTED BY IDOCK:   -8.06 KCAL/MOL
REMARK 924 INTRA-LIGAND FREE ENERGY PREDICTED BY IDOCK:   -0.23 KCAL/MOL
REMARK 927      BINDING AFFINITY PREDICTED BY RF-SCORE:    0.00 PKD
ROOT
HETATM    1  C   UNL     1     -11.831  11.048  68.171  1.00  0.00    -0.195 C  
HETATM    2  C   UNL     1     -11.524  11.795  66.873  1.00  0.00    -0.364 C  
HETATM    3  C   UNL     1     -10.035  11.760  66.546  1.00  0.00    -0.204 C  
HETATM    4  N   UNL     1      -9.474  12.982  67.131  1.00  0.00    -0.223 NA 
HETATM    5  C   UNL     1     -10.256  14.955  65.906  1.00  0.00    -0.333 C  
HETATM    6  C   UNL     1     -10.538  14.051  67.121  1.00  0.00    -0.274 C  
HETATM    7  C   UNL     1     -11.875  13.279  66.946  1.00  0.00    -0.446 C  
HETATM    8  C   UNL     1     -10.720  14.989  68.320  1.00  0.00    -0.253 C  
ENDROOT
BRANCH   4   9
HETATM    9  C   UNL     1      -8.396  12.914  67.996  1.00  0.00    -0.169 A  
HETATM   10  N   UNL     1      -7.847  14.130  68.322  1.00  0.00    -0.128 NA 
HETATM   11  C   UNL     1      -6.818  14.276  69.204  1.00  0.00    -0.120 A  
HETATM   12  C   UNL     1      -6.268  13.178  69.823  1.00  0.00    -0.108 A  
HETATM   13  C   UNL     1      -7.861  11.743  68.583  1.00  0.00    -0.117 A  
HETATM   14  C   UNL     1      -6.802  11.920  69.513  1.00  0.00    -0.004 A  
BRANCH  11  15
HETATM   15  N   UNL     1      -6.322  15.606  69.497  1.00  0.00    -0.156 NA 
HETATM   16  C   UNL     1      -5.273  15.909  70.355  1.00  0.00    -0.160 A  
HETATM   17  C   UNL     1      -5.131  17.271  70.375  1.00  0.00    -0.238 A  
HETATM   18  N   UNL     1      -6.834  16.756  68.935  1.00  0.00    -0.186 NA 
HETATM   19  C   UNL     1      -6.113  17.734  69.497  1.00  0.00    -0.248 A  
BRANCH  19  20
HETATM   20  O   UNL     1      -6.310  19.046  69.241  1.00  0.00    -0.268 OA 
BRANCH  20  21
HETATM   21  C   UNL     1      -5.549  19.609  68.174  1.00  0.00    -0.204 C  
BRANCH  21  22
HETATM   22  C   UNL     1      -6.487  19.943  66.982  1.00  0.00    -0.212 C  
HETATM   23  F   UNL     1      -5.946  19.212  64.760  1.00  0.00    -0.238 F  
HETATM   24  F   UNL     1      -5.619  17.789  66.366  1.00  0.00    -0.155 F  
HETATM   25  C   UNL     1      -6.059  21.270  66.320  1.00  0.00    -0.312 C  
HETATM   26  C   UNL     1      -7.938  20.126  67.478  1.00  0.00    -0.352 C  
HETATM   27  C   UNL     1      -6.422  18.796  65.956  1.00  0.00    -0.222 C  
HETATM   28  F   UNL     1      -7.639  18.253  65.722  1.00  0.00    -0.274 F  
ENDBRANCH  21  22
ENDBRANCH  20  21
ENDBRANCH  19  20
ENDBRANCH  11  15
BRANCH  13  29
HETATM   29  C   UNL     1      -8.250  10.282  68.411  1.00  0.00    -0.114 C  
HETATM   30  H   UNL     1      -9.468  10.231  70.100  1.00  0.00     0.000 HD 
HETATM   31  N   UNL     1      -9.052   9.644  69.377  1.00  0.00    -0.175 N  
HETATM   32  O   UNL     1      -7.934   9.710  67.376  1.00  0.00    -0.105 OA 
BRANCH  31  33
HETATM   33  S   UNL     1      -9.382   7.979  69.439  1.00  0.00    -0.155 S  
HETATM   34  O   UNL     1     -10.812   7.816  69.366  1.00  0.00    -0.207 OA 
HETATM   35  O   UNL     1      -8.535   7.410  68.409  1.00  0.00    -0.124 OA 
BRANCH  33  36
HETATM   36  C   UNL     1      -8.919   7.122  70.883  1.00  0.00    -0.151 A  
HETATM   37  C   UNL     1      -7.634   6.729  71.233  1.00  0.00    -0.092 A  
HETATM   38  N   UNL     1      -7.710   6.196  72.485  1.00  0.00    -0.102 NA 
HETATM   39  N   UNL     1      -8.943   6.226  73.000  1.00  0.00    -0.131 NA 
HETATM   40  C   UNL     1      -6.656   5.670  73.320  1.00  0.00    -0.069 C  
HETATM   41  C   UNL     1      -9.684   6.848  72.071  1.00  0.00    -0.152 A  
HETATM   42  C   UNL     1     -11.072   7.178  72.502  1.00  0.00    -0.317 C  
ENDBRANCH  33  36
ENDBRANCH  31  33
ENDBRANCH  13  29
ENDBRANCH   4   9
TORSDOF 8
ENDMDL
MODEL      130
REMARK 921   NORMALIZED FREE ENERGY PREDICTED BY IDOCK:   -4.51 KCAL/MOL
REMARK 922        TOTAL FREE ENERGY PREDICTED BY IDOCK:   -8.25 KCAL/MOL
REMARK 923 INTER-LIGAND FREE ENERGY PREDICTED BY IDOCK:   -7.46 KCAL/MOL
REMARK 924 INTRA-LIGAND FREE ENERGY PREDICTED BY IDOCK:   -0.79 KCAL/MOL
REMARK 927      BINDING AFFINITY PREDICTED BY RF-SCORE:    0.00 PKD
ROOT
HETATM    1  C   UNL     1     -11.898   8.452  71.032  1.00  0.00    -0.278 C  
HETATM    2  C   UNL     1     -10.830   9.481  71.403  1.00  0.00    -0.382 C  
HETATM    3  C   UNL     1     -10.517  10.408  70.233  1.00  0.00    -0.048 C  
HETATM    4  N   UNL     1      -9.380   9.796  69.538  1.00  0.00    -0.199 NA 
HETATM    5  C   UNL     1      -7.356   9.944  70.910  1.00  0.00     0.244 C  
HETATM    6  C   UNL     1      -8.550   9.041  70.546  1.00  0.00    -0.201 C  
HETATM    7  C   UNL     1      -9.492   8.842  71.766  1.00  0.00    -0.334 C  
HETATM    8  C   UNL     1      -7.962   7.667  70.210  1.00  0.00    -0.101 C  
ENDROOT
BRANCH   4   9
HETATM    9  C   UNL     1      -9.447   9.534  68.180  1.00  0.00    -0.133 A  
HETATM   10  N   UNL     1      -9.286   8.213  67.845  1.00  0.00    -0.132 NA 
HETATM   11  C   UNL     1      -9.378   7.747  66.567  1.00  0.00    -0.189 A  
HETATM   12  C   UNL     1      -9.642   8.607  65.528  1.00  0.00     0.078 A  
HETATM   13  C   UNL     1      -9.701  10.474  67.154  1.00  0.00    -0.202 A  
HETATM   14  C   UNL     1      -9.811   9.965  65.832  1.00  0.00    -0.342 A  
BRANCH  11  15
HETATM   15  N   UNL     1      -9.212   6.328  66.318  1.00  0.00    -0.157 NA 
HETATM   16  C   UNL     1     -10.230   5.434  66.014  1.00  0.00    -0.069 A  
HETATM   17  C   UNL     1      -9.667   4.193  65.874  1.00  0.00    -0.208 A  
HETATM   18  N   UNL     1      -7.993   5.684  66.341  1.00  0.00    -0.101 NA 
HETATM   19  C   UNL     1      -8.304   4.405  66.092  1.00  0.00    -0.113 A  
BRANCH  19  20
HETATM   20  O   UNL     1      -7.390   3.411  66.051  1.00  0.00    -0.070 OA 
BRANCH  20  21
HETATM   21  C   UNL     1      -7.565   2.345  66.982  1.00  0.00    -0.066 C  
BRANCH  21  22
HETATM   22  C   UNL     1      -6.924   2.729  68.344  1.00  0.00    -0.048 C  
HETATM   23  F   UNL     1      -7.939   4.393  69.745  1.00  0.00    -0.056 F  
HETATM   24  F   UNL     1      -9.272   2.969  68.794  1.00  0.00    -0.158 F  
HETATM   25  C   UNL     1      -5.953   3.913  68.162  1.00  0.00    -0.027 C  
HETATM   26  C   UNL     1      -6.104   1.545  68.901  1.00  0.00    -0.024 C  
HETATM   27  C   UNL     1      -8.040   3.108  69.334  1.00  0.00    -0.048 C  
HETATM   28  F   UNL     1      -8.015   2.341  70.449  1.00  0.00    -0.042 F  
ENDBRANCH  21  22
ENDBRANCH  20  21
ENDBRANCH  19  20
ENDBRANCH  11  15
BRANCH  13  29
HETATM   29  C   UNL     1      -9.911  11.979  67.219  1.00  0.00    -0.194 C  
HETATM   30  H   UNL     1     -11.671  11.953  66.104  1.00  0.00     0.000 HD 
HETATM   31  N   UNL     1     -10.980  12.576  66.522  1.00  0.00    -0.257 N  
HETATM   32  O   UNL     1      -9.197  12.639  67.963  1.00  0.00    -0.195 OA 
BRANCH  31  33
HETATM   33  S   UNL     1     -11.213  14.246  66.319  1.00  0.00    -0.345 S  
HETATM   34  O   UNL     1     -10.112  14.749  65.539  1.00  0.00    -0.337 OA 
HETATM   35  O   UNL     1     -12.569  14.357  65.816  1.00  0.00    -0.397 OA 
BRANCH  33  36
HETATM   36  C   UNL     1     -11.218  15.236  67.754  1.00  0.00    -0.326 A  
HETATM   37  C   UNL     1     -11.630  14.848  69.022  1.00  0.00    -0.305 A  
HETATM   38  N   UNL     1     -11.357  15.887  69.861  1.00  0.00    -0.323 NA 
HETATM   39  N   UNL     1     -10.777  16.924  69.250  1.00  0.00    -0.325 NA 
HETATM   40  C   UNL     1     -11.560  15.987  71.287  1.00  0.00    -0.449 C  
HETATM   41  C   UNL     1     -10.618  16.524  67.979  1.00  0.00    -0.328 A  
HETATM   42  C   UNL     1      -9.807  17.446  67.134  1.00  0.00    -0.278 C  
ENDBRANCH  33  36
ENDBRANCH  31  33
ENDBRANCH  13  29
ENDBRANCH   4   9
TORSDOF 8
ENDMDL
MODEL      131
REMARK 921   NORMALIZED FREE ENERGY PREDICTED BY IDOCK:   -4.47 KCAL/MOL
REMARK 922        TOTAL FREE ENERGY PREDICTED BY IDOCK:   -8.20 KCAL/MOL
REMARK 923 INTER-LIGAND FREE ENERGY PREDICTED BY IDOCK:   -7.16 KCAL/MOL
REMARK 924 INTRA-LIGAND FREE ENERGY PREDICTED BY IDOCK:   -1.03 KCAL/MOL
REMARK 927      BINDING AFFINITY PREDICTED BY RF-SCORE:    0.00 PKD
ROOT
HETATM    1  C   UNL     1      -7.541   8.159  65.421  1.00  0.00    -0.089 C  
HETATM    2  C   UNL     1      -8.111   9.417  64.765  1.00  0.00    -0.131 C  
HETATM    3  C   UNL     1      -7.393  10.673  65.248  1.00  0.00     0.015 C  
HETATM    4  N   UNL     1      -8.182  11.166  66.382  1.00  0.00    -0.166 NA 
HETATM    5  C   UNL     1     -10.341  12.031  65.612  1.00  0.00    -0.288 C  
HETATM    6  C   UNL     1      -9.625  10.785  66.166  1.00  0.00    -0.194 C  
HETATM    7  C   UNL     1      -9.581   9.649  65.106  1.00  0.00    -0.324 C  
HETATM    8  C   UNL     1     -10.486  10.275  67.327  1.00  0.00    -0.307 C  
ENDROOT
BRANCH   4   9
HETATM    9  C   UNL     1      -7.578  11.406  67.605  1.00  0.00    -0.108 A  
HETATM   10  N   UNL     1      -7.390  12.734  67.897  1.00  0.00    -0.105 NA 
HETATM   11  C   UNL     1      -6.865  13.175  69.076  1.00  0.00    -0.090 A  
HETATM   12  C   UNL     1      -6.490  12.281  70.050  1.00  0.00     0.067 A  
HETATM   13  C   UNL     1      -7.192  10.434  68.557  1.00  0.00    -0.084 A  
HETATM   14  C   UNL     1      -6.665  10.916  69.786  1.00  0.00    -0.144 A  
BRANCH  11  15
HETATM   15  N   UNL     1      -6.725  14.601  69.297  1.00  0.00    -0.124 NA 
HETATM   16  C   UNL     1      -5.691  15.215  69.992  1.00  0.00    -0.129 A  
HETATM   17  C   UNL     1      -5.935  16.563  69.995  1.00  0.00    -0.179 A  
HETATM   18  N   UNL     1      -7.615  15.542  68.823  1.00  0.00    -0.140 NA 
HETATM   19  C   UNL     1      -7.123  16.702  69.276  1.00  0.00    -0.212 A  
BRANCH  19  20
HETATM   20  O   UNL     1      -7.715  17.897  69.058  1.00  0.00    -0.228 OA 
BRANCH  20  21
HETATM   21  C   UNL     1      -9.128  17.883  68.862  1.00  0.00    -0.125 C  
BRANCH  21  22
HETATM   22  C   UNL     1      -9.471  18.510  67.482  1.00  0.00    -0.291 C  
HETATM   23  F   UNL     1     -11.466  19.815  67.198  1.00  0.00    -0.418 F  
HETATM   24  F   UNL     1     -10.334  20.142  69.021  1.00  0.00    -0.529 F  
HETATM   25  C   UNL     1     -10.351  17.546  66.661  1.00  0.00    -0.319 C  
HETATM   26  C   UNL     1      -8.181  18.757  66.672  1.00  0.00    -0.298 C  
HETATM   27  C   UNL     1     -10.213  19.840  67.709  1.00  0.00    -0.437 C  
HETATM   28  F   UNL     1      -9.578  20.884  67.126  1.00  0.00    -0.575 F  
ENDBRANCH  21  22
ENDBRANCH  20  21
ENDBRANCH  19  20
ENDBRANCH  11  15
BRANCH  13  29
HETATM   29  C   UNL     1      -7.270   8.916  68.511  1.00  0.00    -0.073 C  
HETATM   30  H   UNL     1      -9.348   8.847  68.645  1.00  0.00     0.000 HD 
HETATM   31  N   UNL     1      -8.511   8.265  68.655  1.00  0.00    -0.125 N  
HETATM   32  O   UNL     1      -6.254   8.285  68.250  1.00  0.00    -0.048 OA 
BRANCH  31  33
HETATM   33  S   UNL     1      -8.729   6.591  68.845  1.00  0.00    -0.127 S  
HETATM   34  O   UNL     1      -7.931   6.172  69.969  1.00  0.00    -0.106 OA 
HETATM   35  O   UNL     1     -10.169   6.422  68.875  1.00  0.00    -0.162 OA 
BRANCH  33  36
HETATM   36  C   UNL     1      -8.214   5.562  67.537  1.00  0.00    -0.101 A  
HETATM   37  C   UNL     1      -6.917   5.134  67.285  1.00  0.00    -0.065 A  
HETATM   38  N   UNL     1      -6.984   4.258  66.243  1.00  0.00    -0.064 NA 
HETATM   39  N   UNL     1      -8.229   4.057  65.799  1.00  0.00    -0.104 NA 
HETATM   40  C   UNL     1      -5.927   3.505  65.612  1.00  0.00    -0.023 C  
HETATM   41  C   UNL     1      -9.003   4.787  66.616  1.00  0.00    -0.111 A  
HETATM   42  C   UNL     1     -10.468   4.572  66.441  1.00  0.00    -0.102 C  
ENDBRANCH  33  36
ENDBRANCH  31  33
ENDBRANCH  13  29
ENDBRANCH   4   9
TORSDOF 8
ENDMDL
MODEL      132
REMARK 921   NORMALIZED FREE ENERGY PREDICTED BY IDOCK:   -4.46 KCAL/MOL
REMARK 922        TOTAL FREE ENERGY PREDICTED BY IDOCK:   -8.18 KCAL/MOL
REMARK 923 INTER-LIGAND FREE ENERGY PREDICTED BY IDOCK:   -8.42 KCAL/MOL
REMARK 924 INTRA-LIGAND FREE ENERGY PREDICTED BY IDOCK:    0.24 KCAL/MOL
REMARK 927      BINDING AFFINITY PREDICTED BY RF-SCORE:    0.00 PKD
ROOT
HETATM    1  C   UNL     1     -11.891  15.518  68.666  1.00  0.00    -0.318 C  
HETATM    2  C   UNL     1     -12.411  14.255  67.978  1.00  0.00    -0.007 C  
HETATM    3  C   UNL     1     -11.755  13.000  68.545  1.00  0.00    -0.342 C  
HETATM    4  N   UNL     1     -10.598  12.736  67.683  1.00  0.00    -0.217 NA 
HETATM    5  C   UNL     1     -11.333  12.013  65.460  1.00  0.00    -0.381 C  
HETATM    6  C   UNL     1     -10.909  13.237  66.294  1.00  0.00    -0.284 C  
HETATM    7  C   UNL     1     -12.096  14.222  66.484  1.00  0.00    -0.454 C  
HETATM    8  C   UNL     1      -9.848  13.973  65.469  1.00  0.00    -0.229 C  
ENDROOT
BRANCH   4   9
HETATM    9  C   UNL     1      -9.335  12.587  68.231  1.00  0.00    -0.193 A  
HETATM   10  N   UNL     1      -9.062  11.325  68.697  1.00  0.00    -0.170 NA 
HETATM   11  C   UNL     1      -7.854  10.964  69.217  1.00  0.00    -0.092 A  
HETATM   12  C   UNL     1      -6.829  11.877  69.302  1.00  0.00    -0.080 A  
HETATM   13  C   UNL     1      -8.330  13.578  68.309  1.00  0.00    -0.165 A  
HETATM   14  C   UNL     1      -7.074  13.176  68.838  1.00  0.00    -0.075 A  
BRANCH  11  15
HETATM   15  N   UNL     1      -7.657   9.599  69.665  1.00  0.00    -0.099 NA 
HETATM   16  C   UNL     1      -6.869   8.645  69.034  1.00  0.00    -0.056 A  
HETATM   17  C   UNL     1      -6.964   7.484  69.754  1.00  0.00    -0.055 A  
HETATM   18  N   UNL     1      -8.232   9.075  70.803  1.00  0.00    -0.166 NA 
HETATM   19  C   UNL     1      -7.813   7.803  70.815  1.00  0.00    -0.099 A  
BRANCH  19  20
HETATM   20  O   UNL     1      -8.172   6.910  71.764  1.00  0.00    -0.105 OA 
BRANCH  20  21
HETATM   21  C   UNL     1      -9.453   7.096  72.362  1.00  0.00    -0.145 C  
BRANCH  21  22
HETATM   22  C   UNL     1     -10.429   5.994  71.865  1.00  0.00    -0.263 C  
HETATM   23  F   UNL     1      -9.866   3.671  72.097  1.00  0.00    -0.192 F  
HETATM   24  F   UNL     1      -9.419   4.960  73.785  1.00  0.00    -0.126 F  
HETATM   25  C   UNL     1     -10.104   5.612  70.406  1.00  0.00    -0.284 C  
HETATM   26  C   UNL     1     -11.882   6.515  71.889  1.00  0.00    -0.381 C  
HETATM   27  C   UNL     1     -10.296   4.760  72.776  1.00  0.00    -0.192 C  
HETATM   28  F   UNL     1     -11.475   4.420  73.347  1.00  0.00    -0.341 F  
ENDBRANCH  21  22
ENDBRANCH  20  21
ENDBRANCH  19  20
ENDBRANCH  11  15
BRANCH  13  29
HETATM   29  C   UNL     1      -8.345  15.040  67.888  1.00  0.00    -0.148 C  
HETATM   30  H   UNL     1      -9.551  15.661  69.469  1.00  0.00     0.000 HD 
HETATM   31  N   UNL     1      -9.125  15.974  68.597  1.00  0.00    -0.203 N  
HETATM   32  O   UNL     1      -7.594  15.398  66.990  1.00  0.00    -0.209 OA 
BRANCH  31  33
HETATM   33  S   UNL     1      -9.416  17.578  68.121  1.00  0.00    -0.302 S  
HETATM   34  O   UNL     1     -10.228  17.540  66.932  1.00  0.00    -0.309 OA 
HETATM   35  O   UNL     1      -9.917  18.220  69.321  1.00  0.00    -0.251 OA 
BRANCH  33  36
HETATM   36  C   UNL     1      -8.036  18.545  67.675  1.00  0.00    -0.250 A  
HETATM   37  C   UNL     1      -7.914  19.333  66.538  1.00  0.00    -0.294 A  
HETATM   38  N   UNL     1      -6.731  20.001  66.645  1.00  0.00    -0.207 NA 
HETATM   39  N   UNL     1      -6.070  19.732  67.776  1.00  0.00    -0.195 NA 
HETATM   40  C   UNL     1      -6.143  20.969  65.749  1.00  0.00    -0.242 C  
HETATM   41  C   UNL     1      -6.878  18.901  68.451  1.00  0.00    -0.252 A  
HETATM   42  C   UNL     1      -6.442  18.609  69.846  1.00  0.00    -0.054 C  
ENDBRANCH  33  36
ENDBRANCH  31  33
ENDBRANCH  13  29
ENDBRANCH   4   9
TORSDOF 8
ENDMDL
MODEL      133
REMARK 921   NORMALIZED FREE ENERGY PREDICTED BY IDOCK:   -4.43 KCAL/MOL
REMARK 922        TOTAL FREE ENERGY PREDICTED BY IDOCK:   -8.13 KCAL/MOL
REMARK 923 INTER-LIGAND FREE ENERGY PREDICTED BY IDOCK:   -7.58 KCAL/MOL
REMARK 924 INTRA-LIGAND FREE ENERGY PREDICTED BY IDOCK:   -0.55 KCAL/MOL
REMARK 927      BINDING AFFINITY PREDICTED BY RF-SCORE:    0.00 PKD
ROOT
HETATM    1  C   UNL     1     -13.925   8.987  71.030  1.00  0.00     0.016 C  
HETATM    2  C   UNL     1     -12.710   9.575  71.746  1.00  0.00    -0.492 C  
HETATM    3  C   UNL     1     -11.725  10.195  70.760  1.00  0.00    -0.357 C  
HETATM    4  N   UNL     1     -10.761   9.135  70.448  1.00  0.00    -0.223 NA 
HETATM    5  C   UNL     1      -9.354   8.655  72.395  1.00  0.00    -0.284 C  
HETATM    6  C   UNL     1     -10.633   8.231  71.648  1.00  0.00    -0.242 C  
HETATM    7  C   UNL     1     -11.900   8.522  72.500  1.00  0.00    -0.398 C  
HETATM    8  C   UNL     1     -10.550   6.710  71.482  1.00  0.00    -0.251 C  
ENDROOT
BRANCH   4   9
HETATM    9  C   UNL     1     -10.510   8.782  69.133  1.00  0.00    -0.217 A  
HETATM   10  N   UNL     1     -10.061   7.495  68.963  1.00  0.00    -0.187 NA 
HETATM   11  C   UNL     1      -9.815   6.942  67.741  1.00  0.00    -0.136 A  
HETATM   12  C   UNL     1     -10.010   7.672  66.593  1.00  0.00    -0.284 A  
HETATM   13  C   UNL     1     -10.710   9.593  67.991  1.00  0.00    -0.284 A  
HETATM   14  C   UNL     1     -10.465   8.991  66.728  1.00  0.00    -0.270 A  
BRANCH  11  15
HETATM   15  N   UNL     1      -9.362   5.567  67.667  1.00  0.00    -0.111 NA 
HETATM   16  C   UNL     1      -8.568   4.924  68.607  1.00  0.00    -0.093 A  
HETATM   17  C   UNL     1      -8.345   3.647  68.161  1.00  0.00    -0.095 A  
HETATM   18  N   UNL     1      -9.684   4.708  66.637  1.00  0.00    -0.180 NA 
HETATM   19  C   UNL     1      -9.043   3.576  66.954  1.00  0.00    -0.166 A  
BRANCH  19  20
HETATM   20  O   UNL     1      -9.068   2.466  66.183  1.00  0.00    -0.131 OA 
BRANCH  20  21
HETATM   21  C   UNL     1      -7.921   2.229  65.369  1.00  0.00    -0.078 C  
BRANCH  21  22
HETATM   22  C   UNL     1      -8.223   2.653  63.905  1.00  0.00    -0.082 C  
HETATM   23  F   UNL     1      -8.440   4.974  63.327  1.00  0.00    -0.107 F  
HETATM   24  F   UNL     1      -6.831   4.450  64.686  1.00  0.00    -0.041 F  
HETATM   25  C   UNL     1      -9.745   2.771  63.686  1.00  0.00    -0.122 C  
HETATM   26  C   UNL     1      -7.699   1.586  62.921  1.00  0.00    -0.050 C  
HETATM   27  C   UNL     1      -7.542   4.006  63.626  1.00  0.00    -0.066 C  
HETATM   28  F   UNL     1      -6.683   3.939  62.582  1.00  0.00    -0.027 F  
ENDBRANCH  21  22
ENDBRANCH  20  21
ENDBRANCH  19  20
ENDBRANCH  11  15
BRANCH  13  29
HETATM   29  C   UNL     1     -11.183  11.033  67.870  1.00  0.00    -0.310 C  
HETATM   30  H   UNL     1      -9.263  11.839  67.810  1.00  0.00     0.000 HD 
HETATM   31  N   UNL     1     -10.249  12.088  67.870  1.00  0.00    -0.191 N  
HETATM   32  O   UNL     1     -12.373  11.244  67.674  1.00  0.00    -0.154 OA 
BRANCH  31  33
HETATM   33  S   UNL     1     -10.631  13.740  67.963  1.00  0.00    -0.258 S  
HETATM   34  O   UNL     1     -11.261  14.113  66.722  1.00  0.00    -0.306 OA 
HETATM   35  O   UNL     1     -11.357  13.868  69.212  1.00  0.00    -0.253 OA 
BRANCH  33  36
HETATM   36  C   UNL     1      -9.307  14.861  68.133  1.00  0.00    -0.193 A  
HETATM   37  C   UNL     1      -9.394  16.184  68.546  1.00  0.00    -0.209 A  
HETATM   38  N   UNL     1      -8.118  16.652  68.648  1.00  0.00    -0.226 NA 
HETATM   39  N   UNL     1      -7.192  15.733  68.357  1.00  0.00    -0.117 NA 
HETATM   40  C   UNL     1      -7.652  17.952  69.068  1.00  0.00    -0.144 C  
HETATM   41  C   UNL     1      -7.890  14.615  68.108  1.00  0.00    -0.128 A  
HETATM   42  C   UNL     1      -7.059  13.388  67.945  1.00  0.00    -0.137 C  
ENDBRANCH  33  36
ENDBRANCH  31  33
ENDBRANCH  13  29
ENDBRANCH   4   9
TORSDOF 8
ENDMDL
MODEL      134
REMARK 921   NORMALIZED FREE ENERGY PREDICTED BY IDOCK:   -4.42 KCAL/MOL
REMARK 922        TOTAL FREE ENERGY PREDICTED BY IDOCK:   -8.12 KCAL/MOL
REMARK 923 INTER-LIGAND FREE ENERGY PREDICTED BY IDOCK:   -7.39 KCAL/MOL
REMARK 924 INTRA-LIGAND FREE ENERGY PREDICTED BY IDOCK:   -0.73 KCAL/MOL
REMARK 927      BINDING AFFINITY PREDICTED BY RF-SCORE:    0.00 PKD
ROOT
HETATM    1  C   UNL     1      -8.310   7.960  65.061  1.00  0.00    -0.111 C  
HETATM    2  C   UNL     1      -8.590   9.388  64.595  1.00  0.00    -0.209 C  
HETATM    3  C   UNL     1      -7.625  10.383  65.232  1.00  0.00    -0.118 C  
HETATM    4  N   UNL     1      -8.302  10.871  66.438  1.00  0.00    -0.157 NA 
HETATM    5  C   UNL     1     -10.217  12.276  65.837  1.00  0.00    -0.274 C  
HETATM    6  C   UNL     1      -9.791  10.841  66.200  1.00  0.00    -0.221 C  
HETATM    7  C   UNL     1      -9.980   9.880  64.994  1.00  0.00    -0.236 C  
HETATM    8  C   UNL     1     -10.752  10.371  67.297  1.00  0.00    -0.331 C  
ENDROOT
BRANCH   4   9
HETATM    9  C   UNL     1      -7.672  10.805  67.670  1.00  0.00    -0.104 A  
HETATM   10  N   UNL     1      -7.239  12.014  68.155  1.00  0.00    -0.083 NA 
HETATM   11  C   UNL     1      -6.650  12.164  69.376  1.00  0.00    -0.090 A  
HETATM   12  C   UNL     1      -6.458  11.078  70.196  1.00  0.00    -0.128 A  
HETATM   13  C   UNL     1      -7.485   9.645  68.457  1.00  0.00    -0.079 A  
HETATM   14  C   UNL     1      -6.886   9.827  69.733  1.00  0.00    -0.074 A  
BRANCH  11  15
HETATM   15  N   UNL     1      -6.244  13.488  69.806  1.00  0.00    -0.125 NA 
HETATM   16  C   UNL     1      -5.273  13.768  70.759  1.00  0.00    -0.123 A  
HETATM   17  C   UNL     1      -5.203  15.129  70.895  1.00  0.00    -0.139 A  
HETATM   18  N   UNL     1      -6.776  14.655  69.300  1.00  0.00    -0.124 NA 
HETATM   19  C   UNL     1      -6.146  15.616  69.988  1.00  0.00    -0.149 A  
BRANCH  19  20
HETATM   20  O   UNL     1      -6.394  16.934  69.821  1.00  0.00    -0.228 OA 
BRANCH  20  21
HETATM   21  C   UNL     1      -6.276  17.443  68.494  1.00  0.00    -0.170 C  
BRANCH  21  22
HETATM   22  C   UNL     1      -7.607  18.127  68.076  1.00  0.00    -0.245 C  
HETATM   23  F   UNL     1      -8.677  19.707  69.534  1.00  0.00    -0.281 F  
HETATM   24  F   UNL     1      -6.519  19.850  69.350  1.00  0.00    -0.318 F  
HETATM   25  C   UNL     1      -8.811  17.307  68.583  1.00  0.00    -0.261 C  
HETATM   26  C   UNL     1      -7.713  18.195  66.538  1.00  0.00    -0.280 C  
HETATM   27  C   UNL     1      -7.647  19.547  68.670  1.00  0.00    -0.354 C  
HETATM   28  F   UNL     1      -7.792  20.495  67.715  1.00  0.00    -0.334 F  
ENDBRANCH  21  22
ENDBRANCH  20  21
ENDBRANCH  19  20
ENDBRANCH  11  15
BRANCH  13  29
HETATM   29  C   UNL     1      -7.848   8.193  68.184  1.00  0.00    -0.122 C  
HETATM   30  H   UNL     1      -9.890   8.466  68.498  1.00  0.00     0.000 HD 
HETATM   31  N   UNL     1      -9.177   7.754  68.341  1.00  0.00    -0.137 N  
HETATM   32  O   UNL     1      -6.986   7.448  67.736  1.00  0.00    -0.071 OA 
BRANCH  31  33
HETATM   33  S   UNL     1      -9.692   6.136  68.289  1.00  0.00    -0.125 S  
HETATM   34  O   UNL     1     -11.097   6.135  67.970  1.00  0.00    -0.329 OA 
HETATM   35  O   UNL     1      -8.747   5.490  67.399  1.00  0.00    -0.109 OA 
BRANCH  33  36
HETATM   36  C   UNL     1      -9.580   5.210  69.761  1.00  0.00    -0.175 A  
HETATM   37  C   UNL     1      -8.568   4.323  70.103  1.00  0.00    -0.069 A  
HETATM   38  N   UNL     1      -8.815   3.914  71.379  1.00  0.00    -0.097 NA 
HETATM   39  N   UNL     1      -9.900   4.479  71.917  1.00  0.00    -0.174 NA 
HETATM   40  C   UNL     1      -8.051   3.019  72.215  1.00  0.00    -0.059 C  
HETATM   41  C   UNL     1     -10.344   5.325  70.976  1.00  0.00    -0.228 A  
HETATM   42  C   UNL     1     -11.447   6.225  71.419  1.00  0.00    -0.352 C  
ENDBRANCH  33  36
ENDBRANCH  31  33
ENDBRANCH  13  29
ENDBRANCH   4   9
TORSDOF 8
ENDMDL
MODEL      135
REMARK 921   NORMALIZED FREE ENERGY PREDICTED BY IDOCK:   -4.42 KCAL/MOL
REMARK 922        TOTAL FREE ENERGY PREDICTED BY IDOCK:   -8.11 KCAL/MOL
REMARK 923 INTER-LIGAND FREE ENERGY PREDICTED BY IDOCK:   -7.37 KCAL/MOL
REMARK 924 INTRA-LIGAND FREE ENERGY PREDICTED BY IDOCK:   -0.75 KCAL/MOL
REMARK 927      BINDING AFFINITY PREDICTED BY RF-SCORE:    0.00 PKD
ROOT
HETATM    1  C   UNL     1      -9.942  11.739  65.259  1.00  0.00    -0.284 C  
HETATM    2  C   UNL     1      -9.235  10.410  64.993  1.00  0.00    -0.256 C  
HETATM    3  C   UNL     1      -9.869   9.271  65.786  1.00  0.00    -0.231 C  
HETATM    4  N   UNL     1      -9.102   9.184  67.033  1.00  0.00    -0.122 NA 
HETATM    5  C   UNL     1      -6.841   8.351  66.592  1.00  0.00    -0.068 C  
HETATM    6  C   UNL     1      -7.687   9.628  66.759  1.00  0.00    -0.098 C  
HETATM    7  C   UNL     1      -7.771  10.421  65.425  1.00  0.00    -0.136 C  
HETATM    8  C   UNL     1      -6.934  10.515  67.757  1.00  0.00    -0.078 C  
ENDROOT
BRANCH   4   9
HETATM    9  C   UNL     1      -9.748   9.232  68.257  1.00  0.00    -0.150 A  
HETATM   10  N   UNL     1      -9.864   8.018  68.888  1.00  0.00    -0.170 NA 
HETATM   11  C   UNL     1     -10.415   7.866  70.126  1.00  0.00    -0.231 A  
HETATM   12  C   UNL     1     -10.894   8.955  70.815  1.00  0.00    -0.294 A  
HETATM   13  C   UNL     1     -10.241  10.389  68.904  1.00  0.00    -0.220 A  
HETATM   14  C   UNL     1     -10.794  10.211  70.200  1.00  0.00    -0.368 A  
BRANCH  11  15
HETATM   15  N   UNL     1     -10.474   6.543  70.715  1.00  0.00    -0.214 NA 
HETATM   16  C   UNL     1     -11.299   6.160  71.765  1.00  0.00    -0.291 A  
HETATM   17  C   UNL     1     -11.039   4.843  72.039  1.00  0.00     0.062 A  
HETATM   18  N   UNL     1      -9.710   5.478  70.287  1.00  0.00    -0.172 NA 
HETATM   19  C   UNL     1     -10.058   4.484  71.114  1.00  0.00    -0.147 A  
BRANCH  19  20
HETATM   20  O   UNL     1      -9.516   3.247  71.060  1.00  0.00    -0.136 OA 
BRANCH  20  21
HETATM   21  C   UNL     1      -8.093   3.170  71.118  1.00  0.00    -0.061 C  
BRANCH  21  22
HETATM   22  C   UNL     1      -7.656   2.615  72.502  1.00  0.00    -0.052 C  
HETATM   23  F   UNL     1      -6.049   3.798  73.838  1.00  0.00    -0.015 F  
HETATM   24  F   UNL     1      -7.567   4.992  72.848  1.00  0.00    -0.087 F  
HETATM   25  C   UNL     1      -6.411   1.717  72.348  1.00  0.00    -0.014 C  
HETATM   26  C   UNL     1      -8.777   1.745  73.108  1.00  0.00    -0.062 C  
HETATM   27  C   UNL     1      -7.342   3.797  73.438  1.00  0.00    -0.064 C  
HETATM   28  F   UNL     1      -8.095   3.770  74.562  1.00  0.00    -0.080 F  
ENDBRANCH  21  22
ENDBRANCH  20  21
ENDBRANCH  19  20
ENDBRANCH  11  15
BRANCH  13  29
HETATM   29  C   UNL     1     -10.259  11.842  68.456  1.00  0.00    -0.215 C  
HETATM   30  H   UNL     1     -12.154  12.234  69.228  1.00  0.00     0.000 HD 
HETATM   31  N   UNL     1     -11.410  12.631  68.655  1.00  0.00    -0.268 N  
HETATM   32  O   UNL     1      -9.228  12.332  68.014  1.00  0.00    -0.182 OA 
BRANCH  31  33
HETATM   33  S   UNL     1     -11.660  14.186  68.019  1.00  0.00    -0.354 S  
HETATM   34  O   UNL     1     -12.404  14.042  66.794  1.00  0.00    -0.439 OA 
HETATM   35  O   UNL     1     -12.223  14.935  69.125  1.00  0.00    -0.250 OA 
BRANCH  33  36
HETATM   36  C   UNL     1     -10.249  15.104  67.566  1.00  0.00    -0.238 A  
HETATM   37  C   UNL     1      -9.171  15.417  68.383  1.00  0.00    -0.192 A  
HETATM   38  N   UNL     1      -8.248  16.041  67.599  1.00  0.00    -0.145 NA 
HETATM   39  N   UNL     1      -8.623  16.146  66.321  1.00  0.00    -0.330 NA 
HETATM   40  C   UNL     1      -6.939  16.540  67.948  1.00  0.00    -0.142 C  
HETATM   41  C   UNL     1      -9.809  15.521  66.262  1.00  0.00    -0.294 A  
HETATM   42  C   UNL     1     -10.345  15.335  64.883  1.00  0.00    -0.273 C  
ENDBRANCH  33  36
ENDBRANCH  31  33
ENDBRANCH  13  29
ENDBRANCH   4   9
TORSDOF 8
ENDMDL
MODEL      136
REMARK 921   NORMALIZED FREE ENERGY PREDICTED BY IDOCK:   -4.41 KCAL/MOL
REMARK 922        TOTAL FREE ENERGY PREDICTED BY IDOCK:   -8.11 KCAL/MOL
REMARK 923 INTER-LIGAND FREE ENERGY PREDICTED BY IDOCK:   -8.02 KCAL/MOL
REMARK 924 INTRA-LIGAND FREE ENERGY PREDICTED BY IDOCK:   -0.09 KCAL/MOL
REMARK 927      BINDING AFFINITY PREDICTED BY RF-SCORE:    0.00 PKD
ROOT
HETATM    1  C   UNL     1      -7.176  12.632  68.479  1.00  0.00    -0.113 C  
HETATM    2  C   UNL     1      -7.941  12.448  67.169  1.00  0.00    -0.153 C  
HETATM    3  C   UNL     1      -9.350  13.026  67.258  1.00  0.00    -0.220 C  
HETATM    4  N   UNL     1     -10.209  11.909  67.668  1.00  0.00    -0.198 NA 
HETATM    5  C   UNL     1     -10.404  10.270  65.858  1.00  0.00    -0.241 C  
HETATM    6  C   UNL     1      -9.619  10.628  67.134  1.00  0.00    -0.164 C  
HETATM    7  C   UNL     1      -8.142  10.980  66.801  1.00  0.00    -0.151 C  
HETATM    8  C   UNL     1      -9.591   9.358  67.992  1.00  0.00    -0.156 C  
ENDROOT
BRANCH   4   9
HETATM    9  C   UNL     1     -11.031  12.028  68.775  1.00  0.00    -0.239 A  
HETATM   10  N   UNL     1     -11.480  10.833  69.283  1.00  0.00    -0.275 NA 
HETATM   11  C   UNL     1     -12.250  10.738  70.404  1.00  0.00    -0.349 A  
HETATM   12  C   UNL     1     -12.623  11.867  71.093  1.00  0.00    -0.390 A  
HETATM   13  C   UNL     1     -11.397  13.229  69.426  1.00  0.00    -0.280 A  
HETATM   14  C   UNL     1     -12.184  13.105  70.603  1.00  0.00    -0.402 A  
BRANCH  11  15
HETATM   15  N   UNL     1     -12.657   9.427  70.872  1.00  0.00    -0.199 NA 
HETATM   16  C   UNL     1     -13.965   9.013  71.084  1.00  0.00    -0.032 A  
HETATM   17  C   UNL     1     -13.925   7.723  71.544  1.00  0.00    -0.468 A  
HETATM   18  N   UNL     1     -11.775   8.407  71.156  1.00  0.00    -0.279 NA 
HETATM   19  C   UNL     1     -12.565   7.410  71.574  1.00  0.00    -0.367 A  
BRANCH  19  20
HETATM   20  O   UNL     1     -12.096   6.211  71.986  1.00  0.00    -0.318 OA 
BRANCH  20  21
HETATM   21  C   UNL     1     -10.863   6.220  72.703  1.00  0.00    -0.242 C  
BRANCH  21  22
HETATM   22  C   UNL     1     -10.126   4.868  72.493  1.00  0.00    -0.233 C  
HETATM   23  F   UNL     1      -7.730   4.755  72.599  1.00  0.00    -0.084 F  
HETATM   24  F   UNL     1      -8.720   5.980  74.093  1.00  0.00    -0.118 F  
HETATM   25  C   UNL     1      -9.764   4.682  71.005  1.00  0.00    -0.258 C  
HETATM   26  C   UNL     1     -11.043   3.692  72.892  1.00  0.00    -0.018 C  
HETATM   27  C   UNL     1      -8.849   4.856  73.354  1.00  0.00    -0.106 C  
HETATM   28  F   UNL     1      -8.828   3.816  74.219  1.00  0.00    -0.087 F  
ENDBRANCH  21  22
ENDBRANCH  20  21
ENDBRANCH  19  20
ENDBRANCH  11  15
BRANCH  13  29
HETATM   29  C   UNL     1     -11.063  14.676  69.097  1.00  0.00    -0.268 C  
HETATM   30  H   UNL     1      -9.036  14.487  69.537  1.00  0.00     0.000 HD 
HETATM   31  N   UNL     1      -9.759  15.167  69.303  1.00  0.00    -0.230 N  
HETATM   32  O   UNL     1     -11.920  15.367  68.563  1.00  0.00    -0.316 OA 
BRANCH  31  33
HETATM   33  S   UNL     1      -9.291  16.796  69.193  1.00  0.00    -0.082 S  
HETATM   34  O   UNL     1      -9.974  17.517  70.238  1.00  0.00     0.935 OA 
HETATM   35  O   UNL     1      -7.842  16.749  69.172  1.00  0.00    -0.231 OA 
BRANCH  33  36
HETATM   36  C   UNL     1      -9.703  17.652  67.732  1.00  0.00    -0.280 A  
HETATM   37  C   UNL     1      -9.703  19.029  67.555  1.00  0.00    -0.314 A  
HETATM   38  N   UNL     1      -9.972  19.260  66.239  1.00  0.00    -0.388 NA 
HETATM   39  N   UNL     1     -10.128  18.140  65.527  1.00  0.00    -0.386 NA 
HETATM   40  C   UNL     1     -10.055  20.514  65.529  1.00  0.00     0.357 C  
HETATM   41  C   UNL     1      -9.901  17.147  66.399  1.00  0.00    -0.300 A  
HETATM   42  C   UNL     1      -9.826  15.789  65.790  1.00  0.00    -0.383 C  
ENDBRANCH  33  36
ENDBRANCH  31  33
ENDBRANCH  13  29
ENDBRANCH   4   9
TORSDOF 8
ENDMDL
MODEL      137
REMARK 921   NORMALIZED FREE ENERGY PREDICTED BY IDOCK:   -4.38 KCAL/MOL
REMARK 922        TOTAL FREE ENERGY PREDICTED BY IDOCK:   -8.06 KCAL/MOL
REMARK 923 INTER-LIGAND FREE ENERGY PREDICTED BY IDOCK:   -7.37 KCAL/MOL
REMARK 924 INTRA-LIGAND FREE ENERGY PREDICTED BY IDOCK:   -0.69 KCAL/MOL
REMARK 927      BINDING AFFINITY PREDICTED BY RF-SCORE:    0.00 PKD
ROOT
HETATM    1  C   UNL     1      -6.268  10.258  70.927  1.00  0.00    -0.002 C  
HETATM    2  C   UNL     1      -5.801  11.255  69.866  1.00  0.00    -0.104 C  
HETATM    3  C   UNL     1      -6.971  12.041  69.284  1.00  0.00    -0.028 C  
HETATM    4  N   UNL     1      -7.392  11.297  68.093  1.00  0.00    -0.084 NA 
HETATM    5  C   UNL     1      -5.695  11.461  66.334  1.00  0.00    -0.116 C  
HETATM    6  C   UNL     1      -6.189  10.598  67.511  1.00  0.00    -0.056 C  
HETATM    7  C   UNL     1      -5.147  10.577  68.664  1.00  0.00    -0.038 C  
HETATM    8  C   UNL     1      -6.293   9.165  66.979  1.00  0.00    -0.063 C  
ENDROOT
BRANCH   4   9
HETATM    9  C   UNL     1      -8.712  10.906  67.942  1.00  0.00    -0.131 A  
HETATM   10  N   UNL     1      -8.901   9.548  67.873  1.00  0.00    -0.120 NA 
HETATM   11  C   UNL     1     -10.131   8.966  67.784  1.00  0.00    -0.210 A  
HETATM   12  C   UNL     1     -11.268   9.738  67.756  1.00  0.00    -0.006 A  
HETATM   13  C   UNL     1      -9.841  11.757  67.896  1.00  0.00    -0.186 A  
HETATM   14  C   UNL     1     -11.113  11.129  67.821  1.00  0.00    -0.344 A  
BRANCH  11  15
HETATM   15  N   UNL     1     -10.226   7.520  67.737  1.00  0.00    -0.188 NA 
HETATM   16  C   UNL     1     -10.616   6.700  68.788  1.00  0.00    -0.236 A  
HETATM   17  C   UNL     1     -10.554   5.403  68.349  1.00  0.00    -0.148 A  
HETATM   18  N   UNL     1      -9.948   6.769  66.615  1.00  0.00    -0.169 NA 
HETATM   19  C   UNL     1     -10.134   5.507  67.021  1.00  0.00    -0.194 A  
BRANCH  19  20
HETATM   20  O   UNL     1      -9.939   4.432  66.226  1.00  0.00    -0.212 OA 
BRANCH  20  21
HETATM   21  C   UNL     1      -8.816   4.484  65.348  1.00  0.00    -0.137 C  
BRANCH  21  22
HETATM   22  C   UNL     1      -9.199   3.870  63.973  1.00  0.00    -0.141 C  
HETATM   23  F   UNL     1      -7.660   2.447  62.802  1.00  0.00    -0.047 F  
HETATM   24  F   UNL     1      -7.832   2.149  64.945  1.00  0.00    -0.068 F  
HETATM   25  C   UNL     1      -8.739   4.796  62.828  1.00  0.00    -0.127 C  
HETATM   26  C   UNL     1     -10.732   3.727  63.859  1.00  0.00    -0.257 C  
HETATM   27  C   UNL     1      -8.529   2.490  63.838  1.00  0.00    -0.086 C  
HETATM   28  F   UNL     1      -9.432   1.505  63.627  1.00  0.00    -0.093 F  
ENDBRANCH  21  22
ENDBRANCH  20  21
ENDBRANCH  19  20
ENDBRANCH  11  15
BRANCH  13  29
HETATM   29  C   UNL     1      -9.941  13.275  67.943  1.00  0.00    -0.233 C  
HETATM   30  H   UNL     1      -7.993  13.594  67.274  1.00  0.00     0.000 HD 
HETATM   31  N   UNL     1      -8.814  14.068  67.650  1.00  0.00    -0.179 N  
HETATM   32  O   UNL     1     -11.036  13.784  68.142  1.00  0.00    -0.235 OA 
BRANCH  31  33
HETATM   33  S   UNL     1      -8.709  15.748  67.872  1.00  0.00    -0.171 S  
HETATM   34  O   UNL     1      -9.158  16.041  69.209  1.00  0.00    -0.246 OA 
HETATM   35  O   UNL     1      -7.353  16.075  67.475  1.00  0.00    -0.134 OA 
BRANCH  33  36
HETATM   36  C   UNL     1      -9.697  16.756  66.850  1.00  0.00    -0.257 A  
HETATM   37  C   UNL     1      -9.738  18.144  66.851  1.00  0.00    -0.318 A  
HETATM   38  N   UNL     1     -10.551  18.517  65.823  1.00  0.00    -0.584 NA 
HETATM   39  N   UNL     1     -11.034  17.483  65.127  1.00  0.00    -0.606 NA 
HETATM   40  C   UNL     1     -10.904  19.842  65.371  1.00  0.00    -0.019 C  
HETATM   41  C   UNL     1     -10.473  16.403  65.690  1.00  0.00    -0.347 A  
HETATM   42  C   UNL     1     -10.709  15.126  64.958  1.00  0.00    -0.451 C  
ENDBRANCH  33  36
ENDBRANCH  31  33
ENDBRANCH  13  29
ENDBRANCH   4   9
TORSDOF 8
ENDMDL
MODEL      138
REMARK 921   NORMALIZED FREE ENERGY PREDICTED BY IDOCK:   -4.31 KCAL/MOL
REMARK 922        TOTAL FREE ENERGY PREDICTED BY IDOCK:   -7.96 KCAL/MOL
REMARK 923 INTER-LIGAND FREE ENERGY PREDICTED BY IDOCK:   -7.21 KCAL/MOL
REMARK 924 INTRA-LIGAND FREE ENERGY PREDICTED BY IDOCK:   -0.75 KCAL/MOL
REMARK 927      BINDING AFFINITY PREDICTED BY RF-SCORE:    0.00 PKD
ROOT
HETATM    1  C   UNL     1     -10.956   9.489  69.149  1.00  0.00    -0.148 C  
HETATM    2  C   UNL     1     -10.760  10.043  67.738  1.00  0.00    -0.333 C  
HETATM    3  C   UNL     1      -9.281  10.181  67.391  1.00  0.00    -0.141 C  
HETATM    4  N   UNL     1      -8.918  11.556  67.751  1.00  0.00    -0.155 NA 
HETATM    5  C   UNL     1      -9.987  13.151  66.230  1.00  0.00    -0.285 C  
HETATM    6  C   UNL     1     -10.133  12.433  67.585  1.00  0.00    -0.198 C  
HETATM    7  C   UNL     1     -11.335  11.448  67.569  1.00  0.00    -0.362 C  
HETATM    8  C   UNL     1     -10.464  13.520  68.613  1.00  0.00    -0.242 C  
ENDROOT
BRANCH   4   9
HETATM    9  C   UNL     1      -7.847  11.799  68.594  1.00  0.00    -0.117 A  
HETATM   10  N   UNL     1      -7.510  13.124  68.719  1.00  0.00    -0.088 NA 
HETATM   11  C   UNL     1      -6.523  13.571  69.547  1.00  0.00    -0.089 A  
HETATM   12  C   UNL     1      -5.800  12.687  70.313  1.00  0.00    -0.156 A  
HETATM   13  C   UNL     1      -7.127  10.836  69.339  1.00  0.00    -0.122 A  
HETATM   14  C   UNL     1      -6.116  11.325  70.209  1.00  0.00    -0.146 A  
BRANCH  11  15
HETATM   15  N   UNL     1      -6.256  14.994  69.624  1.00  0.00    -0.123 NA 
HETATM   16  C   UNL     1      -5.166  15.580  70.255  1.00  0.00    -0.129 A  
HETATM   17  C   UNL     1      -5.290  16.938  70.123  1.00  0.00    -0.205 A  
HETATM   18  N   UNL     1      -7.062  15.957  69.057  1.00  0.00    -0.149 NA 
HETATM   19  C   UNL     1      -6.467  17.109  69.391  1.00  0.00    -0.233 A  
BRANCH  19  20
HETATM   20  O   UNL     1      -6.953  18.324  69.054  1.00  0.00    -0.269 OA 
BRANCH  20  21
HETATM   21  C   UNL     1      -7.435  18.469  67.719  1.00  0.00    -0.230 C  
BRANCH  21  22
HETATM   22  C   UNL     1      -6.943  19.820  67.129  1.00  0.00    -0.235 C  
HETATM   23  F   UNL     1      -5.260  19.863  65.417  1.00  0.00    -0.158 F  
HETATM   24  F   UNL     1      -6.805  18.348  65.235  1.00  0.00    -0.295 F  
HETATM   25  C   UNL     1      -5.720  20.333  67.917  1.00  0.00    -0.242 C  
HETATM   26  C   UNL     1      -8.049  20.890  67.251  1.00  0.00    -0.169 C  
HETATM   27  C   UNL     1      -6.570  19.613  65.650  1.00  0.00    -0.254 C  
HETATM   28  F   UNL     1      -7.272  20.429  64.829  1.00  0.00    -0.298 F  
ENDBRANCH  21  22
ENDBRANCH  20  21
ENDBRANCH  19  20
ENDBRANCH  11  15
BRANCH  13  29
HETATM   29  C   UNL     1      -7.267   9.322  69.398  1.00  0.00    -0.068 C  
HETATM   30  H   UNL     1      -8.688   9.342  70.922  1.00  0.00     0.000 HD 
HETATM   31  N   UNL     1      -8.092   8.725  70.371  1.00  0.00    -0.103 N  
HETATM   32  O   UNL     1      -6.728   8.650  68.529  1.00  0.00    -0.058 OA 
BRANCH  31  33
HETATM   33  S   UNL     1      -8.177   7.061  70.702  1.00  0.00    -0.119 S  
HETATM   34  O   UNL     1      -6.830   6.552  70.731  1.00  0.00    -0.059 OA 
HETATM   35  O   UNL     1      -9.008   6.977  71.888  1.00  0.00    -0.133 OA 
BRANCH  33  36
HETATM   36  C   UNL     1      -9.000   6.053  69.543  1.00  0.00    -0.131 A  
HETATM   37  C   UNL     1      -9.324   6.394  68.237  1.00  0.00    -0.109 A  
HETATM   38  N   UNL     1      -9.850   5.279  67.656  1.00  0.00    -0.146 NA 
HETATM   39  N   UNL     1      -9.878   4.220  68.470  1.00  0.00    -0.096 NA 
HETATM   40  C   UNL     1     -10.317   5.086  66.303  1.00  0.00    -0.291 C  
HETATM   41  C   UNL     1      -9.302   4.647  69.603  1.00  0.00    -0.143 A  
HETATM   42  C   UNL     1      -9.039   3.578  70.609  1.00  0.00    -0.186 C  
ENDBRANCH  33  36
ENDBRANCH  31  33
ENDBRANCH  13  29
ENDBRANCH   4   9
TORSDOF 8
ENDMDL
MODEL      139
REMARK 921   NORMALIZED FREE ENERGY PREDICTED BY IDOCK:   -4.30 KCAL/MOL
REMARK 922        TOTAL FREE ENERGY PREDICTED BY IDOCK:   -7.94 KCAL/MOL
REMARK 923 INTER-LIGAND FREE ENERGY PREDICTED BY IDOCK:   -6.38 KCAL/MOL
REMARK 924 INTRA-LIGAND FREE ENERGY PREDICTED BY IDOCK:   -1.56 KCAL/MOL
REMARK 927      BINDING AFFINITY PREDICTED BY RF-SCORE:    0.00 PKD
ROOT
HETATM    1  C   UNL     1     -11.634  11.435  68.940  1.00  0.00    -0.388 C  
HETATM    2  C   UNL     1     -11.871  12.522  67.892  1.00  0.00    -0.383 C  
HETATM    3  C   UNL     1     -10.673  12.671  66.960  1.00  0.00    -0.245 C  
HETATM    4  N   UNL     1      -9.840  13.723  67.553  1.00  0.00    -0.226 NA 
HETATM    5  C   UNL     1     -10.949  15.899  67.369  1.00  0.00    -0.257 C  
HETATM    6  C   UNL     1     -10.735  14.685  68.293  1.00  0.00    -0.239 C  
HETATM    7  C   UNL     1     -12.063  13.906  68.508  1.00  0.00    -0.331 C  
HETATM    8  C   UNL     1     -10.325  15.250  69.657  1.00  0.00    -0.271 C  
ENDROOT
BRANCH   4   9
HETATM    9  C   UNL     1      -8.501  13.491  67.815  1.00  0.00    -0.184 A  
HETATM   10  N   UNL     1      -8.218  12.223  68.259  1.00  0.00    -0.164 NA 
HETATM   11  C   UNL     1      -6.953  11.783  68.514  1.00  0.00    -0.083 A  
HETATM   12  C   UNL     1      -5.875  12.616  68.334  1.00  0.00    -0.059 A  
HETATM   13  C   UNL     1      -7.437  14.404  67.630  1.00  0.00    -0.191 A  
HETATM   14  C   UNL     1      -6.126  13.919  67.884  1.00  0.00    -0.153 A  
BRANCH  11  15
HETATM   15  N   UNL     1      -6.757  10.417  68.961  1.00  0.00    -0.057 NA 
HETATM   16  C   UNL     1      -5.531   9.778  69.095  1.00  0.00    -0.035 A  
HETATM   17  C   UNL     1      -5.775   8.498  69.519  1.00  0.00    -0.030 A  
HETATM   18  N   UNL     1      -7.785   9.575  69.328  1.00  0.00    -0.081 NA 
HETATM   19  C   UNL     1      -7.164   8.430  69.636  1.00  0.00    -0.057 A  
BRANCH  19  20
HETATM   20  O   UNL     1      -7.815   7.312  70.027  1.00  0.00    -0.107 OA 
BRANCH  20  21
HETATM   21  C   UNL     1      -7.205   6.548  71.066  1.00  0.00    -0.078 C  
BRANCH  21  22
HETATM   22  C   UNL     1      -8.028   6.695  72.375  1.00  0.00    -0.099 C  
HETATM   23  F   UNL     1      -6.921   6.915  74.494  1.00  0.00    -0.092 F  
HETATM   24  F   UNL     1      -6.087   8.036  72.833  1.00  0.00    -0.049 F  
HETATM   25  C   UNL     1      -8.289   5.309  73.000  1.00  0.00    -0.112 C  
HETATM   26  C   UNL     1      -9.403   7.328  72.074  1.00  0.00    -0.150 C  
HETATM   27  C   UNL     1      -7.245   7.581  73.362  1.00  0.00    -0.084 C  
HETATM   28  F   UNL     1      -7.953   8.670  73.741  1.00  0.00    -0.228 F  
ENDBRANCH  21  22
ENDBRANCH  20  21
ENDBRANCH  19  20
ENDBRANCH  11  15
BRANCH  13  29
HETATM   29  C   UNL     1      -7.444  15.852  67.164  1.00  0.00    -0.227 C  
HETATM   30  H   UNL     1      -6.189  16.525  68.685  1.00  0.00     0.000 HD 
HETATM   31  N   UNL     1      -6.780  16.841  67.916  1.00  0.00    -0.137 N  
HETATM   32  O   UNL     1      -7.951  16.117  66.082  1.00  0.00    -0.217 OA 
BRANCH  31  33
HETATM   33  S   UNL     1      -6.881  18.515  67.649  1.00  0.00    -0.205 S  
HETATM   34  O   UNL     1      -6.491  19.176  68.868  1.00  0.00    -0.247 OA 
HETATM   35  O   UNL     1      -6.120  18.728  66.434  1.00  0.00    -0.156 OA 
BRANCH  33  36
HETATM   36  C   UNL     1      -8.452  19.175  67.279  1.00  0.00    -0.278 A  
HETATM   37  C   UNL     1      -8.836  19.770  66.085  1.00  0.00    -0.336 A  
HETATM   38  N   UNL     1     -10.169  20.035  66.186  1.00  0.00    -0.481 NA 
HETATM   39  N   UNL     1     -10.701  19.640  67.346  1.00  0.00    -0.462 NA 
HETATM   40  C   UNL     1     -11.061  20.618  65.212  1.00  0.00     1.187 C  
HETATM   41  C   UNL     1      -9.690  19.051  68.001  1.00  0.00    -0.340 A  
HETATM   42  C   UNL     1     -10.086  18.350  69.256  1.00  0.00    -0.045 C  
ENDBRANCH  33  36
ENDBRANCH  31  33
ENDBRANCH  13  29
ENDBRANCH   4   9
TORSDOF 8
ENDMDL
MODEL      140
REMARK 921   NORMALIZED FREE ENERGY PREDICTED BY IDOCK:   -4.28 KCAL/MOL
REMARK 922        TOTAL FREE ENERGY PREDICTED BY IDOCK:   -7.91 KCAL/MOL
REMARK 923 INTER-LIGAND FREE ENERGY PREDICTED BY IDOCK:   -8.29 KCAL/MOL
REMARK 924 INTRA-LIGAND FREE ENERGY PREDICTED BY IDOCK:    0.38 KCAL/MOL
REMARK 927      BINDING AFFINITY PREDICTED BY RF-SCORE:    0.00 PKD
ROOT
HETATM    1  C   UNL     1      -7.999  14.694  67.306  1.00  0.00    -0.223 C  
HETATM    2  C   UNL     1      -8.112  13.475  68.221  1.00  0.00    -0.155 C  
HETATM    3  C   UNL     1      -7.833  12.180  67.465  1.00  0.00    -0.162 C  
HETATM    4  N   UNL     1      -9.143  11.697  67.014  1.00  0.00    -0.174 NA 
HETATM    5  C   UNL     1     -10.479  10.938  68.923  1.00  0.00    -0.228 C  
HETATM    6  C   UNL     1     -10.187  12.142  68.007  1.00  0.00    -0.201 C  
HETATM    7  C   UNL     1      -9.514  13.297  68.800  1.00  0.00     0.084 C  
HETATM    8  C   UNL     1     -11.549  12.662  67.535  1.00  0.00    -0.418 C  
ENDROOT
BRANCH   4   9
HETATM    9  C   UNL     1      -9.361  11.407  65.678  1.00  0.00    -0.222 A  
HETATM   10  N   UNL     1      -8.852  10.200  65.266  1.00  0.00    -0.167 NA 
HETATM   11  C   UNL     1      -9.014   9.709  64.005  1.00  0.00    -0.223 A  
HETATM   12  C   UNL     1      -9.714  10.425  63.062  1.00  0.00    -0.288 A  
HETATM   13  C   UNL     1     -10.073  12.202  64.750  1.00  0.00    -0.276 A  
HETATM   14  C   UNL     1     -10.246  11.664  63.447  1.00  0.00    -0.471 A  
BRANCH  11  15
HETATM   15  N   UNL     1      -8.455   8.413  63.673  1.00  0.00    -0.053 NA 
HETATM   16  C   UNL     1      -8.084   7.993  62.403  1.00  0.00    -0.163 A  
HETATM   17  C   UNL     1      -7.624   6.706  62.508  1.00  0.00    -0.088 A  
HETATM   18  N   UNL     1      -8.206   7.426  64.602  1.00  0.00    -0.089 NA 
HETATM   19  C   UNL     1      -7.729   6.412  63.869  1.00  0.00    -0.104 A  
BRANCH  19  20
HETATM   20  O   UNL     1      -7.378   5.216  64.391  1.00  0.00    -0.057 OA 
BRANCH  20  21
HETATM   21  C   UNL     1      -7.675   5.011  65.771  1.00  0.00    -0.091 C  
BRANCH  21  22
HETATM   22  C   UNL     1      -7.980   3.508  66.023  1.00  0.00    -0.092 C  
HETATM   23  F   UNL     1      -6.199   1.956  66.453  1.00  0.00    -0.021 F  
HETATM   24  F   UNL     1      -6.071   3.890  67.431  1.00  0.00    -0.025 F  
HETATM   25  C   UNL     1      -7.933   2.724  64.696  1.00  0.00    -0.078 C  
HETATM   26  C   UNL     1      -9.401   3.342  66.603  1.00  0.00    -0.179 C  
HETATM   27  C   UNL     1      -6.939   2.944  67.008  1.00  0.00    -0.049 C  
HETATM   28  F   UNL     1      -7.517   2.422  68.115  1.00  0.00    -0.052 F  
ENDBRANCH  21  22
ENDBRANCH  20  21
ENDBRANCH  19  20
ENDBRANCH  11  15
BRANCH  13  29
HETATM   29  C   UNL     1     -10.732  13.563  64.912  1.00  0.00    -0.381 C  
HETATM   30  H   UNL     1      -8.936  14.601  65.099  1.00  0.00     0.000 HD 
HETATM   31  N   UNL     1      -9.948  14.704  65.170  1.00  0.00    -0.317 N  
HETATM   32  O   UNL     1     -11.937  13.657  64.717  1.00  0.00    -0.363 OA 
BRANCH  31  33
HETATM   33  S   UNL     1     -10.548  16.237  65.590  1.00  0.00    -0.296 S  
HETATM   34  O   UNL     1     -11.171  16.797  64.417  1.00  0.00    -1.112 OA 
HETATM   35  O   UNL     1     -11.335  15.996  66.784  1.00  0.00     0.002 OA 
BRANCH  33  36
HETATM   36  C   UNL     1      -9.392  17.443  66.087  1.00  0.00    -0.149 A  
HETATM   37  C   UNL     1      -8.053  17.501  65.723  1.00  0.00     0.185 A  
HETATM   38  N   UNL     1      -7.554  18.660  66.238  1.00  0.00    -0.259 NA 
HETATM   39  N   UNL     1      -8.465  19.384  66.895  1.00  0.00    -0.281 NA 
HETATM   40  C   UNL     1      -6.225  19.214  66.123  1.00  0.00    -0.178 C  
HETATM   41  C   UNL     1      -9.608  18.697  66.757  1.00  0.00    -0.318 A  
HETATM   42  C   UNL     1     -10.824  19.409  67.246  1.00  0.00    -0.561 C  
ENDBRANCH  33  36
ENDBRANCH  31  33
ENDBRANCH  13  29
ENDBRANCH   4   9
TORSDOF 8
ENDMDL
MODEL      141
REMARK 921   NORMALIZED FREE ENERGY PREDICTED BY IDOCK:   -4.27 KCAL/MOL
REMARK 922        TOTAL FREE ENERGY PREDICTED BY IDOCK:   -7.89 KCAL/MOL
REMARK 923 INTER-LIGAND FREE ENERGY PREDICTED BY IDOCK:   -7.29 KCAL/MOL
REMARK 924 INTRA-LIGAND FREE ENERGY PREDICTED BY IDOCK:   -0.60 KCAL/MOL
REMARK 927      BINDING AFFINITY PREDICTED BY RF-SCORE:    0.00 PKD
ROOT
HETATM    1  C   UNL     1      -8.384  13.356  67.862  1.00  0.00    -0.166 C  
HETATM    2  C   UNL     1      -8.272  12.016  68.589  1.00  0.00    -0.052 C  
HETATM    3  C   UNL     1      -7.665  10.942  67.692  1.00  0.00    -0.108 C  
HETATM    4  N   UNL     1      -8.804  10.264  67.064  1.00  0.00    -0.136 NA 
HETATM    5  C   UNL     1     -10.042   8.954  68.724  1.00  0.00    -0.215 C  
HETATM    6  C   UNL     1      -9.977  10.318  68.010  1.00  0.00    -0.153 C  
HETATM    7  C   UNL     1      -9.628  11.455  69.010  1.00  0.00    -0.004 C  
HETATM    8  C   UNL     1     -11.392  10.599  67.493  1.00  0.00    -0.241 C  
ENDROOT
BRANCH   4   9
HETATM    9  C   UNL     1      -8.874  10.141  65.687  1.00  0.00    -0.165 A  
HETATM   10  N   UNL     1      -8.359   8.968  65.192  1.00  0.00    -0.148 NA 
HETATM   11  C   UNL     1      -8.389   8.635  63.870  1.00  0.00    -0.114 A  
HETATM   12  C   UNL     1      -8.951   9.486  62.949  1.00  0.00    -0.230 A  
HETATM   13  C   UNL     1      -9.448  11.069  64.788  1.00  0.00    -0.267 A  
HETATM   14  C   UNL     1      -9.485  10.694  63.417  1.00  0.00    -0.352 A  
BRANCH  11  15
HETATM   15  N   UNL     1      -7.836   7.363  63.449  1.00  0.00    -0.126 NA 
HETATM   16  C   UNL     1      -6.648   7.187  62.752  1.00  0.00    -0.052 A  
HETATM   17  C   UNL     1      -6.491   5.844  62.528  1.00  0.00    -0.028 A  
HETATM   18  N   UNL     1      -8.429   6.146  63.709  1.00  0.00     0.093 NA 
HETATM   19  C   UNL     1      -7.610   5.261  63.126  1.00  0.00    -0.068 A  
BRANCH  19  20
HETATM   20  O   UNL     1      -7.837   3.929  63.117  1.00  0.00    -0.071 OA 
BRANCH  20  21
HETATM   21  C   UNL     1      -8.977   3.472  63.843  1.00  0.00    -0.095 C  
BRANCH  21  22
HETATM   22  C   UNL     1      -8.531   2.927  65.228  1.00  0.00    -0.100 C  
HETATM   23  F   UNL     1      -8.051   4.434  67.035  1.00  0.00    -0.098 F  
HETATM   24  F   UNL     1      -9.797   4.880  65.825  1.00  0.00    -0.161 F  
HETATM   25  C   UNL     1      -6.992   2.840  65.297  1.00  0.00    -0.052 C  
HETATM   26  C   UNL     1      -9.082   1.501  65.444  1.00  0.00    -0.096 C  
HETATM   27  C   UNL     1      -9.057   3.867  66.328  1.00  0.00    -0.148 C  
HETATM   28  F   UNL     1      -9.840   3.219  67.221  1.00  0.00    -0.224 F  
ENDBRANCH  21  22
ENDBRANCH  20  21
ENDBRANCH  19  20
ENDBRANCH  11  15
BRANCH  13  29
HETATM   29  C   UNL     1     -10.079  12.431  65.037  1.00  0.00    -0.247 C  
HETATM   30  H   UNL     1     -12.027  11.783  64.680  1.00  0.00     0.000 HD 
HETATM   31  N   UNL     1     -11.462  12.616  64.846  1.00  0.00    -0.311 N  
HETATM   32  O   UNL     1      -9.381  13.324  65.498  1.00  0.00     0.098 OA 
BRANCH  31  33
HETATM   33  S   UNL     1     -12.268  14.111  64.870  1.00  0.00    -0.438 S  
HETATM   34  O   UNL     1     -12.393  14.561  63.507  1.00  0.00    -0.648 OA 
HETATM   35  O   UNL     1     -13.456  13.862  65.663  1.00  0.00    -0.590 OA 
BRANCH  33  36
HETATM   36  C   UNL     1     -11.484  15.432  65.695  1.00  0.00    -0.049 A  
HETATM   37  C   UNL     1     -11.099  16.642  65.134  1.00  0.00    -0.081 A  
HETATM   38  N   UNL     1     -10.635  17.420  66.152  1.00  0.00    -0.267 NA 
HETATM   39  N   UNL     1     -10.705  16.826  67.347  1.00  0.00    -0.288 NA 
HETATM   40  C   UNL     1     -10.144  18.777  66.115  1.00  0.00    -0.384 C  
HETATM   41  C   UNL     1     -11.283  15.640  67.104  1.00  0.00    -0.152 A  
HETATM   42  C   UNL     1     -11.648  14.865  68.324  1.00  0.00    -0.356 C  
ENDBRANCH  33  36
ENDBRANCH  31  33
ENDBRANCH  13  29
ENDBRANCH   4   9
TORSDOF 8
ENDMDL
MODEL      142
REMARK 921   NORMALIZED FREE ENERGY PREDICTED BY IDOCK:   -4.22 KCAL/MOL
REMARK 922        TOTAL FREE ENERGY PREDICTED BY IDOCK:   -7.82 KCAL/MOL
REMARK 923 INTER-LIGAND FREE ENERGY PREDICTED BY IDOCK:   -7.49 KCAL/MOL
REMARK 924 INTRA-LIGAND FREE ENERGY PREDICTED BY IDOCK:   -0.34 KCAL/MOL
REMARK 927      BINDING AFFINITY PREDICTED BY RF-SCORE:    0.00 PKD
ROOT
HETATM    1  C   UNL     1     -11.307  14.971  69.138  1.00  0.00    -0.311 C  
HETATM    2  C   UNL     1     -11.991  14.003  68.173  1.00  0.00    -0.382 C  
HETATM    3  C   UNL     1     -11.400  12.601  68.274  1.00  0.00    -0.295 C  
HETATM    4  N   UNL     1     -10.350  12.541  67.252  1.00  0.00    -0.219 NA 
HETATM    5  C   UNL     1     -11.335  12.558  65.009  1.00  0.00    -0.353 C  
HETATM    6  C   UNL     1     -10.735  13.450  66.113  1.00  0.00    -0.284 C  
HETATM    7  C   UNL     1     -11.811  14.400  66.709  1.00  0.00    -0.431 C  
HETATM    8  C   UNL     1      -9.690  14.337  65.427  1.00  0.00    -0.135 C  
ENDROOT
BRANCH   4   9
HETATM    9  C   UNL     1      -9.062  12.163  67.593  1.00  0.00    -0.181 A  
HETATM   10  N   UNL     1      -8.833  10.810  67.543  1.00  0.00    -0.129 NA 
HETATM   11  C   UNL     1      -7.615  10.247  67.786  1.00  0.00    -0.089 A  
HETATM   12  C   UNL     1      -6.533  11.033  68.102  1.00  0.00    -0.057 A  
HETATM   13  C   UNL     1      -7.995  13.026  67.934  1.00  0.00    -0.157 A  
HETATM   14  C   UNL     1      -6.731  12.419  68.165  1.00  0.00    -0.075 A  
BRANCH  11  15
HETATM   15  N   UNL     1      -7.471   8.807  67.688  1.00  0.00    -0.092 NA 
HETATM   16  C   UNL     1      -6.681   8.134  66.766  1.00  0.00    -0.064 A  
HETATM   17  C   UNL     1      -6.834   6.790  66.989  1.00  0.00    -0.069 A  
HETATM   18  N   UNL     1      -8.104   7.915  68.526  1.00  0.00    -0.121 NA 
HETATM   19  C   UNL     1      -7.717   6.717  68.067  1.00  0.00    -0.112 A  
BRANCH  19  20
HETATM   20  O   UNL     1      -8.137   5.546  68.595  1.00  0.00    -0.100 OA 
BRANCH  20  21
HETATM   21  C   UNL     1      -9.236   4.911  67.945  1.00  0.00    -0.122 C  
BRANCH  21  22
HETATM   22  C   UNL     1      -8.757   3.591  67.280  1.00  0.00    -0.131 C  
HETATM   23  F   UNL     1      -9.806   2.783  65.277  1.00  0.00    -0.075 F  
HETATM   24  F   UNL     1      -9.412   4.915  65.384  1.00  0.00    -0.156 F  
HETATM   25  C   UNL     1      -9.568   2.395  67.821  1.00  0.00    -0.025 C  
HETATM   26  C   UNL     1      -7.274   3.329  67.618  1.00  0.00    -0.054 C  
HETATM   27  C   UNL     1      -8.938   3.704  65.755  1.00  0.00    -0.137 C  
HETATM   28  F   UNL     1      -7.774   3.522  65.089  1.00  0.00    -0.077 F  
ENDBRANCH  21  22
ENDBRANCH  20  21
ENDBRANCH  19  20
ENDBRANCH  11  15
BRANCH  13  29
HETATM   29  C   UNL     1      -7.950  14.539  68.074  1.00  0.00    -0.135 C  
HETATM   30  H   UNL     1      -6.309  14.779  66.813  1.00  0.00     0.000 HD 
HETATM   31  N   UNL     1      -6.921  15.278  67.459  1.00  0.00    -0.186 N  
HETATM   32  O   UNL     1      -8.875  15.102  68.645  1.00  0.00    -0.169 OA 
BRANCH  31  33
HETATM   33  S   UNL     1      -6.613  16.930  67.704  1.00  0.00    -0.154 S  
HETATM   34  O   UNL     1      -6.799  17.206  69.106  1.00  0.00    -0.227 OA 
HETATM   35  O   UNL     1      -5.318  17.146  67.088  1.00  0.00    -0.126 OA 
BRANCH  33  36
HETATM   36  C   UNL     1      -7.655  18.069  66.894  1.00  0.00    -0.213 A  
HETATM   37  C   UNL     1      -9.015  17.921  66.659  1.00  0.00    -0.268 A  
HETATM   38  N   UNL     1      -9.452  19.088  66.108  1.00  0.00    -0.455 NA 
HETATM   39  N   UNL     1      -8.489  20.006  65.981  1.00  0.00    -0.292 NA 
HETATM   40  C   UNL     1     -10.785  19.467  65.707  1.00  0.00    -0.365 C  
HETATM   41  C   UNL     1      -7.400  19.434  66.516  1.00  0.00    -0.239 A  
HETATM   42  C   UNL     1      -6.230  20.345  66.668  1.00  0.00    -0.225 C  
ENDBRANCH  33  36
ENDBRANCH  31  33
ENDBRANCH  13  29
ENDBRANCH   4   9
TORSDOF 8
ENDMDL
MODEL      143
REMARK 921   NORMALIZED FREE ENERGY PREDICTED BY IDOCK:   -4.17 KCAL/MOL
REMARK 922        TOTAL FREE ENERGY PREDICTED BY IDOCK:   -7.75 KCAL/MOL
REMARK 923 INTER-LIGAND FREE ENERGY PREDICTED BY IDOCK:   -7.53 KCAL/MOL
REMARK 924 INTRA-LIGAND FREE ENERGY PREDICTED BY IDOCK:   -0.22 KCAL/MOL
REMARK 927      BINDING AFFINITY PREDICTED BY RF-SCORE:    0.00 PKD
ROOT
HETATM    1  C   UNL     1      -7.013  14.255  69.390  1.00  0.00    -0.106 C  
HETATM    2  C   UNL     1      -5.829  13.300  69.240  1.00  0.00    -0.088 C  
HETATM    3  C   UNL     1      -5.742  12.732  67.827  1.00  0.00    -0.131 C  
HETATM    4  N   UNL     1      -6.483  11.467  67.865  1.00  0.00    -0.054 NA 
HETATM    5  C   UNL     1      -5.273   9.805  69.197  1.00  0.00    -0.036 C  
HETATM    6  C   UNL     1      -6.370  10.885  69.252  1.00  0.00    -0.064 C  
HETATM    7  C   UNL     1      -5.936  12.078  70.149  1.00  0.00    -0.159 C  
HETATM    8  C   UNL     1      -7.579  10.234  69.933  1.00  0.00    -0.153 C  
ENDROOT
BRANCH   4   9
HETATM    9  C   UNL     1      -7.504  11.226  66.962  1.00  0.00    -0.139 A  
HETATM   10  N   UNL     1      -7.414  10.023  66.306  1.00  0.00    -0.103 NA 
HETATM   11  C   UNL     1      -8.353   9.578  65.423  1.00  0.00    -0.139 A  
HETATM   12  C   UNL     1      -9.462  10.339  65.142  1.00  0.00    -0.309 A  
HETATM   13  C   UNL     1      -8.612  12.066  66.701  1.00  0.00    -0.143 A  
HETATM   14  C   UNL     1      -9.587  11.575  65.791  1.00  0.00    -0.259 A  
BRANCH  11  15
HETATM   15  N   UNL     1      -8.176   8.283  64.797  1.00  0.00    -0.154 NA 
HETATM   16  C   UNL     1      -7.804   8.066  63.477  1.00  0.00    -0.146 A  
HETATM   17  C   UNL     1      -7.768   6.711  63.272  1.00  0.00    -0.106 A  
HETATM   18  N   UNL     1      -8.346   7.083  65.455  1.00  0.00    -0.138 NA 
HETATM   19  C   UNL     1      -8.115   6.165  64.509  1.00  0.00    -0.118 A  
BRANCH  19  20
HETATM   20  O   UNL     1      -8.204   4.834  64.725  1.00  0.00    -0.111 OA 
BRANCH  20  21
HETATM   21  C   UNL     1      -8.943   4.423  65.874  1.00  0.00    -0.124 C  
BRANCH  21  22
HETATM   22  C   UNL     1      -8.252   3.195  66.529  1.00  0.00    -0.090 C  
HETATM   23  F   UNL     1      -5.895   3.222  66.986  1.00  0.00    -0.020 F  
HETATM   24  F   UNL     1      -7.000   5.036  67.433  1.00  0.00    -0.058 F  
HETATM   25  C   UNL     1      -7.720   2.239  65.441  1.00  0.00    -0.076 C  
HETATM   26  C   UNL     1      -9.266   2.402  67.380  1.00  0.00    -0.174 C  
HETATM   27  C   UNL     1      -7.092   3.687  67.413  1.00  0.00    -0.059 C  
HETATM   28  F   UNL     1      -7.227   3.287  68.699  1.00  0.00    -0.048 F  
ENDBRANCH  21  22
ENDBRANCH  20  21
ENDBRANCH  19  20
ENDBRANCH  11  15
BRANCH  13  29
HETATM   29  C   UNL     1      -8.971  13.434  67.260  1.00  0.00    -0.221 C  
HETATM   30  H   UNL     1     -10.569  12.738  68.401  1.00  0.00     0.000 HD 
HETATM   31  N   UNL     1     -10.102  13.587  68.086  1.00  0.00    -0.243 N  
HETATM   32  O   UNL     1      -8.208  14.369  67.057  1.00  0.00    -0.189 OA 
BRANCH  31  33
HETATM   33  S   UNL     1     -10.752  15.070  68.601  1.00  0.00    -0.253 S  
HETATM   34  O   UNL     1     -12.159  14.870  68.840  1.00  0.00    -0.273 OA 
HETATM   35  O   UNL     1      -9.884  15.481  69.686  1.00  0.00    -0.265 OA 
BRANCH  33  36
HETATM   36  C   UNL     1     -10.686  16.406  67.483  1.00  0.00    -0.298 A  
HETATM   37  C   UNL     1     -10.331  17.714  67.782  1.00  0.00    -0.365 A  
HETATM   38  N   UNL     1     -10.302  18.396  66.603  1.00  0.00    -0.382 NA 
HETATM   39  N   UNL     1     -10.589  17.634  65.543  1.00  0.00    -0.615 NA 
HETATM   40  C   UNL     1      -9.960  19.776  66.353  1.00  0.00    -0.470 C  
HETATM   41  C   UNL     1     -10.759  16.402  66.046  1.00  0.00    -0.191 A  
HETATM   42  C   UNL     1     -10.900  15.327  65.024  1.00  0.00    -0.457 C  
ENDBRANCH  33  36
ENDBRANCH  31  33
ENDBRANCH  13  29
ENDBRANCH   4   9
TORSDOF 8
ENDMDL
MODEL      144
REMARK 921   NORMALIZED FREE ENERGY PREDICTED BY IDOCK:   -4.15 KCAL/MOL
REMARK 922        TOTAL FREE ENERGY PREDICTED BY IDOCK:   -7.72 KCAL/MOL
REMARK 923 INTER-LIGAND FREE ENERGY PREDICTED BY IDOCK:   -6.83 KCAL/MOL
REMARK 924 INTRA-LIGAND FREE ENERGY PREDICTED BY IDOCK:   -0.89 KCAL/MOL
REMARK 927      BINDING AFFINITY PREDICTED BY RF-SCORE:    0.00 PKD
ROOT
HETATM    1  C   UNL     1     -10.481   6.835  70.345  1.00  0.00    -0.236 C  
HETATM    2  C   UNL     1      -9.663   7.640  71.354  1.00  0.00    -0.183 C  
HETATM    3  C   UNL     1      -9.587   9.112  70.964  1.00  0.00    -0.280 C  
HETATM    4  N   UNL     1      -8.355   9.249  70.179  1.00  0.00    -0.157 NA 
HETATM    5  C   UNL     1      -6.389   8.960  71.611  1.00  0.00    -0.074 C  
HETATM    6  C   UNL     1      -7.359   8.227  70.665  1.00  0.00    -0.057 C  
HETATM    7  C   UNL     1      -8.209   7.181  71.438  1.00  0.00    -0.107 C  
HETATM    8  C   UNL     1      -6.486   7.447  69.676  1.00  0.00    -0.036 C  
ENDROOT
BRANCH   4   9
HETATM    9  C   UNL     1      -8.389   9.817  68.916  1.00  0.00    -0.120 A  
HETATM   10  N   UNL     1      -7.924  11.107  68.859  1.00  0.00    -0.142 NA 
HETATM   11  C   UNL     1      -7.822  11.816  67.698  1.00  0.00    -0.138 A  
HETATM   12  C   UNL     1      -8.194  11.252  66.501  1.00  0.00    -0.165 A  
HETATM   13  C   UNL     1      -8.807   9.186  67.721  1.00  0.00    -0.125 A  
HETATM   14  C   UNL     1      -8.676   9.936  66.522  1.00  0.00    -0.139 A  
BRANCH  11  15
HETATM   15  N   UNL     1      -7.299  13.168  67.740  1.00  0.00    -0.127 NA 
HETATM   16  C   UNL     1      -6.021  13.530  68.144  1.00  0.00    -0.115 A  
HETATM   17  C   UNL     1      -5.928  14.894  68.060  1.00  0.00    -0.158 A  
HETATM   18  N   UNL     1      -8.021  14.281  67.363  1.00  0.00    -0.191 NA 
HETATM   19  C   UNL     1      -7.178  15.297  67.586  1.00  0.00    -0.180 A  
BRANCH  19  20
HETATM   20  O   UNL     1      -7.500  16.592  67.372  1.00  0.00    -0.144 OA 
BRANCH  20  21
HETATM   21  C   UNL     1      -8.462  17.164  68.257  1.00  0.00    -0.236 C  
BRANCH  21  22
HETATM   22  C   UNL     1      -8.813  18.603  67.787  1.00  0.00    -0.294 C  
HETATM   23  F   UNL     1     -10.980  19.095  66.877  1.00  0.00    -0.497 F  
HETATM   24  F   UNL     1     -10.920  17.804  68.621  1.00  0.00    -0.233 F  
HETATM   25  C   UNL     1      -8.484  18.772  66.290  1.00  0.00    -0.256 C  
HETATM   26  C   UNL     1      -7.970  19.639  68.562  1.00  0.00    -0.350 C  
HETATM   27  C   UNL     1     -10.312  18.857  68.030  1.00  0.00    -0.389 C  
HETATM   28  F   UNL     1     -10.525  19.928  68.830  1.00  0.00    -0.521 F  
ENDBRANCH  21  22
ENDBRANCH  20  21
ENDBRANCH  19  20
ENDBRANCH  11  15
BRANCH  13  29
HETATM   29  C   UNL     1      -9.365   7.792  67.480  1.00  0.00    -0.139 C  
HETATM   30  H   UNL     1      -7.584   6.814  67.940  1.00  0.00     0.000 HD 
HETATM   31  N   UNL     1      -8.523   6.666  67.571  1.00  0.00    -0.121 N  
HETATM   32  O   UNL     1     -10.570   7.666  67.303  1.00  0.00    -0.295 OA 
BRANCH  31  33
HETATM   33  S   UNL     1      -8.942   5.084  67.118  1.00  0.00    -0.114 S  
HETATM   34  O   UNL     1     -10.322   4.877  67.480  1.00  0.00    -0.136 OA 
HETATM   35  O   UNL     1      -8.536   4.993  65.729  1.00  0.00    -0.123 OA 
BRANCH  33  36
HETATM   36  C   UNL     1      -8.089   3.775  67.890  1.00  0.00    -0.084 A  
HETATM   37  C   UNL     1      -7.009   3.891  68.755  1.00  0.00    -0.047 A  
HETATM   38  N   UNL     1      -6.730   2.637  69.211  1.00  0.00    -0.033 NA 
HETATM   39  N   UNL     1      -7.557   1.703  68.731  1.00  0.00    -0.043 NA 
HETATM   40  C   UNL     1      -5.725   2.210  70.155  1.00  0.00    -0.017 C  
HETATM   41  C   UNL     1      -8.436   2.381  67.978  1.00  0.00    -0.076 A  
HETATM   42  C   UNL     1      -9.586   1.572  67.485  1.00  0.00     0.050 C  
ENDBRANCH  33  36
ENDBRANCH  31  33
ENDBRANCH  13  29
ENDBRANCH   4   9
TORSDOF 8
ENDMDL
MODEL      145
REMARK 921   NORMALIZED FREE ENERGY PREDICTED BY IDOCK:   -4.14 KCAL/MOL
REMARK 922        TOTAL FREE ENERGY PREDICTED BY IDOCK:   -7.70 KCAL/MOL
REMARK 923 INTER-LIGAND FREE ENERGY PREDICTED BY IDOCK:   -7.64 KCAL/MOL
REMARK 924 INTRA-LIGAND FREE ENERGY PREDICTED BY IDOCK:   -0.07 KCAL/MOL
REMARK 927      BINDING AFFINITY PREDICTED BY RF-SCORE:    0.00 PKD
ROOT
HETATM    1  C   UNL     1      -6.216   7.672  64.953  1.00  0.00    -0.038 C  
HETATM    2  C   UNL     1      -6.946   8.685  64.072  1.00  0.00    -0.082 C  
HETATM    3  C   UNL     1      -6.662  10.117  64.513  1.00  0.00    -0.117 C  
HETATM    4  N   UNL     1      -7.743  10.465  65.441  1.00  0.00    -0.146 NA 
HETATM    5  C   UNL     1      -9.869  10.675  64.241  1.00  0.00    -0.391 C  
HETATM    6  C   UNL     1      -8.982   9.703  65.044  1.00  0.00    -0.212 C  
HETATM    7  C   UNL     1      -8.465   8.546  64.145  1.00  0.00    -0.052 C  
HETATM    8  C   UNL     1      -9.890   9.070  66.104  1.00  0.00    -0.349 C  
ENDROOT
BRANCH   4   9
HETATM    9  C   UNL     1      -7.452  10.943  66.708  1.00  0.00    -0.134 A  
HETATM   10  N   UNL     1      -7.073  12.262  66.747  1.00  0.00     0.063 NA 
HETATM   11  C   UNL     1      -6.803  12.931  67.904  1.00  0.00    -0.120 A  
HETATM   12  C   UNL     1      -6.900  12.292  69.118  1.00  0.00    -0.073 A  
HETATM   13  C   UNL     1      -7.550  10.223  67.921  1.00  0.00    -0.089 A  
HETATM   14  C   UNL     1      -7.282  10.944  69.116  1.00  0.00    -0.118 A  
BRANCH  11  15
HETATM   15  N   UNL     1      -6.429  14.330  67.841  1.00  0.00    -0.152 NA 
HETATM   16  C   UNL     1      -5.144  14.833  67.995  1.00  0.00    -0.100 A  
HETATM   17  C   UNL     1      -5.215  16.197  67.889  1.00  0.00    -0.135 A  
HETATM   18  N   UNL     1      -7.323  15.352  67.602  1.00  0.00    -0.161 NA 
HETATM   19  C   UNL     1      -6.567  16.456  67.658  1.00  0.00    -0.148 A  
BRANCH  19  20
HETATM   20  O   UNL     1      -7.060  17.705  67.503  1.00  0.00    -0.166 OA 
BRANCH  20  21
HETATM   21  C   UNL     1      -8.128  17.858  66.569  1.00  0.00    -0.272 C  
BRANCH  21  22
HETATM   22  C   UNL     1      -9.359  18.484  67.281  1.00  0.00    -0.286 C  
HETATM   23  F   UNL     1      -9.631  20.867  67.378  1.00  0.00    -0.570 F  
HETATM   24  F   UNL     1      -8.954  20.035  65.491  1.00  0.00    -0.280 F  
HETATM   25  C   UNL     1      -9.033  18.767  68.762  1.00  0.00    -0.315 C  
HETATM   26  C   UNL     1     -10.549  17.500  67.254  1.00  0.00    -0.287 C  
HETATM   27  C   UNL     1      -9.740  19.792  66.563  1.00  0.00    -0.422 C  
HETATM   28  F   UNL     1     -11.016  19.773  66.114  1.00  0.00    -0.523 F  
ENDBRANCH  21  22
ENDBRANCH  20  21
ENDBRANCH  19  20
ENDBRANCH  11  15
BRANCH  13  29
HETATM   29  C   UNL     1      -7.931   8.775  68.186  1.00  0.00    -0.106 C  
HETATM   30  H   UNL     1      -6.073   8.007  67.640  1.00  0.00     0.000 HD 
HETATM   31  N   UNL     1      -7.023   7.738  67.893  1.00  0.00    -0.075 N  
HETATM   32  O   UNL     1      -8.994   8.542  68.746  1.00  0.00    -0.139 OA 
BRANCH  31  33
HETATM   33  S   UNL     1      -7.380   6.078  67.925  1.00  0.00    -0.085 S  
HETATM   34  O   UNL     1      -6.200   5.370  67.498  1.00  0.00    -0.032 OA 
HETATM   35  O   UNL     1      -7.917   5.856  69.254  1.00  0.00    -0.096 OA 
BRANCH  33  36
HETATM   36  C   UNL     1      -8.639   5.507  66.865  1.00  0.00    -0.110 A  
HETATM   37  C   UNL     1      -8.473   4.709  65.741  1.00  0.00    -0.117 A  
HETATM   38  N   UNL     1      -9.719   4.407  65.281  1.00  0.00    -0.183 NA 
HETATM   39  N   UNL     1     -10.699   4.926  66.027  1.00  0.00    -0.287 NA 
HETATM   40  C   UNL     1     -10.106   3.584  64.160  1.00  0.00    -0.204 C  
HETATM   41  C   UNL     1     -10.068   5.542  67.037  1.00  0.00    -0.194 A  
HETATM   42  C   UNL     1     -10.964   6.039  68.120  1.00  0.00    -0.340 C  
ENDBRANCH  33  36
ENDBRANCH  31  33
ENDBRANCH  13  29
ENDBRANCH   4   9
TORSDOF 8
ENDMDL
MODEL      146
REMARK 921   NORMALIZED FREE ENERGY PREDICTED BY IDOCK:   -4.11 KCAL/MOL
REMARK 922        TOTAL FREE ENERGY PREDICTED BY IDOCK:   -7.67 KCAL/MOL
REMARK 923 INTER-LIGAND FREE ENERGY PREDICTED BY IDOCK:   -7.72 KCAL/MOL
REMARK 924 INTRA-LIGAND FREE ENERGY PREDICTED BY IDOCK:    0.05 KCAL/MOL
REMARK 927      BINDING AFFINITY PREDICTED BY RF-SCORE:    0.00 PKD
ROOT
HETATM    1  C   UNL     1      -9.318   8.710  66.539  1.00  0.00    -0.257 C  
HETATM    2  C   UNL     1     -10.115   9.933  66.086  1.00  0.00    -0.315 C  
HETATM    3  C   UNL     1      -9.225  11.165  65.956  1.00  0.00    -0.205 C  
HETATM    4  N   UNL     1      -9.313  11.852  67.249  1.00  0.00    -0.174 NA 
HETATM    5  C   UNL     1     -11.543  12.820  67.553  1.00  0.00    -0.412 C  
HETATM    6  C   UNL     1     -10.672  11.583  67.845  1.00  0.00    -0.200 C  
HETATM    7  C   UNL     1     -11.200  10.336  67.082  1.00  0.00    -0.022 C  
HETATM    8  C   UNL     1     -10.831  11.289  69.340  1.00  0.00    -0.239 C  
ENDROOT
BRANCH   4   9
HETATM    9  C   UNL     1      -8.164  12.172  67.952  1.00  0.00    -0.155 A  
HETATM   10  N   UNL     1      -7.786  13.489  67.859  1.00  0.00    -0.142 NA 
HETATM   11  C   UNL     1      -6.718  14.011  68.526  1.00  0.00    -0.099 A  
HETATM   12  C   UNL     1      -5.950  13.216  69.344  1.00  0.00    -0.102 A  
HETATM   13  C   UNL     1      -7.403  11.297  68.761  1.00  0.00    -0.109 A  
HETATM   14  C   UNL     1      -6.305  11.865  69.462  1.00  0.00    -0.122 A  
BRANCH  11  15
HETATM   15  N   UNL     1      -6.412  15.420  68.377  1.00  0.00    -0.106 NA 
HETATM   16  C   UNL     1      -5.170  15.949  68.053  1.00  0.00    -0.123 A  
HETATM   17  C   UNL     1      -5.291  17.313  68.031  1.00  0.00    -0.121 A  
HETATM   18  N   UNL     1      -7.341  16.427  68.531  1.00  0.00    -0.171 NA 
HETATM   19  C   UNL     1      -6.633  17.546  68.337  1.00  0.00    -0.190 A  
BRANCH  19  20
HETATM   20  O   UNL     1      -7.162  18.787  68.426  1.00  0.00    -0.260 OA 
BRANCH  20  21
HETATM   21  C   UNL     1      -7.725  19.326  67.232  1.00  0.00    -0.245 C  
BRANCH  21  22
HETATM   22  C   UNL     1      -9.262  19.100  67.230  1.00  0.00    -0.335 C  
HETATM   23  F   UNL     1     -10.364  18.192  69.161  1.00  0.00    -0.369 F  
HETATM   24  F   UNL     1      -8.829  19.684  69.521  1.00  0.00    -0.284 F  
HETATM   25  C   UNL     1      -9.592  17.672  66.750  1.00  0.00    -0.297 C  
HETATM   26  C   UNL     1      -9.946  20.081  66.254  1.00  0.00    -0.597 C  
HETATM   27  C   UNL     1      -9.801  19.315  68.657  1.00  0.00    -0.431 C  
HETATM   28  F   UNL     1     -10.749  20.279  68.703  1.00  0.00    -0.466 F  
ENDBRANCH  21  22
ENDBRANCH  20  21
ENDBRANCH  19  20
ENDBRANCH  11  15
BRANCH  13  29
HETATM   29  C   UNL     1      -7.572   9.812  69.046  1.00  0.00    -0.082 C  
HETATM   30  H   UNL     1      -5.633   9.308  68.475  1.00  0.00     0.000 HD 
HETATM   31  N   UNL     1      -6.531   8.911  68.747  1.00  0.00    -0.052 N  
HETATM   32  O   UNL     1      -8.582   9.438  69.627  1.00  0.00    -0.140 OA 
BRANCH  31  33
HETATM   33  S   UNL     1      -6.650   7.217  68.801  1.00  0.00    -0.049 S  
HETATM   34  O   UNL     1      -7.274   6.784  67.577  1.00  0.00    -0.085 OA 
HETATM   35  O   UNL     1      -5.307   6.777  69.126  1.00  0.00    -0.013 OA 
BRANCH  33  36
HETATM   36  C   UNL     1      -7.634   6.522  70.061  1.00  0.00    -0.100 A  
HETATM   37  C   UNL     1      -8.623   5.561  69.899  1.00  0.00    -0.120 A  
HETATM   38  N   UNL     1      -9.053   5.222  71.147  1.00  0.00    -0.142 NA 
HETATM   39  N   UNL     1      -8.408   5.868  72.124  1.00  0.00    -0.118 NA 
HETATM   40  C   UNL     1     -10.044   4.248  71.539  1.00  0.00    -0.135 C  
HETATM   41  C   UNL     1      -7.491   6.614  71.490  1.00  0.00    -0.088 A  
HETATM   42  C   UNL     1      -6.509   7.287  72.387  1.00  0.00    -0.051 C  
ENDBRANCH  33  36
ENDBRANCH  31  33
ENDBRANCH  13  29
ENDBRANCH   4   9
TORSDOF 8
ENDMDL
MODEL      147
REMARK 921   NORMALIZED FREE ENERGY PREDICTED BY IDOCK:   -4.10 KCAL/MOL
REMARK 922        TOTAL FREE ENERGY PREDICTED BY IDOCK:   -7.65 KCAL/MOL
REMARK 923 INTER-LIGAND FREE ENERGY PREDICTED BY IDOCK:   -6.93 KCAL/MOL
REMARK 924 INTRA-LIGAND FREE ENERGY PREDICTED BY IDOCK:   -0.72 KCAL/MOL
REMARK 927      BINDING AFFINITY PREDICTED BY RF-SCORE:    0.00 PKD
ROOT
HETATM    1  C   UNL     1     -11.036   7.602  72.106  1.00  0.00    -0.314 C  
HETATM    2  C   UNL     1     -10.181   8.868  72.152  1.00  0.00    -0.292 C  
HETATM    3  C   UNL     1     -10.305   9.673  70.862  1.00  0.00    -0.264 C  
HETATM    4  N   UNL     1      -9.204   9.218  70.006  1.00  0.00    -0.192 NA 
HETATM    5  C   UNL     1      -7.052   9.960  70.910  1.00  0.00     0.124 C  
HETATM    6  C   UNL     1      -8.055   8.792  70.885  1.00  0.00    -0.150 C  
HETATM    7  C   UNL     1      -8.689   8.571  72.287  1.00  0.00    -0.261 C  
HETATM    8  C   UNL     1      -7.242   7.534  70.562  1.00  0.00    -0.064 C  
ENDROOT
BRANCH   4   9
HETATM    9  C   UNL     1      -9.457   8.768  68.721  1.00  0.00    -0.142 A  
HETATM   10  N   UNL     1      -9.131   7.452  68.504  1.00  0.00    -0.137 NA 
HETATM   11  C   UNL     1      -9.359   6.809  67.323  1.00  0.00    -0.134 A  
HETATM   12  C   UNL     1      -9.940   7.471  66.268  1.00  0.00    -0.000 A  
HETATM   13  C   UNL     1     -10.039   9.512  67.669  1.00  0.00    -0.254 A  
HETATM   14  C   UNL     1     -10.285   8.817  66.454  1.00  0.00    -0.256 A  
BRANCH  11  15
HETATM   15  N   UNL     1      -8.996   5.410  67.199  1.00  0.00    -0.112 NA 
HETATM   16  C   UNL     1      -9.562   4.503  66.313  1.00  0.00    -0.189 A  
HETATM   17  C   UNL     1      -8.964   3.288  66.523  1.00  0.00    -0.161 A  
HETATM   18  N   UNL     1      -8.015   4.803  67.953  1.00  0.00    -0.089 NA 
HETATM   19  C   UNL     1      -8.036   3.530  67.538  1.00  0.00    -0.081 A  
BRANCH  19  20
HETATM   20  O   UNL     1      -7.236   2.567  68.047  1.00  0.00    -0.048 OA 
BRANCH  20  21
HETATM   21  C   UNL     1      -7.766   1.804  69.130  1.00  0.00    -0.042 C  
BRANCH  21  22
HETATM   22  C   UNL     1      -7.479   2.532  70.472  1.00  0.00    -0.036 C  
HETATM   23  F   UNL     1      -8.672   4.532  71.056  1.00  0.00    -0.105 F  
HETATM   24  F   UNL     1      -9.829   2.927  70.164  1.00  0.00    -0.208 F  
HETATM   25  C   UNL     1      -6.388   3.605  70.276  1.00  0.00    -0.027 C  
HETATM   26  C   UNL     1      -6.951   1.529  71.521  1.00  0.00    -0.027 C  
HETATM   27  C   UNL     1      -8.779   3.185  70.975  1.00  0.00    -0.075 C  
HETATM   28  F   UNL     1      -9.124   2.750  72.209  1.00  0.00    -0.098 F  
ENDBRANCH  21  22
ENDBRANCH  20  21
ENDBRANCH  19  20
ENDBRANCH  11  15
BRANCH  13  29
HETATM   29  C   UNL     1     -10.491  10.963  67.613  1.00  0.00    -0.209 C  
HETATM   30  H   UNL     1      -8.687  11.730  68.322  1.00  0.00     0.000 HD 
HETATM   31  N   UNL     1      -9.645  11.987  68.084  1.00  0.00    -0.195 N  
HETATM   32  O   UNL     1     -11.553  11.226  67.064  1.00  0.00    -0.496 OA 
BRANCH  31  33
HETATM   33  S   UNL     1     -10.089  13.613  68.291  1.00  0.00    -0.241 S  
HETATM   34  O   UNL     1     -11.337  13.637  69.009  1.00  0.00    -0.257 OA 
HETATM   35  O   UNL     1      -8.910  14.233  68.865  1.00  0.00    -0.133 OA 
BRANCH  33  36
HETATM   36  C   UNL     1     -10.395  14.550  66.853  1.00  0.00    -0.264 A  
HETATM   37  C   UNL     1     -11.352  14.283  65.884  1.00  0.00    -0.328 A  
HETATM   38  N   UNL     1     -11.326  15.325  65.005  1.00  0.00    -0.374 NA 
HETATM   39  N   UNL     1     -10.440  16.271  65.331  1.00  0.00    -0.551 NA 
HETATM   40  C   UNL     1     -12.141  15.555  63.836  1.00  0.00     0.230 C  
HETATM   41  C   UNL     1      -9.910  15.855  66.490  1.00  0.00    -0.261 A  
HETATM   42  C   UNL     1      -9.024  16.849  67.160  1.00  0.00    -0.219 C  
ENDBRANCH  33  36
ENDBRANCH  31  33
ENDBRANCH  13  29
ENDBRANCH   4   9
TORSDOF 8
ENDMDL
MODEL      148
REMARK 921   NORMALIZED FREE ENERGY PREDICTED BY IDOCK:   -3.98 KCAL/MOL
REMARK 922        TOTAL FREE ENERGY PREDICTED BY IDOCK:   -7.48 KCAL/MOL
REMARK 923 INTER-LIGAND FREE ENERGY PREDICTED BY IDOCK:   -6.85 KCAL/MOL
REMARK 924 INTRA-LIGAND FREE ENERGY PREDICTED BY IDOCK:   -0.62 KCAL/MOL
REMARK 927      BINDING AFFINITY PREDICTED BY RF-SCORE:    0.00 PKD
ROOT
HETATM    1  C   UNL     1      -9.856  12.257  64.442  1.00  0.00    -0.136 C  
HETATM    2  C   UNL     1     -10.388  13.399  65.308  1.00  0.00    -0.330 C  
HETATM    3  C   UNL     1      -9.414  13.753  66.427  1.00  0.00    -0.243 C  
HETATM    4  N   UNL     1      -9.840  12.961  67.586  1.00  0.00    -0.207 NA 
HETATM    5  C   UNL     1     -11.981  13.784  68.445  1.00  0.00    -0.395 C  
HETATM    6  C   UNL     1     -11.331  12.752  67.504  1.00  0.00    -0.312 C  
HETATM    7  C   UNL     1     -11.692  13.045  66.021  1.00  0.00    -0.442 C  
HETATM    8  C   UNL     1     -11.955  11.397  67.854  1.00  0.00    -0.120 C  
ENDROOT
BRANCH   4   9
HETATM    9  C   UNL     1      -8.938  12.142  68.244  1.00  0.00    -0.186 A  
HETATM   10  N   UNL     1      -9.346  10.838  68.381  1.00  0.00    -0.160 NA 
HETATM   11  C   UNL     1      -8.574   9.867  68.946  1.00  0.00    -0.135 A  
HETATM   12  C   UNL     1      -7.317  10.162  69.420  1.00  0.00    -0.106 A  
HETATM   13  C   UNL     1      -7.663  12.515  68.730  1.00  0.00     0.003 A  
HETATM   14  C   UNL     1      -6.868  11.484  69.299  1.00  0.00    -0.114 A  
BRANCH  11  15
HETATM   15  N   UNL     1      -9.088   8.514  69.027  1.00  0.00    -0.146 NA 
HETATM   16  C   UNL     1     -10.419   8.144  68.887  1.00  0.00    -0.185 A  
HETATM   17  C   UNL     1     -10.493   6.785  69.050  1.00  0.00    -0.229 A  
HETATM   18  N   UNL     1      -8.298   7.405  69.243  1.00  0.00    -0.131 NA 
HETATM   19  C   UNL     1      -9.172   6.391  69.272  1.00  0.00    -0.135 A  
BRANCH  19  20
HETATM   20  O   UNL     1      -8.815   5.106  69.491  1.00  0.00    -0.097 OA 
BRANCH  20  21
HETATM   21  C   UNL     1      -7.708   4.892  70.364  1.00  0.00    -0.062 C  
BRANCH  21  22
HETATM   22  C   UNL     1      -7.495   3.367  70.575  1.00  0.00    -0.040 C  
HETATM   23  F   UNL     1      -5.694   2.223  69.475  1.00  0.00    -0.018 F  
HETATM   24  F   UNL     1      -5.245   4.171  70.319  1.00  0.00    -0.003 F  
HETATM   25  C   UNL     1      -8.256   2.568  69.497  1.00  0.00    -0.066 C  
HETATM   26  C   UNL     1      -8.055   2.935  71.947  1.00  0.00    -0.058 C  
HETATM   27  C   UNL     1      -5.989   3.057  70.499  1.00  0.00    -0.018 C  
HETATM   28  F   UNL     1      -5.534   2.463  71.626  1.00  0.00    -0.006 F  
ENDBRANCH  21  22
ENDBRANCH  20  21
ENDBRANCH  19  20
ENDBRANCH  11  15
BRANCH  13  29
HETATM   29  C   UNL     1      -6.956  13.862  68.727  1.00  0.00    -0.108 C  
HETATM   30  H   UNL     1      -8.680  14.960  69.131  1.00  0.00     0.000 HD 
HETATM   31  N   UNL     1      -7.697  15.051  68.879  1.00  0.00    -0.141 N  
HETATM   32  O   UNL     1      -5.733  13.882  68.688  1.00  0.00    -0.078 OA 
BRANCH  31  33
HETATM   33  S   UNL     1      -7.087  16.623  68.678  1.00  0.00    -0.195 S  
HETATM   34  O   UNL     1      -6.395  16.981  69.890  1.00  0.00    -0.210 OA 
HETATM   35  O   UNL     1      -6.365  16.566  67.421  1.00  0.00    -0.137 OA 
BRANCH  33  36
HETATM   36  C   UNL     1      -8.240  17.907  68.440  1.00  0.00    -0.300 A  
HETATM   37  C   UNL     1      -8.073  19.029  67.639  1.00  0.00    -0.269 A  
HETATM   38  N   UNL     1      -9.256  19.705  67.652  1.00  0.00    -0.323 NA 
HETATM   39  N   UNL     1     -10.201  19.105  68.381  1.00  0.00    -0.399 NA 
HETATM   40  C   UNL     1      -9.624  20.917  66.959  1.00  0.00    -0.149 C  
HETATM   41  C   UNL     1      -9.628  17.973  68.815  1.00  0.00    -0.301 A  
HETATM   42  C   UNL     1     -10.557  17.028  69.499  1.00  0.00    -0.168 C  
ENDBRANCH  33  36
ENDBRANCH  31  33
ENDBRANCH  13  29
ENDBRANCH   4   9
TORSDOF 8
ENDMDL
MODEL      149
REMARK 921   NORMALIZED FREE ENERGY PREDICTED BY IDOCK:   -3.98 KCAL/MOL
REMARK 922        TOTAL FREE ENERGY PREDICTED BY IDOCK:   -7.48 KCAL/MOL
REMARK 923 INTER-LIGAND FREE ENERGY PREDICTED BY IDOCK:   -7.40 KCAL/MOL
REMARK 924 INTRA-LIGAND FREE ENERGY PREDICTED BY IDOCK:   -0.08 KCAL/MOL
REMARK 927      BINDING AFFINITY PREDICTED BY RF-SCORE:    0.00 PKD
ROOT
HETATM    1  C   UNL     1     -11.686  15.703  68.587  1.00  0.00    -0.364 C  
HETATM    2  C   UNL     1     -12.239  14.346  68.149  1.00  0.00    -0.142 C  
HETATM    3  C   UNL     1     -11.439  13.196  68.751  1.00  0.00    -0.307 C  
HETATM    4  N   UNL     1     -10.417  12.861  67.753  1.00  0.00    -0.217 NA 
HETATM    5  C   UNL     1     -11.449  11.837  65.781  1.00  0.00    -0.258 C  
HETATM    6  C   UNL     1     -10.965  13.170  66.382  1.00  0.00    -0.288 C  
HETATM    7  C   UNL     1     -12.158  14.133  66.640  1.00  0.00    -0.480 C  
HETATM    8  C   UNL     1     -10.085  13.829  65.315  1.00  0.00    -0.312 C  
ENDROOT
BRANCH   4   9
HETATM    9  C   UNL     1      -9.079  12.824  68.106  1.00  0.00    -0.203 A  
HETATM   10  N   UNL     1      -8.659  11.623  68.622  1.00  0.00    -0.127 NA 
HETATM   11  C   UNL     1      -7.365  11.370  68.973  1.00  0.00    -0.108 A  
HETATM   12  C   UNL     1      -6.399  12.337  68.822  1.00  0.00    -0.077 A  
HETATM   13  C   UNL     1      -8.138  13.867  67.945  1.00  0.00    -0.158 A  
HETATM   14  C   UNL     1      -6.793  13.576  68.300  1.00  0.00    -0.108 A  
BRANCH  11  15
HETATM   15  N   UNL     1      -7.017  10.062  69.491  1.00  0.00    -0.066 NA 
HETATM   16  C   UNL     1      -5.999   9.794  70.396  1.00  0.00    -0.069 A  
HETATM   17  C   UNL     1      -5.981   8.441  70.614  1.00  0.00    -0.032 A  
HETATM   18  N   UNL     1      -7.679   8.901  69.150  1.00  0.00    -0.090 NA 
HETATM   19  C   UNL     1      -7.020   7.949  69.823  1.00  0.00    -0.050 A  
BRANCH  19  20
HETATM   20  O   UNL     1      -7.330   6.636  69.750  1.00  0.00    -0.081 OA 
BRANCH  20  21
HETATM   21  C   UNL     1      -8.540   6.303  69.071  1.00  0.00    -0.123 C  
BRANCH  21  22
HETATM   22  C   UNL     1      -8.283   5.120  68.096  1.00  0.00    -0.097 C  
HETATM   23  F   UNL     1      -8.341   5.464  65.721  1.00  0.00    -0.110 F  
HETATM   24  F   UNL     1      -7.343   6.984  66.906  1.00  0.00    -0.071 F  
HETATM   25  C   UNL     1      -9.615   4.438  67.722  1.00  0.00    -0.211 C  
HETATM   26  C   UNL     1      -7.396   4.053  68.772  1.00  0.00    -0.055 C  
HETATM   27  C   UNL     1      -7.591   5.657  66.830  1.00  0.00    -0.096 C  
HETATM   28  F   UNL     1      -6.402   5.052  66.605  1.00  0.00    -0.034 F  
ENDBRANCH  21  22
ENDBRANCH  20  21
ENDBRANCH  19  20
ENDBRANCH  11  15
BRANCH  13  29
HETATM   29  C   UNL     1      -8.308  15.283  67.417  1.00  0.00    -0.181 C  
HETATM   30  H   UNL     1      -8.530  16.143  69.302  1.00  0.00     0.000 HD 
HETATM   31  N   UNL     1      -8.590  16.341  68.303  1.00  0.00    -0.190 N  
HETATM   32  O   UNL     1      -8.100  15.494  66.229  1.00  0.00    -0.078 OA 
BRANCH  31  33
HETATM   33  S   UNL     1      -9.021  17.920  67.847  1.00  0.00    -0.269 S  
HETATM   34  O   UNL     1      -9.900  17.821  66.710  1.00  0.00    -0.291 OA 
HETATM   35  O   UNL     1      -9.491  18.529  69.076  1.00  0.00    -0.271 OA 
BRANCH  33  36
HETATM   36  C   UNL     1      -7.742  18.980  67.318  1.00  0.00    -0.237 A  
HETATM   37  C   UNL     1      -7.511  19.408  66.018  1.00  0.00    -0.289 A  
HETATM   38  N   UNL     1      -6.491  20.309  66.073  1.00  0.00    -0.205 NA 
HETATM   39  N   UNL     1      -6.043  20.527  67.314  1.00  0.00    -0.196 NA 
HETATM   40  C   UNL     1      -5.886  21.073  65.008  1.00  0.00    -0.231 C  
HETATM   41  C   UNL     1      -6.836  19.781  68.097  1.00  0.00    -0.284 A  
HETATM   42  C   UNL     1      -6.655  20.007  69.559  1.00  0.00    -0.343 C  
ENDBRANCH  33  36
ENDBRANCH  31  33
ENDBRANCH  13  29
ENDBRANCH   4   9
TORSDOF 8
ENDMDL
MODEL      150
REMARK 921   NORMALIZED FREE ENERGY PREDICTED BY IDOCK:   -3.95 KCAL/MOL
REMARK 922        TOTAL FREE ENERGY PREDICTED BY IDOCK:   -7.43 KCAL/MOL
REMARK 923 INTER-LIGAND FREE ENERGY PREDICTED BY IDOCK:   -6.52 KCAL/MOL
REMARK 924 INTRA-LIGAND FREE ENERGY PREDICTED BY IDOCK:   -0.91 KCAL/MOL
REMARK 927      BINDING AFFINITY PREDICTED BY RF-SCORE:    0.00 PKD
ROOT
HETATM    1  C   UNL     1     -12.344  12.061  68.853  1.00  0.00     0.186 C  
HETATM    2  C   UNL     1     -11.203  11.796  69.836  1.00  0.00    -0.093 C  
HETATM    3  C   UNL     1      -9.843  11.894  69.154  1.00  0.00     0.272 C  
HETATM    4  N   UNL     1      -9.513  10.528  68.734  1.00  0.00    -0.172 NA 
HETATM    5  C   UNL     1      -9.046   9.122  70.686  1.00  0.00    -0.307 C  
HETATM    6  C   UNL     1     -10.148   9.561  69.703  1.00  0.00    -0.212 C  
HETATM    7  C   UNL     1     -11.245  10.389  70.427  1.00  0.00    -0.399 C  
HETATM    8  C   UNL     1     -10.817   8.276  69.205  1.00  0.00    -0.063 C  
ENDROOT
BRANCH   4   9
HETATM    9  C   UNL     1      -9.180  10.260  67.417  1.00  0.00    -0.141 A  
HETATM   10  N   UNL     1      -8.785   8.967  67.180  1.00  0.00    -0.119 NA 
HETATM   11  C   UNL     1      -8.475   8.494  65.940  1.00  0.00    -0.152 A  
HETATM   12  C   UNL     1      -8.544   9.317  64.841  1.00  0.00    -0.204 A  
HETATM   13  C   UNL     1      -9.252  11.164  66.332  1.00  0.00    -0.199 A  
HETATM   14  C   UNL     1      -8.941  10.645  65.046  1.00  0.00    -0.218 A  
BRANCH  11  15
HETATM   15  N   UNL     1      -8.087   7.105  65.790  1.00  0.00    -0.122 NA 
HETATM   16  C   UNL     1      -6.865   6.652  65.310  1.00  0.00    -0.054 A  
HETATM   17  C   UNL     1      -6.902   5.282  65.304  1.00  0.00    -0.060 A  
HETATM   18  N   UNL     1      -8.898   6.042  66.127  1.00  0.00    -0.145 NA 
HETATM   19  C   UNL     1      -8.167   4.968  65.804  1.00  0.00    -0.115 A  
BRANCH  19  20
HETATM   20  O   UNL     1      -8.604   3.698  65.949  1.00  0.00    -0.109 OA 
BRANCH  20  21
HETATM   21  C   UNL     1      -9.173   3.359  67.213  1.00  0.00    -0.193 C  
BRANCH  21  22
HETATM   22  C   UNL     1      -8.114   2.629  68.084  1.00  0.00    -0.067 C  
HETATM   23  F   UNL     1      -6.142   3.779  68.828  1.00  0.00    -0.024 F  
HETATM   24  F   UNL     1      -8.012   4.877  68.926  1.00  0.00    -0.074 F  
HETATM   25  C   UNL     1      -7.033   1.991  67.187  1.00  0.00    -0.040 C  
HETATM   26  C   UNL     1      -8.777   1.488  68.885  1.00  0.00    -0.102 C  
HETATM   27  C   UNL     1      -7.471   3.644  69.046  1.00  0.00    -0.053 C  
HETATM   28  F   UNL     1      -7.616   3.280  70.342  1.00  0.00    -0.043 F  
ENDBRANCH  21  22
ENDBRANCH  20  21
ENDBRANCH  19  20
ENDBRANCH  11  15
BRANCH  13  29
HETATM   29  C   UNL     1      -9.642  12.634  66.290  1.00  0.00    -0.244 C  
HETATM   30  H   UNL     1     -11.680  12.263  66.071  1.00  0.00     0.000 HD 
HETATM   31  N   UNL     1     -10.981  13.005  66.061  1.00  0.00    -0.274 N  
HETATM   32  O   UNL     1      -8.791  13.473  66.555  1.00  0.00    -0.124 OA 
BRANCH  31  33
HETATM   33  S   UNL     1     -11.529  14.586  65.770  1.00  0.00    -0.337 S  
HETATM   34  O   UNL     1     -11.232  14.905  64.396  1.00  0.00    -0.281 OA 
HETATM   35  O   UNL     1     -12.903  14.577  66.231  1.00  0.00    -0.086 OA 
BRANCH  33  36
HETATM   36  C   UNL     1     -10.789  15.873  66.684  1.00  0.00    -0.213 A  
HETATM   37  C   UNL     1     -10.039  16.923  66.172  1.00  0.00    -0.333 A  
HETATM   38  N   UNL     1      -9.757  17.753  67.216  1.00  0.00    -0.277 NA 
HETATM   39  N   UNL     1     -10.282  17.344  68.375  1.00  0.00    -0.339 NA 
HETATM   40  C   UNL     1      -9.033  19.002  67.220  1.00  0.00    -0.284 C  
HETATM   41  C   UNL     1     -10.974  16.238  68.064  1.00  0.00    -0.328 A  
HETATM   42  C   UNL     1     -11.817  15.701  69.169  1.00  0.00    -0.378 C  
ENDBRANCH  33  36
ENDBRANCH  31  33
ENDBRANCH  13  29
ENDBRANCH   4   9
TORSDOF 8
ENDMDL
MODEL      151
REMARK 921   NORMALIZED FREE ENERGY PREDICTED BY IDOCK:   -3.91 KCAL/MOL
REMARK 922        TOTAL FREE ENERGY PREDICTED BY IDOCK:   -7.37 KCAL/MOL
REMARK 923 INTER-LIGAND FREE ENERGY PREDICTED BY IDOCK:   -7.33 KCAL/MOL
REMARK 924 INTRA-LIGAND FREE ENERGY PREDICTED BY IDOCK:   -0.04 KCAL/MOL
REMARK 927      BINDING AFFINITY PREDICTED BY RF-SCORE:    0.00 PKD
ROOT
HETATM    1  C   UNL     1     -10.893  10.857  64.455  1.00  0.00    -0.137 C  
HETATM    2  C   UNL     1     -11.194  12.355  64.487  1.00  0.00    -0.371 C  
HETATM    3  C   UNL     1      -9.962  13.165  64.877  1.00  0.00    -0.130 C  
HETATM    4  N   UNL     1     -10.046  13.334  66.332  1.00  0.00    -0.283 NA 
HETATM    5  C   UNL     1     -11.892  14.835  66.914  1.00  0.00    -0.279 C  
HETATM    6  C   UNL     1     -11.500  13.356  66.730  1.00  0.00    -0.343 C  
HETATM    7  C   UNL     1     -12.251  12.725  65.525  1.00  0.00    -0.519 C  
HETATM    8  C   UNL     1     -11.982  12.624  67.987  1.00  0.00    -0.300 C  
ENDROOT
BRANCH   4   9
HETATM    9  C   UNL     1      -8.985  12.966  67.142  1.00  0.00    -0.219 A  
HETATM   10  N   UNL     1      -8.212  14.013  67.580  1.00  0.00    -0.173 NA 
HETATM   11  C   UNL     1      -7.159  13.862  68.433  1.00  0.00    -0.104 A  
HETATM   12  C   UNL     1      -6.815  12.617  68.903  1.00  0.00    -0.097 A  
HETATM   13  C   UNL     1      -8.671  11.656  67.573  1.00  0.00    -0.156 A  
HETATM   14  C   UNL     1      -7.581  11.524  68.475  1.00  0.00    -0.130 A  
BRANCH  11  15
HETATM   15  N   UNL     1      -6.416  15.034  68.852  1.00  0.00    -0.089 NA 
HETATM   16  C   UNL     1      -5.670  15.145  70.018  1.00  0.00    -0.129 A  
HETATM   17  C   UNL     1      -5.144  16.409  70.057  1.00  0.00    -0.153 A  
HETATM   18  N   UNL     1      -6.349  16.201  68.122  1.00  0.00    -0.116 NA 
HETATM   19  C   UNL     1      -5.598  17.009  68.881  1.00  0.00    -0.147 A  
BRANCH  19  20
HETATM   20  O   UNL     1      -5.301  18.284  68.544  1.00  0.00    -0.162 OA 
BRANCH  20  21
HETATM   21  C   UNL     1      -5.848  18.763  67.317  1.00  0.00    -0.159 C  
BRANCH  21  22
HETATM   22  C   UNL     1      -6.901  19.868  67.610  1.00  0.00    -0.278 C  
HETATM   23  F   UNL     1      -8.823  20.128  66.195  1.00  0.00    -0.358 F  
HETATM   24  F   UNL     1      -8.250  18.097  66.705  1.00  0.00    -0.234 F  
HETATM   25  C   UNL     1      -6.545  21.160  66.847  1.00  0.00    -0.386 C  
HETATM   26  C   UNL     1      -6.910  20.212  69.115  1.00  0.00    -0.234 C  
HETATM   27  C   UNL     1      -8.289  19.364  67.176  1.00  0.00    -0.287 C  
HETATM   28  F   UNL     1      -9.176  19.371  68.199  1.00  0.00    -0.335 F  
ENDBRANCH  21  22
ENDBRANCH  20  21
ENDBRANCH  19  20
ENDBRANCH  11  15
BRANCH  13  29
HETATM   29  C   UNL     1      -9.330  10.323  67.254  1.00  0.00    -0.149 C  
HETATM   30  H   UNL     1      -7.630   9.190  67.664  1.00  0.00     0.000 HD 
HETATM   31  N   UNL     1      -8.576   9.134  67.286  1.00  0.00    -0.118 N  
HETATM   32  O   UNL     1     -10.540  10.298  67.068  1.00  0.00    -0.248 OA 
BRANCH  31  33
HETATM   33  S   UNL     1      -9.109   7.615  66.746  1.00  0.00    -0.159 S  
HETATM   34  O   UNL     1      -9.199   6.750  67.895  1.00  0.00    -0.116 OA 
HETATM   35  O   UNL     1     -10.296   7.911  65.967  1.00  0.00     0.319 OA 
BRANCH  33  36
HETATM   36  C   UNL     1      -8.083   6.753  65.631  1.00  0.00    -0.122 A  
HETATM   37  C   UNL     1      -7.561   5.479  65.807  1.00  0.00    -0.083 A  
HETATM   38  N   UNL     1      -6.917   5.151  64.652  1.00  0.00    -0.049 NA 
HETATM   39  N   UNL     1      -6.991   6.103  63.716  1.00  0.00    -0.044 NA 
HETATM   40  C   UNL     1      -6.233   3.930  64.301  1.00  0.00    -0.023 C  
HETATM   41  C   UNL     1      -7.755   7.059  64.264  1.00  0.00    -0.117 A  
HETATM   42  C   UNL     1      -8.147   8.153  63.330  1.00  0.00    -0.116 C  
ENDBRANCH  33  36
ENDBRANCH  31  33
ENDBRANCH  13  29
ENDBRANCH   4   9
TORSDOF 8
ENDMDL
MODEL      152
REMARK 921   NORMALIZED FREE ENERGY PREDICTED BY IDOCK:   -3.91 KCAL/MOL
REMARK 922        TOTAL FREE ENERGY PREDICTED BY IDOCK:   -7.36 KCAL/MOL
REMARK 923 INTER-LIGAND FREE ENERGY PREDICTED BY IDOCK:   -6.19 KCAL/MOL
REMARK 924 INTRA-LIGAND FREE ENERGY PREDICTED BY IDOCK:   -1.17 KCAL/MOL
REMARK 927      BINDING AFFINITY PREDICTED BY RF-SCORE:    0.00 PKD
ROOT
HETATM    1  C   UNL     1      -7.183  12.213  68.238  1.00  0.00    -0.095 C  
HETATM    2  C   UNL     1      -7.103  10.972  67.348  1.00  0.00    -0.095 C  
HETATM    3  C   UNL     1      -8.449  10.259  67.260  1.00  0.00    -0.125 C  
HETATM    4  N   UNL     1      -8.425   9.241  68.315  1.00  0.00    -0.120 NA 
HETATM    5  C   UNL     1      -6.829   7.468  67.759  1.00  0.00    -0.071 C  
HETATM    6  C   UNL     1      -6.999   8.795  68.521  1.00  0.00    -0.065 C  
HETATM    7  C   UNL     1      -6.136   9.920  67.884  1.00  0.00    -0.050 C  
HETATM    8  C   UNL     1      -6.446   8.556  69.930  1.00  0.00    -0.035 C  
ENDROOT
BRANCH   4   9
HETATM    9  C   UNL     1      -9.440   9.183  69.255  1.00  0.00    -0.158 A  
HETATM   10  N   UNL     1     -10.073  10.379  69.485  1.00  0.00    -0.233 NA 
HETATM   11  C   UNL     1     -11.136  10.515  70.330  1.00  0.00    -0.285 A  
HETATM   12  C   UNL     1     -11.631   9.426  71.007  1.00  0.00    -0.400 A  
HETATM   13  C   UNL     1      -9.889   8.028  69.937  1.00  0.00    -0.186 A  
HETATM   14  C   UNL     1     -11.008   8.188  70.798  1.00  0.00    -0.261 A  
BRANCH  11  15
HETATM   15  N   UNL     1     -11.748  11.819  70.491  1.00  0.00    -0.187 NA 
HETATM   16  C   UNL     1     -12.584  12.198  71.533  1.00  0.00    -0.161 A  
HETATM   17  C   UNL     1     -12.967  13.494  71.309  1.00  0.00    -0.384 A  
HETATM   18  N   UNL     1     -11.561  12.867  69.615  1.00  0.00    -0.274 NA 
HETATM   19  C   UNL     1     -12.320  13.846  70.123  1.00  0.00    -0.334 A  
BRANCH  19  20
HETATM   20  O   UNL     1     -12.449  15.063  69.549  1.00  0.00    -0.203 OA 
BRANCH  20  21
HETATM   21  C   UNL     1     -11.242  15.777  69.291  1.00  0.00    -0.324 C  
BRANCH  21  22
HETATM   22  C   UNL     1     -10.808  15.555  67.816  1.00  0.00    -0.309 C  
HETATM   23  F   UNL     1      -8.499  15.191  67.265  1.00  0.00    -0.157 F  
HETATM   24  F   UNL     1      -9.258  14.170  69.023  1.00  0.00    -0.159 F  
HETATM   25  C   UNL     1     -10.435  16.901  67.160  1.00  0.00    -0.296 C  
HETATM   26  C   UNL     1     -11.973  14.955  67.001  1.00  0.00    -0.126 C  
HETATM   27  C   UNL     1      -9.599  14.601  67.788  1.00  0.00    -0.213 C  
HETATM   28  F   UNL     1      -9.839  13.497  67.043  1.00  0.00    -0.229 F  
ENDBRANCH  21  22
ENDBRANCH  20  21
ENDBRANCH  19  20
ENDBRANCH  11  15
BRANCH  13  29
HETATM   29  C   UNL     1      -9.388   6.593  69.892  1.00  0.00    -0.153 C  
HETATM   30  H   UNL     1      -9.996   6.263  67.926  1.00  0.00     0.000 HD 
HETATM   31  N   UNL     1      -9.619   5.798  68.751  1.00  0.00    -0.123 N  
HETATM   32  O   UNL     1      -8.703   6.182  70.818  1.00  0.00    -0.133 OA 
BRANCH  31  33
HETATM   33  S   UNL     1      -9.320   4.130  68.637  1.00  0.00    -0.160 S  
HETATM   34  O   UNL     1      -9.448   3.572  69.959  1.00  0.00    -0.170 OA 
HETATM   35  O   UNL     1     -10.198   3.683  67.574  1.00  0.00     0.323 OA 
BRANCH  33  36
HETATM   36  C   UNL     1      -7.735   3.633  68.107  1.00  0.00    -0.065 A  
HETATM   37  C   UNL     1      -7.388   3.209  66.831  1.00  0.00    -0.070 A  
HETATM   38  N   UNL     1      -6.037   3.032  66.827  1.00  0.00    -0.024 NA 
HETATM   39  N   UNL     1      -5.460   3.328  67.996  1.00  0.00    -0.016 NA 
HETATM   40  C   UNL     1      -5.170   2.631  65.744  1.00  0.00    -0.008 C  
HETATM   41  C   UNL     1      -6.465   3.763  68.771  1.00  0.00    -0.036 A  
HETATM   42  C   UNL     1      -6.039   4.340  70.077  1.00  0.00    -0.019 C  
ENDBRANCH  33  36
ENDBRANCH  31  33
ENDBRANCH  13  29
ENDBRANCH   4   9
TORSDOF 8
ENDMDL
MODEL      153
REMARK 921   NORMALIZED FREE ENERGY PREDICTED BY IDOCK:   -3.89 KCAL/MOL
REMARK 922        TOTAL FREE ENERGY PREDICTED BY IDOCK:   -7.33 KCAL/MOL
REMARK 923 INTER-LIGAND FREE ENERGY PREDICTED BY IDOCK:   -6.75 KCAL/MOL
REMARK 924 INTRA-LIGAND FREE ENERGY PREDICTED BY IDOCK:   -0.58 KCAL/MOL
REMARK 927      BINDING AFFINITY PREDICTED BY RF-SCORE:    0.00 PKD
ROOT
HETATM    1  C   UNL     1     -14.015   9.147  71.015  1.00  0.00     0.023 C  
HETATM    2  C   UNL     1     -12.877   9.651  71.902  1.00  0.00    -0.515 C  
HETATM    3  C   UNL     1     -11.924  10.556  71.129  1.00  0.00    -0.336 C  
HETATM    4  N   UNL     1     -10.860   9.676  70.633  1.00  0.00    -0.295 NA 
HETATM    5  C   UNL     1      -9.473   8.879  72.488  1.00  0.00     0.136 C  
HETATM    6  C   UNL     1     -10.687   8.536  71.604  1.00  0.00    -0.281 C  
HETATM    7  C   UNL     1     -11.999   8.523  72.438  1.00  0.00    -0.434 C  
HETATM    8  C   UNL     1     -10.464   7.105  71.105  1.00  0.00    -0.225 C  
ENDROOT
BRANCH   4   9
HETATM    9  C   UNL     1     -10.542   9.654  69.285  1.00  0.00    -0.219 A  
HETATM   10  N   UNL     1     -10.086   8.442  68.827  1.00  0.00    -0.192 NA 
HETATM   11  C   UNL     1      -9.777   8.203  67.521  1.00  0.00    -0.161 A  
HETATM   12  C   UNL     1      -9.911   9.195  66.579  1.00  0.00    -0.359 A  
HETATM   13  C   UNL     1     -10.682  10.723  68.370  1.00  0.00    -0.255 A  
HETATM   14  C   UNL     1     -10.372  10.446  67.011  1.00  0.00    -0.295 A  
BRANCH  11  15
HETATM   15  N   UNL     1      -9.322   6.882  67.133  1.00  0.00    -0.136 NA 
HETATM   16  C   UNL     1     -10.137   5.825  66.752  1.00  0.00    -0.196 A  
HETATM   17  C   UNL     1      -9.328   4.751  66.487  1.00  0.00    -0.145 A  
HETATM   18  N   UNL     1      -7.995   6.513  67.084  1.00  0.00    -0.111 NA 
HETATM   19  C   UNL     1      -8.035   5.227  66.713  1.00  0.00    -0.104 A  
BRANCH  19  20
HETATM   20  O   UNL     1      -6.933   4.458  66.568  1.00  0.00    -0.057 OA 
BRANCH  20  21
HETATM   21  C   UNL     1      -6.935   3.205  67.250  1.00  0.00    -0.053 C  
BRANCH  21  22
HETATM   22  C   UNL     1      -6.331   3.383  68.670  1.00  0.00    -0.032 C  
HETATM   23  F   UNL     1      -7.517   4.612  70.357  1.00  0.00    -0.047 F  
HETATM   24  F   UNL     1      -8.687   3.262  69.124  1.00  0.00    -0.087 F  
HETATM   25  C   UNL     1      -5.502   4.682  68.740  1.00  0.00    -0.012 C  
HETATM   26  C   UNL     1      -5.377   2.213  68.995  1.00  0.00    -0.013 C  
HETATM   27  C   UNL     1      -7.476   3.430  69.699  1.00  0.00    -0.045 C  
HETATM   28  F   UNL     1      -7.355   2.466  70.641  1.00  0.00    -0.033 F  
ENDBRANCH  21  22
ENDBRANCH  20  21
ENDBRANCH  19  20
ENDBRANCH  11  15
BRANCH  13  29
HETATM   29  C   UNL     1     -11.148  12.155  68.583  1.00  0.00    -0.251 C  
HETATM   30  H   UNL     1      -9.310  12.827  69.299  1.00  0.00     0.000 HD 
HETATM   31  N   UNL     1     -10.283  13.102  69.166  1.00  0.00     0.119 N  
HETATM   32  O   UNL     1     -12.244  12.485  68.150  1.00  0.00    -0.270 OA 
BRANCH  31  33
HETATM   33  S   UNL     1     -10.725  14.664  69.665  1.00  0.00    -0.086 S  
HETATM   34  O   UNL     1      -9.513  15.411  69.887  1.00  0.00    -0.245 OA 
HETATM   35  O   UNL     1     -11.673  15.103  68.660  1.00  0.00    -0.335 OA 
BRANCH  33  36
HETATM   36  C   UNL     1     -11.606  14.808  71.162  1.00  0.00    -0.270 A  
HETATM   37  C   UNL     1     -11.240  15.568  72.265  1.00  0.00    -0.147 A  
HETATM   38  N   UNL     1     -12.264  15.486  73.160  1.00  0.00    -0.425 NA 
HETATM   39  N   UNL     1     -13.290  14.748  72.725  1.00  0.00    -0.462 NA 
HETATM   40  C   UNL     1     -12.401  16.115  74.452  1.00  0.00    -0.528 C  
HETATM   41  C   UNL     1     -12.943  14.382  71.483  1.00  0.00    -0.336 A  
HETATM   42  C   UNL     1     -14.022  13.704  70.710  1.00  0.00     0.960 C  
ENDBRANCH  33  36
ENDBRANCH  31  33
ENDBRANCH  13  29
ENDBRANCH   4   9
TORSDOF 8
ENDMDL
MODEL      154
REMARK 921   NORMALIZED FREE ENERGY PREDICTED BY IDOCK:   -3.86 KCAL/MOL
REMARK 922        TOTAL FREE ENERGY PREDICTED BY IDOCK:   -7.30 KCAL/MOL
REMARK 923 INTER-LIGAND FREE ENERGY PREDICTED BY IDOCK:   -7.52 KCAL/MOL
REMARK 924 INTRA-LIGAND FREE ENERGY PREDICTED BY IDOCK:    0.22 KCAL/MOL
REMARK 927      BINDING AFFINITY PREDICTED BY RF-SCORE:    0.00 PKD
ROOT
HETATM    1  C   UNL     1      -9.964   7.100  72.465  1.00  0.00    -0.196 C  
HETATM    2  C   UNL     1      -9.323   8.487  72.418  1.00  0.00    -0.349 C  
HETATM    3  C   UNL     1      -9.881   9.322  71.270  1.00  0.00    -0.248 C  
HETATM    4  N   UNL     1      -8.972   9.098  70.141  1.00  0.00    -0.180 NA 
HETATM    5  C   UNL     1      -6.799  10.144  70.571  1.00  0.00    -0.084 C  
HETATM    6  C   UNL     1      -7.591   8.827  70.682  1.00  0.00    -0.090 C  
HETATM    7  C   UNL     1      -7.817   8.435  72.169  1.00  0.00    -0.167 C  
HETATM    8  C   UNL     1      -6.705   7.739  70.067  1.00  0.00    -0.045 C  
ENDROOT
BRANCH   4   9
HETATM    9  C   UNL     1      -9.465   8.675  68.918  1.00  0.00    -0.146 A  
HETATM   10  N   UNL     1      -9.336   7.328  68.686  1.00  0.00    -0.139 NA 
HETATM   11  C   UNL     1      -9.812   6.711  67.567  1.00  0.00    -0.129 A  
HETATM   12  C   UNL     1     -10.460   7.434  66.594  1.00  0.00    -0.201 A  
HETATM   13  C   UNL     1     -10.103   9.479  67.945  1.00  0.00    -0.234 A  
HETATM   14  C   UNL     1     -10.608   8.813  66.796  1.00  0.00    -0.220 A  
BRANCH  11  15
HETATM   15  N   UNL     1      -9.643   5.278  67.425  1.00  0.00    -0.127 NA 
HETATM   16  C   UNL     1      -9.564   4.364  68.467  1.00  0.00    -0.143 A  
HETATM   17  C   UNL     1      -9.384   3.122  67.919  1.00  0.00    -0.252 A  
HETATM   18  N   UNL     1      -9.553   4.634  66.209  1.00  0.00    -0.165 NA 
HETATM   19  C   UNL     1      -9.378   3.349  66.542  1.00  0.00    -0.155 A  
BRANCH  19  20
HETATM   20  O   UNL     1      -9.213   2.361  65.635  1.00  0.00    -0.123 OA 
BRANCH  20  21
HETATM   21  C   UNL     1      -7.992   1.627  65.706  1.00  0.00    -0.073 C  
BRANCH  21  22
HETATM   22  C   UNL     1      -6.928   2.291  64.788  1.00  0.00    -0.048 C  
HETATM   23  F   UNL     1      -6.722   1.636  62.487  1.00  0.00    -0.011 F  
HETATM   24  F   UNL     1      -8.736   1.870  63.262  1.00  0.00    -0.080 F  
HETATM   25  C   UNL     1      -5.616   1.481  64.818  1.00  0.00    -0.005 C  
HETATM   26  C   UNL     1      -6.601   3.713  65.292  1.00  0.00    -0.040 C  
HETATM   27  C   UNL     1      -7.477   2.355  63.351  1.00  0.00    -0.054 C  
HETATM   28  F   UNL     1      -7.513   3.621  62.875  1.00  0.00    -0.049 F  
ENDBRANCH  21  22
ENDBRANCH  20  21
ENDBRANCH  19  20
ENDBRANCH  11  15
BRANCH  13  29
HETATM   29  C   UNL     1     -10.380  10.974  67.922  1.00  0.00    -0.186 C  
HETATM   30  H   UNL     1     -11.513  10.910  66.175  1.00  0.00     0.000 HD 
HETATM   31  N   UNL     1     -11.084  11.548  66.845  1.00  0.00    -0.296 N  
HETATM   32  O   UNL     1     -10.066  11.644  68.897  1.00  0.00    -0.181 OA 
BRANCH  31  33
HETATM   33  S   UNL     1     -11.276  13.213  66.569  1.00  0.00    -0.321 S  
HETATM   34  O   UNL     1     -10.088  13.685  65.904  1.00  0.00    -0.298 OA 
HETATM   35  O   UNL     1     -12.564  13.318  65.912  1.00  0.00    -0.406 OA 
BRANCH  33  36
HETATM   36  C   UNL     1     -11.433  14.245  67.964  1.00  0.00    -0.314 A  
HETATM   37  C   UNL     1     -12.144  13.963  69.123  1.00  0.00    -0.338 A  
HETATM   38  N   UNL     1     -11.904  14.984  69.993  1.00  0.00    -0.298 NA 
HETATM   39  N   UNL     1     -11.072  15.909  69.507  1.00  0.00    -0.289 NA 
HETATM   40  C   UNL     1     -12.376  15.162  71.345  1.00  0.00    -0.346 C  
HETATM   41  C   UNL     1     -10.716  15.446  68.300  1.00  0.00    -0.260 A  
HETATM   42  C   UNL     1      -9.629  16.218  67.633  1.00  0.00    -0.227 C  
ENDBRANCH  33  36
ENDBRANCH  31  33
ENDBRANCH  13  29
ENDBRANCH   4   9
TORSDOF 8
ENDMDL
MODEL      155
REMARK 921   NORMALIZED FREE ENERGY PREDICTED BY IDOCK:   -3.79 KCAL/MOL
REMARK 922        TOTAL FREE ENERGY PREDICTED BY IDOCK:   -7.20 KCAL/MOL
REMARK 923 INTER-LIGAND FREE ENERGY PREDICTED BY IDOCK:   -6.77 KCAL/MOL
REMARK 924 INTRA-LIGAND FREE ENERGY PREDICTED BY IDOCK:   -0.43 KCAL/MOL
REMARK 927      BINDING AFFINITY PREDICTED BY RF-SCORE:    0.00 PKD
ROOT
HETATM    1  C   UNL     1      -6.090  10.211  70.995  1.00  0.00    -0.003 C  
HETATM    2  C   UNL     1      -5.791  11.305  69.971  1.00  0.00    -0.118 C  
HETATM    3  C   UNL     1      -7.067  11.991  69.496  1.00  0.00     0.165 C  
HETATM    4  N   UNL     1      -7.478  11.269  68.288  1.00  0.00    -0.093 NA 
HETATM    5  C   UNL     1      -5.910  11.704  66.456  1.00  0.00    -0.045 C  
HETATM    6  C   UNL     1      -6.244  10.734  67.605  1.00  0.00    -0.052 C  
HETATM    7  C   UNL     1      -5.141  10.764  68.699  1.00  0.00    -0.041 C  
HETATM    8  C   UNL     1      -6.229   9.327  66.998  1.00  0.00    -0.061 C  
ENDROOT
BRANCH   4   9
HETATM    9  C   UNL     1      -8.756  10.748  68.183  1.00  0.00    -0.130 A  
HETATM   10  N   UNL     1      -8.814   9.377  68.158  1.00  0.00    -0.125 NA 
HETATM   11  C   UNL     1      -9.983   8.676  68.118  1.00  0.00    -0.178 A  
HETATM   12  C   UNL     1     -11.190   9.334  68.099  1.00  0.00     0.218 A  
HETATM   13  C   UNL     1      -9.963  11.485  68.144  1.00  0.00    -0.197 A  
HETATM   14  C   UNL     1     -11.170  10.735  68.121  1.00  0.00    -0.365 A  
BRANCH  11  15
HETATM   15  N   UNL     1      -9.938   7.227  68.115  1.00  0.00    -0.153 NA 
HETATM   16  C   UNL     1     -10.242   6.410  67.033  1.00  0.00    -0.205 A  
HETATM   17  C   UNL     1     -10.100   5.110  67.441  1.00  0.00    -0.222 A  
HETATM   18  N   UNL     1      -9.569   6.469  69.205  1.00  0.00    -0.139 NA 
HETATM   19  C   UNL     1      -9.696   5.207  68.774  1.00  0.00    -0.154 A  
BRANCH  19  20
HETATM   20  O   UNL     1      -9.455   4.127  69.550  1.00  0.00    -0.153 OA 
BRANCH  20  21
HETATM   21  C   UNL     1      -9.958   4.176  70.884  1.00  0.00    -0.136 C  
BRANCH  21  22
HETATM   22  C   UNL     1      -8.816   3.848  71.885  1.00  0.00    -0.137 C  
HETATM   23  F   UNL     1      -9.248   2.513  73.834  1.00  0.00    -0.078 F  
HETATM   24  F   UNL     1     -10.171   1.865  71.980  1.00  0.00    -0.209 F  
HETATM   25  C   UNL     1      -8.761   4.911  73.001  1.00  0.00    -0.113 C  
HETATM   26  C   UNL     1      -7.451   3.868  71.164  1.00  0.00    -0.044 C  
HETATM   27  C   UNL     1      -9.069   2.456  72.494  1.00  0.00    -0.078 C  
HETATM   28  F   UNL     1      -8.036   1.609  72.276  1.00  0.00    -0.041 F  
ENDBRANCH  21  22
ENDBRANCH  20  21
ENDBRANCH  19  20
ENDBRANCH  11  15
BRANCH  13  29
HETATM   29  C   UNL     1     -10.209  12.986  68.151  1.00  0.00    -0.239 C  
HETATM   30  H   UNL     1      -8.195  13.487  68.330  1.00  0.00     0.000 HD 
HETATM   31  N   UNL     1      -9.136  13.878  68.342  1.00  0.00    -0.194 N  
HETATM   32  O   UNL     1     -11.332  13.397  67.890  1.00  0.00    -0.261 OA 
BRANCH  31  33
HETATM   33  S   UNL     1      -9.280  15.552  68.592  1.00  0.00    -0.214 S  
HETATM   34  O   UNL     1     -10.182  15.752  69.698  1.00  0.00    -0.256 OA 
HETATM   35  O   UNL     1      -7.910  16.018  68.682  1.00  0.00    -0.158 OA 
BRANCH  33  36
HETATM   36  C   UNL     1      -9.961  16.501  67.299  1.00  0.00    -0.264 A  
HETATM   37  C   UNL     1     -10.064  17.885  67.257  1.00  0.00    -0.343 A  
HETATM   38  N   UNL     1     -10.546  18.209  66.024  1.00  0.00    -0.413 NA 
HETATM   39  N   UNL     1     -10.749  17.147  65.239  1.00  0.00    -0.619 NA 
HETATM   40  C   UNL     1     -10.807  19.511  65.458  1.00  0.00    -0.151 C  
HETATM   41  C   UNL     1     -10.334  16.101  65.968  1.00  0.00    -0.358 A  
HETATM   42  C   UNL     1     -10.279  14.809  65.226  1.00  0.00    -0.415 C  
ENDBRANCH  33  36
ENDBRANCH  31  33
ENDBRANCH  13  29
ENDBRANCH   4   9
TORSDOF 8
ENDMDL
MODEL      156
REMARK 921   NORMALIZED FREE ENERGY PREDICTED BY IDOCK:   -3.77 KCAL/MOL
REMARK 922        TOTAL FREE ENERGY PREDICTED BY IDOCK:   -7.17 KCAL/MOL
REMARK 923 INTER-LIGAND FREE ENERGY PREDICTED BY IDOCK:   -7.26 KCAL/MOL
REMARK 924 INTRA-LIGAND FREE ENERGY PREDICTED BY IDOCK:    0.09 KCAL/MOL
REMARK 927      BINDING AFFINITY PREDICTED BY RF-SCORE:    0.00 PKD
ROOT
HETATM    1  C   UNL     1     -10.066   6.968  72.576  1.00  0.00    -0.198 C  
HETATM    2  C   UNL     1      -9.402   8.341  72.477  1.00  0.00    -0.350 C  
HETATM    3  C   UNL     1      -9.833   9.081  71.214  1.00  0.00    -0.306 C  
HETATM    4  N   UNL     1      -8.823   8.755  70.202  1.00  0.00    -0.145 NA 
HETATM    5  C   UNL     1      -6.685   9.818  70.754  1.00  0.00    -0.081 C  
HETATM    6  C   UNL     1      -7.505   8.521  70.897  1.00  0.00    -0.074 C  
HETATM    7  C   UNL     1      -7.880   8.258  72.382  1.00  0.00    -0.177 C  
HETATM    8  C   UNL     1      -6.580   7.379  70.464  1.00  0.00    -0.043 C  
ENDROOT
BRANCH   4   9
HETATM    9  C   UNL     1      -9.201   8.234  68.977  1.00  0.00    -0.147 A  
HETATM   10  N   UNL     1      -9.089   6.869  68.878  1.00  0.00    -0.134 NA 
HETATM   11  C   UNL     1      -9.468   6.164  67.774  1.00  0.00    -0.115 A  
HETATM   12  C   UNL     1      -9.992   6.810  66.679  1.00  0.00    -0.207 A  
HETATM   13  C   UNL     1      -9.713   8.960  67.876  1.00  0.00    -0.190 A  
HETATM   14  C   UNL     1     -10.118   8.204  66.743  1.00  0.00    -0.365 A  
BRANCH  11  15
HETATM   15  N   UNL     1      -9.329   4.721  67.776  1.00  0.00    -0.129 NA 
HETATM   16  C   UNL     1      -9.494   3.893  68.878  1.00  0.00    -0.163 A  
HETATM   17  C   UNL     1      -9.256   2.606  68.472  1.00  0.00    -0.243 A  
HETATM   18  N   UNL     1      -9.021   3.979  66.655  1.00  0.00    -0.122 NA 
HETATM   19  C   UNL     1      -8.965   2.722  67.111  1.00  0.00    -0.159 A  
BRANCH  19  20
HETATM   20  O   UNL     1      -8.660   1.660  66.332  1.00  0.00    -0.096 OA 
BRANCH  20  21
HETATM   21  C   UNL     1      -7.586   1.834  65.410  1.00  0.00    -0.070 C  
BRANCH  21  22
HETATM   22  C   UNL     1      -8.153   2.197  64.010  1.00  0.00    -0.080 C  
HETATM   23  F   UNL     1      -9.281   4.286  63.654  1.00  0.00    -0.129 F  
HETATM   24  F   UNL     1      -7.481   4.340  64.866  1.00  0.00    -0.068 F  
HETATM   25  C   UNL     1      -9.619   1.734  63.891  1.00  0.00    -0.129 C  
HETATM   26  C   UNL     1      -7.353   1.473  62.905  1.00  0.00    -0.036 C  
HETATM   27  C   UNL     1      -8.062   3.722  63.813  1.00  0.00    -0.089 C  
HETATM   28  F   UNL     1      -7.336   4.052  62.719  1.00  0.00    -0.044 F  
ENDBRANCH  21  22
ENDBRANCH  20  21
ENDBRANCH  19  20
ENDBRANCH  11  15
BRANCH  13  29
HETATM   29  C   UNL     1      -9.941  10.453  67.693  1.00  0.00    -0.174 C  
HETATM   30  H   UNL     1     -11.368  10.594  69.204  1.00  0.00     0.000 HD 
HETATM   31  N   UNL     1     -10.928  11.117  68.448  1.00  0.00    -0.208 N  
HETATM   32  O   UNL     1      -9.187  11.075  66.955  1.00  0.00    -0.152 OA 
BRANCH  31  33
HETATM   33  S   UNL     1     -11.446  12.715  68.202  1.00  0.00    -0.336 S  
HETATM   34  O   UNL     1     -12.008  12.793  66.877  1.00  0.00    -0.398 OA 
HETATM   35  O   UNL     1     -12.273  13.003  69.358  1.00  0.00    -0.237 OA 
BRANCH  33  36
HETATM   36  C   UNL     1     -10.233  13.966  68.234  1.00  0.00    -0.247 A  
HETATM   37  C   UNL     1      -9.284  14.220  67.253  1.00  0.00    -0.214 A  
HETATM   38  N   UNL     1      -8.619  15.350  67.628  1.00  0.00    -0.162 NA 
HETATM   39  N   UNL     1      -9.071  15.876  68.770  1.00  0.00    -0.206 NA 
HETATM   40  C   UNL     1      -7.562  16.057  66.946  1.00  0.00    -0.233 C  
HETATM   41  C   UNL     1     -10.100  15.090  69.123  1.00  0.00    -0.245 A  
HETATM   42  C   UNL     1     -10.898  15.592  70.277  1.00  0.00    -0.358 C  
ENDBRANCH  33  36
ENDBRANCH  31  33
ENDBRANCH  13  29
ENDBRANCH   4   9
TORSDOF 8
ENDMDL
MODEL      157
REMARK 921   NORMALIZED FREE ENERGY PREDICTED BY IDOCK:   -3.62 KCAL/MOL
REMARK 922        TOTAL FREE ENERGY PREDICTED BY IDOCK:   -6.95 KCAL/MOL
REMARK 923 INTER-LIGAND FREE ENERGY PREDICTED BY IDOCK:   -6.20 KCAL/MOL
REMARK 924 INTRA-LIGAND FREE ENERGY PREDICTED BY IDOCK:   -0.75 KCAL/MOL
REMARK 927      BINDING AFFINITY PREDICTED BY RF-SCORE:    0.00 PKD
ROOT
HETATM    1  C   UNL     1     -10.527   6.744  70.411  1.00  0.00    -0.236 C  
HETATM    2  C   UNL     1      -9.812   7.434  71.573  1.00  0.00    -0.185 C  
HETATM    3  C   UNL     1      -9.575   8.913  71.284  1.00  0.00    -0.278 C  
HETATM    4  N   UNL     1      -8.235   8.989  70.695  1.00  0.00    -0.163 NA 
HETATM    5  C   UNL     1      -6.529   8.481  72.378  1.00  0.00    -0.090 C  
HETATM    6  C   UNL     1      -7.396   7.871  71.260  1.00  0.00    -0.068 C  
HETATM    7  C   UNL     1      -8.423   6.859  71.840  1.00  0.00    -0.114 C  
HETATM    8  C   UNL     1      -6.443   7.072  70.364  1.00  0.00    -0.043 C  
ENDROOT
BRANCH   4   9
HETATM    9  C   UNL     1      -8.040   9.616  69.476  1.00  0.00    -0.129 A  
HETATM   10  N   UNL     1      -7.520  10.884  69.563  1.00  0.00    -0.117 NA 
HETATM   11  C   UNL     1      -7.203  11.641  68.474  1.00  0.00    -0.094 A  
HETATM   12  C   UNL     1      -7.398  11.152  67.204  1.00  0.00    -0.121 A  
HETATM   13  C   UNL     1      -8.284   9.064  68.197  1.00  0.00    -0.113 A  
HETATM   14  C   UNL     1      -7.929   9.862  67.076  1.00  0.00    -0.109 A  
BRANCH  11  15
HETATM   15  N   UNL     1      -6.640  12.962  68.672  1.00  0.00    -0.084 NA 
HETATM   16  C   UNL     1      -5.353  13.236  69.116  1.00  0.00    -0.073 A  
HETATM   17  C   UNL     1      -5.218  14.597  69.190  1.00  0.00    -0.085 A  
HETATM   18  N   UNL     1      -7.325  14.132  68.425  1.00  0.00    -0.105 NA 
HETATM   19  C   UNL     1      -6.453  15.090  68.765  1.00  0.00    -0.082 A  
BRANCH  19  20
HETATM   20  O   UNL     1      -6.735  16.411  68.702  1.00  0.00    -0.134 OA 
BRANCH  20  21
HETATM   21  C   UNL     1      -8.054  16.800  69.080  1.00  0.00    -0.179 C  
BRANCH  21  22
HETATM   22  C   UNL     1      -8.780  17.438  67.863  1.00  0.00    -0.237 C  
HETATM   23  F   UNL     1     -10.395  16.179  66.609  1.00  0.00    -0.270 F  
HETATM   24  F   UNL     1     -10.469  15.988  68.770  1.00  0.00    -0.214 F  
HETATM   25  C   UNL     1      -8.000  17.149  66.564  1.00  0.00    -0.324 C  
HETATM   26  C   UNL     1      -8.849  18.971  68.025  1.00  0.00    -0.346 C  
HETATM   27  C   UNL     1     -10.202  16.854  67.766  1.00  0.00    -0.308 C  
HETATM   28  F   UNL     1     -11.152  17.815  67.818  1.00  0.00    -0.355 F  
ENDBRANCH  21  22
ENDBRANCH  20  21
ENDBRANCH  19  20
ENDBRANCH  11  15
BRANCH  13  29
HETATM   29  C   UNL     1      -8.852   7.711  67.794  1.00  0.00    -0.125 C  
HETATM   30  H   UNL     1      -7.377   6.610  68.771  1.00  0.00     0.000 HD 
HETATM   31  N   UNL     1      -8.169   6.527  68.134  1.00  0.00    -0.116 N  
HETATM   32  O   UNL     1      -9.952   7.673  67.260  1.00  0.00    -0.169 OA 
BRANCH  31  33
HETATM   33  S   UNL     1      -8.555   4.971  67.572  1.00  0.00    -0.103 S  
HETATM   34  O   UNL     1      -7.497   4.084  67.983  1.00  0.00    -0.066 OA 
HETATM   35  O   UNL     1      -9.909   4.750  68.040  1.00  0.00    -0.154 OA 
BRANCH  33  36
HETATM   36  C   UNL     1      -8.667   4.747  65.847  1.00  0.00    -0.124 A  
HETATM   37  C   UNL     1      -8.357   5.684  64.871  1.00  0.00    -0.139 A  
HETATM   38  N   UNL     1      -8.475   5.056  63.667  1.00  0.00    -0.131 NA 
HETATM   39  N   UNL     1      -8.818   3.769  63.772  1.00  0.00    -0.097 NA 
HETATM   40  C   UNL     1      -8.234   5.571  62.340  1.00  0.00    -0.105 C  
HETATM   41  C   UNL     1      -8.873   3.539  65.093  1.00  0.00    -0.122 A  
HETATM   42  C   UNL     1      -9.050   2.107  65.467  1.00  0.00    -0.091 C  
ENDBRANCH  33  36
ENDBRANCH  31  33
ENDBRANCH  13  29
ENDBRANCH   4   9
TORSDOF 8
ENDMDL
MODEL      158
REMARK 921   NORMALIZED FREE ENERGY PREDICTED BY IDOCK:   -3.47 KCAL/MOL
REMARK 922        TOTAL FREE ENERGY PREDICTED BY IDOCK:   -6.72 KCAL/MOL
REMARK 923 INTER-LIGAND FREE ENERGY PREDICTED BY IDOCK:   -5.70 KCAL/MOL
REMARK 924 INTRA-LIGAND FREE ENERGY PREDICTED BY IDOCK:   -1.03 KCAL/MOL
REMARK 927      BINDING AFFINITY PREDICTED BY RF-SCORE:    0.00 PKD
ROOT
HETATM    1  C   UNL     1     -13.600  11.633  71.009  1.00  0.00     0.948 C  
HETATM    2  C   UNL     1     -12.865  10.815  72.071  1.00  0.00    -0.357 C  
HETATM    3  C   UNL     1     -11.433  10.507  71.647  1.00  0.00     0.778 C  
HETATM    4  N   UNL     1     -11.490   9.199  70.986  1.00  0.00    -0.286 NA 
HETATM    5  C   UNL     1     -11.969   7.435  72.617  1.00  0.00    -0.098 C  
HETATM    6  C   UNL     1     -12.611   8.398  71.601  1.00  0.00    -0.332 C  
HETATM    7  C   UNL     1     -13.504   9.450  72.315  1.00  0.00    -0.539 C  
HETATM    8  C   UNL     1     -13.539   7.546  70.728  1.00  0.00     0.236 C  
ENDROOT
BRANCH   4   9
HETATM    9  C   UNL     1     -10.977   9.036  69.710  1.00  0.00    -0.166 A  
HETATM   10  N   UNL     1     -11.044  10.157  68.921  1.00  0.00    -0.227 NA 
HETATM   11  C   UNL     1     -10.539  10.215  67.656  1.00  0.00    -0.265 A  
HETATM   12  C   UNL     1      -9.924   9.118  67.099  1.00  0.00    -0.280 A  
HETATM   13  C   UNL     1     -10.376   7.867  69.189  1.00  0.00    -0.225 A  
HETATM   14  C   UNL     1      -9.840   7.954  67.875  1.00  0.00    -0.201 A  
BRANCH  11  15
HETATM   15  N   UNL     1     -10.641  11.454  66.910  1.00  0.00    -0.240 NA 
HETATM   16  C   UNL     1     -11.721  11.841  66.127  1.00  0.00    -0.028 A  
HETATM   17  C   UNL     1     -11.421  13.059  65.576  1.00  0.00    -0.352 A  
HETATM   18  N   UNL     1      -9.662  12.424  66.897  1.00  0.00    -0.210 NA 
HETATM   19  C   UNL     1     -10.152  13.360  66.074  1.00  0.00    -0.304 A  
BRANCH  19  20
HETATM   20  O   UNL     1      -9.487  14.493  65.755  1.00  0.00    -0.251 OA 
BRANCH  20  21
HETATM   21  C   UNL     1      -9.144  15.357  66.836  1.00  0.00    -0.242 C  
BRANCH  21  22
HETATM   22  C   UNL     1     -10.249  16.435  67.015  1.00  0.00    -0.282 C  
HETATM   23  F   UNL     1     -10.337  17.772  69.007  1.00  0.00    -0.343 F  
HETATM   24  F   UNL     1      -8.375  17.425  68.148  1.00  0.00    -0.211 F  
HETATM   25  C   UNL     1     -11.472  15.830  67.734  1.00  0.00    -0.175 C  
HETATM   26  C   UNL     1     -10.730  16.941  65.639  1.00  0.00    -0.173 C  
HETATM   27  C   UNL     1      -9.678  17.605  67.837  1.00  0.00    -0.295 C  
HETATM   28  F   UNL     1      -9.761  18.781  67.174  1.00  0.00    -0.284 F  
ENDBRANCH  21  22
ENDBRANCH  20  21
ENDBRANCH  19  20
ENDBRANCH  11  15
BRANCH  13  29
HETATM   29  C   UNL     1     -10.169   6.496  69.813  1.00  0.00    -0.187 C  
HETATM   30  H   UNL     1      -9.420   7.239  71.610  1.00  0.00     0.000 HD 
HETATM   31  N   UNL     1      -9.569   6.379  71.083  1.00  0.00    -0.174 N  
HETATM   32  O   UNL     1     -10.620   5.515  69.237  1.00  0.00    -0.271 OA 
BRANCH  31  33
HETATM   33  S   UNL     1      -9.075   4.925  71.809  1.00  0.00    -0.141 S  
HETATM   34  O   UNL     1      -8.759   5.210  73.185  1.00  0.00    -0.116 OA 
HETATM   35  O   UNL     1     -10.135   3.989  71.487  1.00  0.00    -0.173 OA 
BRANCH  33  36
HETATM   36  C   UNL     1      -7.639   4.163  71.181  1.00  0.00    -0.055 A  
HETATM   37  C   UNL     1      -7.131   2.926  71.555  1.00  0.00    -0.032 A  
HETATM   38  N   UNL     1      -6.071   2.670  70.738  1.00  0.00    -0.018 NA 
HETATM   39  N   UNL     1      -5.852   3.632  69.837  1.00  0.00    -0.018 NA 
HETATM   40  C   UNL     1      -5.216   1.508  70.687  1.00  0.00    -0.004 C  
HETATM   41  C   UNL     1      -6.837   4.520  70.041  1.00  0.00    -0.041 A  
HETATM   42  C   UNL     1      -6.921   5.601  69.019  1.00  0.00    -0.063 C  
ENDBRANCH  33  36
ENDBRANCH  31  33
ENDBRANCH  13  29
ENDBRANCH   4   9
TORSDOF 8
ENDMDL
MODEL      159
REMARK 921   NORMALIZED FREE ENERGY PREDICTED BY IDOCK:   -3.37 KCAL/MOL
REMARK 922        TOTAL FREE ENERGY PREDICTED BY IDOCK:   -6.58 KCAL/MOL
REMARK 923 INTER-LIGAND FREE ENERGY PREDICTED BY IDOCK:   -7.24 KCAL/MOL
REMARK 924 INTRA-LIGAND FREE ENERGY PREDICTED BY IDOCK:    0.65 KCAL/MOL
REMARK 927      BINDING AFFINITY PREDICTED BY RF-SCORE:    0.00 PKD
ROOT
HETATM    1  C   UNL     1      -8.394   7.797  65.516  1.00  0.00    -0.151 C  
HETATM    2  C   UNL     1      -7.236   8.470  66.253  1.00  0.00    -0.078 C  
HETATM    3  C   UNL     1      -7.245   8.128  67.739  1.00  0.00    -0.091 C  
HETATM    4  N   UNL     1      -8.002   9.204  68.387  1.00  0.00    -0.102 NA 
HETATM    5  C   UNL     1      -6.738  11.302  68.317  1.00  0.00    -0.059 C  
HETATM    6  C   UNL     1      -7.813  10.471  67.591  1.00  0.00    -0.105 C  
HETATM    7  C   UNL     1      -7.307   9.994  66.201  1.00  0.00    -0.109 C  
HETATM    8  C   UNL     1      -8.988  11.420  67.334  1.00  0.00    -0.154 C  
ENDROOT
BRANCH   4   9
HETATM    9  C   UNL     1      -9.079   8.909  69.205  1.00  0.00    -0.141 A  
HETATM   10  N   UNL     1      -9.875   9.986  69.511  1.00  0.00    -0.217 NA 
HETATM   11  C   UNL     1     -11.015   9.888  70.252  1.00  0.00    -0.309 A  
HETATM   12  C   UNL     1     -11.427   8.672  70.742  1.00  0.00    -0.293 A  
HETATM   13  C   UNL     1      -9.438   7.632  69.696  1.00  0.00    -0.156 A  
HETATM   14  C   UNL     1     -10.638   7.550  70.451  1.00  0.00    -0.236 A  
BRANCH  11  15
HETATM   15  N   UNL     1     -11.798  11.083  70.504  1.00  0.00    -0.353 NA 
HETATM   16  C   UNL     1     -11.953  12.149  69.628  1.00  0.00    -0.284 A  
HETATM   17  C   UNL     1     -12.744  13.082  70.244  1.00  0.00     0.022 A  
HETATM   18  N   UNL     1     -12.508  11.302  71.665  1.00  0.00    -0.222 NA 
HETATM   19  C   UNL     1     -13.046  12.516  71.484  1.00  0.00    -0.277 A  
BRANCH  19  20
HETATM   20  O   UNL     1     -13.810  13.137  72.410  1.00  0.00    -0.577 OA 
BRANCH  20  21
HETATM   21  C   UNL     1     -13.939  14.552  72.284  1.00  0.00    -0.502 C  
BRANCH  21  22
HETATM   22  C   UNL     1     -12.698  15.248  72.908  1.00  0.00    -0.524 C  
HETATM   23  F   UNL     1     -10.619  15.340  71.709  1.00  0.00    -0.259 F  
HETATM   24  F   UNL     1     -12.427  15.712  70.566  1.00  0.00    -0.370 F  
HETATM   25  C   UNL     1     -11.849  14.225  73.691  1.00  0.00     0.662 C  
HETATM   26  C   UNL     1     -13.141  16.336  73.909  1.00  0.00    -0.293 C  
HETATM   27  C   UNL     1     -11.859  15.879  71.781  1.00  0.00    -0.497 C  
HETATM   28  F   UNL     1     -11.693  17.210  71.954  1.00  0.00    -0.209 F  
ENDBRANCH  21  22
ENDBRANCH  20  21
ENDBRANCH  19  20
ENDBRANCH  11  15
BRANCH  13  29
HETATM   29  C   UNL     1      -8.759   6.281  69.531  1.00  0.00    -0.132 C  
HETATM   30  H   UNL     1      -9.202   6.115  67.502  1.00  0.00     0.000 HD 
HETATM   31  N   UNL     1      -8.819   5.604  68.297  1.00  0.00    -0.109 N  
HETATM   32  O   UNL     1      -8.084   5.847  70.455  1.00  0.00    -0.107 OA 
BRANCH  31  33
HETATM   33  S   UNL     1      -8.307   4.008  68.023  1.00  0.00    -0.094 S  
HETATM   34  O   UNL     1      -6.972   3.881  68.551  1.00  0.00    -0.046 OA 
HETATM   35  O   UNL     1      -9.379   3.193  68.561  1.00  0.00    -0.168 OA 
BRANCH  33  36
HETATM   36  C   UNL     1      -8.172   3.481  66.368  1.00  0.00    -0.100 A  
HETATM   37  C   UNL     1      -7.218   2.612  65.854  1.00  0.00    -0.066 A  
HETATM   38  N   UNL     1      -7.551   2.385  64.552  1.00  0.00    -0.070 NA 
HETATM   39  N   UNL     1      -8.664   3.019  64.171  1.00  0.00    -0.093 NA 
HETATM   40  C   UNL     1      -6.908   1.534  63.579  1.00  0.00    -0.026 C  
HETATM   41  C   UNL     1      -9.099   3.637  65.278  1.00  0.00    -0.145 A  
HETATM   42  C   UNL     1     -10.447   4.261  65.153  1.00  0.00    -0.195 C  
ENDBRANCH  33  36
ENDBRANCH  31  33
ENDBRANCH  13  29
ENDBRANCH   4   9
TORSDOF 8
ENDMDL
MODEL      160
REMARK 921   NORMALIZED FREE ENERGY PREDICTED BY IDOCK:   -3.37 KCAL/MOL
REMARK 922        TOTAL FREE ENERGY PREDICTED BY IDOCK:   -6.58 KCAL/MOL
REMARK 923 INTER-LIGAND FREE ENERGY PREDICTED BY IDOCK:   -5.05 KCAL/MOL
REMARK 924 INTRA-LIGAND FREE ENERGY PREDICTED BY IDOCK:   -1.53 KCAL/MOL
REMARK 927      BINDING AFFINITY PREDICTED BY RF-SCORE:    0.00 PKD
ROOT
HETATM    1  C   UNL     1     -11.925  13.061  63.834  1.00  0.00    -0.551 C  
HETATM    2  C   UNL     1     -11.761  11.569  63.546  1.00  0.00    -0.248 C  
HETATM    3  C   UNL     1     -11.214  10.823  64.758  1.00  0.00     0.540 C  
HETATM    4  N   UNL     1      -9.758  10.799  64.583  1.00  0.00    -0.262 NA 
HETATM    5  C   UNL     1      -9.144   9.335  62.717  1.00  0.00    -0.030 C  
HETATM    6  C   UNL     1      -9.452  10.793  63.106  1.00  0.00    -0.336 C  
HETATM    7  C   UNL     1     -10.760  11.288  62.428  1.00  0.00     1.176 C  
HETATM    8  C   UNL     1      -8.309  11.640  62.537  1.00  0.00     0.485 C  
ENDROOT
BRANCH   4   9
HETATM    9  C   UNL     1      -8.924  11.263  65.585  1.00  0.00    -0.163 A  
HETATM   10  N   UNL     1      -9.437  12.306  66.317  1.00  0.00    -0.237 NA 
HETATM   11  C   UNL     1      -8.794  12.862  67.383  1.00  0.00    -0.199 A  
HETATM   12  C   UNL     1      -7.566  12.388  67.782  1.00  0.00    -0.134 A  
HETATM   13  C   UNL     1      -7.655  10.744  65.931  1.00  0.00    -0.106 A  
HETATM   14  C   UNL     1      -7.010  11.326  67.056  1.00  0.00    -0.126 A  
BRANCH  11  15
HETATM   15  N   UNL     1      -9.429  13.947  68.104  1.00  0.00    -0.202 NA 
HETATM   16  C   UNL     1      -9.773  15.182  67.570  1.00  0.00    -0.205 A  
HETATM   17  C   UNL     1     -10.328  15.931  68.574  1.00  0.00    -0.232 A  
HETATM   18  N   UNL     1      -9.789  13.878  69.433  1.00  0.00     0.327 NA 
HETATM   19  C   UNL     1     -10.304  15.088  69.687  1.00  0.00    -0.187 A  
BRANCH  19  20
HETATM   20  O   UNL     1     -10.762  15.462  70.902  1.00  0.00    -0.301 OA 
BRANCH  20  21
HETATM   21  C   UNL     1     -12.050  16.074  70.937  1.00  0.00    -0.295 C  
BRANCH  21  22
HETATM   22  C   UNL     1     -12.904  15.431  72.065  1.00  0.00    -0.468 C  
HETATM   23  F   UNL     1     -11.953  15.016  74.230  1.00  0.00    -0.657 F  
HETATM   24  F   UNL     1     -11.459  16.910  73.290  1.00  0.00    -0.340 F  
HETATM   25  C   UNL     1     -12.752  13.897  72.041  1.00  0.00    -0.338 C  
HETATM   26  C   UNL     1     -14.400  15.747  71.849  1.00  0.00    -0.235 C  
HETATM   27  C   UNL     1     -12.439  15.988  73.423  1.00  0.00    -0.558 C  
HETATM   28  F   UNL     1     -13.447  16.586  74.101  1.00  0.00    -0.228 F  
ENDBRANCH  21  22
ENDBRANCH  20  21
ENDBRANCH  19  20
ENDBRANCH  11  15
BRANCH  13  29
HETATM   29  C   UNL     1      -6.842   9.619  65.310  1.00  0.00    -0.096 C  
HETATM   30  H   UNL     1      -8.061   8.100  66.050  1.00  0.00     0.000 HD 
HETATM   31  N   UNL     1      -7.182   8.275  65.564  1.00  0.00    -0.070 N  
HETATM   32  O   UNL     1      -5.956   9.905  64.515  1.00  0.00    -0.090 OA 
BRANCH  31  33
HETATM   33  S   UNL     1      -6.250   6.924  65.129  1.00  0.00    -0.037 S  
HETATM   34  O   UNL     1      -5.860   7.089  63.751  1.00  0.00    -0.035 OA 
HETATM   35  O   UNL     1      -5.237   6.842  66.163  1.00  0.00    -0.020 OA 
BRANCH  33  36
HETATM   36  C   UNL     1      -7.026   5.364  65.179  1.00  0.00    -0.057 A  
HETATM   37  C   UNL     1      -6.406   4.130  65.038  1.00  0.00    -0.034 A  
HETATM   38  N   UNL     1      -7.359   3.181  65.258  1.00  0.00    -0.070 NA 
HETATM   39  N   UNL     1      -8.557   3.692  65.556  1.00  0.00    -0.110 NA 
HETATM   40  C   UNL     1      -7.233   1.743  65.263  1.00  0.00    -0.052 C  
HETATM   41  C   UNL     1      -8.363   5.019  65.582  1.00  0.00    -0.120 A  
HETATM   42  C   UNL     1      -9.524   5.807  66.086  1.00  0.00    -0.144 C  
ENDBRANCH  33  36
ENDBRANCH  31  33
ENDBRANCH  13  29
ENDBRANCH   4   9
TORSDOF 8
ENDMDL
MODEL      161
REMARK 921   NORMALIZED FREE ENERGY PREDICTED BY IDOCK:   -3.25 KCAL/MOL
REMARK 922        TOTAL FREE ENERGY PREDICTED BY IDOCK:   -6.40 KCAL/MOL
REMARK 923 INTER-LIGAND FREE ENERGY PREDICTED BY IDOCK:   -6.54 KCAL/MOL
REMARK 924 INTRA-LIGAND FREE ENERGY PREDICTED BY IDOCK:    0.14 KCAL/MOL
REMARK 927      BINDING AFFINITY PREDICTED BY RF-SCORE:    0.00 PKD
ROOT
HETATM    1  C   UNL     1     -11.627  14.767  65.513  1.00  0.00    -0.301 C  
HETATM    2  C   UNL     1     -12.250  13.718  64.592  1.00  0.00    -0.440 C  
HETATM    3  C   UNL     1     -12.509  12.408  65.330  1.00  0.00    -0.106 C  
HETATM    4  N   UNL     1     -11.315  11.586  65.106  1.00  0.00    -0.153 NA 
HETATM    5  C   UNL     1     -11.191  10.878  62.764  1.00  0.00     1.223 C  
HETATM    6  C   UNL     1     -10.725  11.951  63.767  1.00  0.00    -0.418 C  
HETATM    7  C   UNL     1     -11.339  13.337  63.427  1.00  0.00     0.042 C  
HETATM    8  C   UNL     1      -9.209  12.080  63.585  1.00  0.00     0.327 C  
ENDROOT
BRANCH   4   9
HETATM    9  C   UNL     1     -10.628  11.042  66.178  1.00  0.00    -0.228 A  
HETATM   10  N   UNL     1     -10.091   9.801  65.940  1.00  0.00    -0.273 NA 
HETATM   11  C   UNL     1      -9.331   9.127  66.849  1.00  0.00    -0.156 A  
HETATM   12  C   UNL     1      -9.063   9.677  68.080  1.00  0.00    -0.128 A  
HETATM   13  C   UNL     1     -10.407  11.654  67.433  1.00  0.00    -0.231 A  
HETATM   14  C   UNL     1      -9.597  10.942  68.358  1.00  0.00    -0.177 A  
BRANCH  11  15
HETATM   15  N   UNL     1      -8.792   7.828  66.494  1.00  0.00    -0.146 NA 
HETATM   16  C   UNL     1      -7.821   7.590  65.531  1.00  0.00    -0.114 A  
HETATM   17  C   UNL     1      -7.604   6.238  65.484  1.00  0.00    -0.087 A  
HETATM   18  N   UNL     1      -9.179   6.648  67.094  1.00  0.00    -0.123 NA 
HETATM   19  C   UNL     1      -8.464   5.715  66.452  1.00  0.00    -0.121 A  
BRANCH  19  20
HETATM   20  O   UNL     1      -8.560   4.393  66.713  1.00  0.00    -0.108 OA 
BRANCH  20  21
HETATM   21  C   UNL     1      -9.485   4.009  67.729  1.00  0.00    -0.178 C  
BRANCH  21  22
HETATM   22  C   UNL     1      -8.795   3.037  68.725  1.00  0.00    -0.168 C  
HETATM   23  F   UNL     1      -8.449   3.678  71.013  1.00  0.00    -0.067 F  
HETATM   24  F   UNL     1     -10.366   4.189  70.132  1.00  0.00    -0.223 F  
HETATM   25  C   UNL     1      -7.273   3.285  68.745  1.00  0.00    -0.049 C  
HETATM   26  C   UNL     1      -9.016   1.574  68.284  1.00  0.00    -0.162 C  
HETATM   27  C   UNL     1      -9.385   3.259  70.130  1.00  0.00    -0.172 C  
HETATM   28  F   UNL     1      -9.921   2.126  70.642  1.00  0.00    -0.169 F  
ENDBRANCH  21  22
ENDBRANCH  20  21
ENDBRANCH  19  20
ENDBRANCH  11  15
BRANCH  13  29
HETATM   29  C   UNL     1     -10.873  12.996  67.977  1.00  0.00    -0.242 C  
HETATM   30  H   UNL     1      -9.014  13.915  67.780  1.00  0.00     0.000 HD 
HETATM   31  N   UNL     1      -9.952  14.046  68.158  1.00  0.00    -0.235 N  
HETATM   32  O   UNL     1     -12.071  13.170  68.159  1.00  0.00    -0.319 OA 
BRANCH  31  33
HETATM   33  S   UNL     1     -10.274  15.512  68.953  1.00  0.00    -0.221 S  
HETATM   34  O   UNL     1     -11.705  15.654  69.045  1.00  0.00    -0.364 OA 
HETATM   35  O   UNL     1      -9.474  15.445  70.161  1.00  0.00    -0.089 OA 
BRANCH  33  36
HETATM   36  C   UNL     1      -9.740  16.979  68.179  1.00  0.00    -0.268 A  
HETATM   37  C   UNL     1     -10.531  17.872  67.469  1.00  0.00    -0.390 A  
HETATM   38  N   UNL     1      -9.736  18.929  67.139  1.00  0.00    -0.295 NA 
HETATM   39  N   UNL     1      -8.485  18.815  67.596  1.00  0.00    -0.270 NA 
HETATM   40  C   UNL     1     -10.074  20.140  66.430  1.00  0.00    -0.445 C  
HETATM   41  C   UNL     1      -8.481  17.668  68.292  1.00  0.00    -0.271 A  
HETATM   42  C   UNL     1      -7.234  17.416  69.068  1.00  0.00    -0.224 C  
ENDBRANCH  33  36
ENDBRANCH  31  33
ENDBRANCH  13  29
ENDBRANCH   4   9
TORSDOF 8
ENDMDL
MODEL      162
REMARK 921   NORMALIZED FREE ENERGY PREDICTED BY IDOCK:   -3.15 KCAL/MOL
REMARK 922        TOTAL FREE ENERGY PREDICTED BY IDOCK:   -6.26 KCAL/MOL
REMARK 923 INTER-LIGAND FREE ENERGY PREDICTED BY IDOCK:   -5.89 KCAL/MOL
REMARK 924 INTRA-LIGAND FREE ENERGY PREDICTED BY IDOCK:   -0.37 KCAL/MOL
REMARK 927      BINDING AFFINITY PREDICTED BY RF-SCORE:    0.00 PKD
ROOT
HETATM    1  C   UNL     1      -5.786   7.927  68.662  1.00  0.00    -0.035 C  
HETATM    2  C   UNL     1      -5.416   9.402  68.815  1.00  0.00    -0.037 C  
HETATM    3  C   UNL     1      -6.383  10.128  69.744  1.00  0.00    -0.064 C  
HETATM    4  N   UNL     1      -7.415  10.698  68.872  1.00  0.00    -0.099 NA 
HETATM    5  C   UNL     1      -6.485  12.518  67.521  1.00  0.00    -0.153 C  
HETATM    6  C   UNL     1      -6.795  11.009  67.533  1.00  0.00    -0.084 C  
HETATM    7  C   UNL     1      -5.487  10.170  67.497  1.00  0.00    -0.041 C  
HETATM    8  C   UNL     1      -7.547  10.714  66.231  1.00  0.00    -0.137 C  
ENDROOT
BRANCH   4   9
HETATM    9  C   UNL     1      -8.754  10.437  69.108  1.00  0.00    -0.166 A  
HETATM   10  N   UNL     1      -9.010   9.192  69.627  1.00  0.00    -0.147 NA 
HETATM   11  C   UNL     1     -10.256   8.769  69.982  1.00  0.00    -0.198 A  
HETATM   12  C   UNL     1     -11.343   9.597  69.830  1.00  0.00    -0.159 A  
HETATM   13  C   UNL     1      -9.833  11.329  68.907  1.00  0.00    -0.153 A  
HETATM   14  C   UNL     1     -11.120  10.876  69.301  1.00  0.00    -0.305 A  
BRANCH  11  15
HETATM   15  N   UNL     1     -10.420   7.441  70.540  1.00  0.00    -0.215 NA 
HETATM   16  C   UNL     1     -11.544   6.978  71.212  1.00  0.00    -0.303 A  
HETATM   17  C   UNL     1     -11.295   5.687  71.598  1.00  0.00    -0.150 A  
HETATM   18  N   UNL     1      -9.463   6.452  70.458  1.00  0.00    -0.162 NA 
HETATM   19  C   UNL     1     -10.010   5.424  71.119  1.00  0.00    -0.196 A  
BRANCH  19  20
HETATM   20  O   UNL     1      -9.385   4.240  71.304  1.00  0.00    -0.130 OA 
BRANCH  20  21
HETATM   21  C   UNL     1      -8.046   4.145  70.823  1.00  0.00    -0.063 C  
BRANCH  21  22
HETATM   22  C   UNL     1      -7.631   2.651  70.723  1.00  0.00    -0.036 C  
HETATM   23  F   UNL     1      -7.622   1.525  68.602  1.00  0.00    -0.045 F  
HETATM   24  F   UNL     1      -6.833   3.547  68.642  1.00  0.00    -0.042 F  
HETATM   25  C   UNL     1      -8.871   1.742  70.855  1.00  0.00    -0.114 C  
HETATM   26  C   UNL     1      -6.671   2.285  71.875  1.00  0.00    -0.018 C  
HETATM   27  C   UNL     1      -6.942   2.412  69.367  1.00  0.00    -0.033 C  
HETATM   28  F   UNL     1      -5.690   1.919  69.511  1.00  0.00    -0.018 F  
ENDBRANCH  21  22
ENDBRANCH  20  21
ENDBRANCH  19  20
ENDBRANCH  11  15
BRANCH  13  29
HETATM   29  C   UNL     1      -9.857  12.745  68.352  1.00  0.00    -0.196 C  
HETATM   30  H   UNL     1     -10.935  12.239  66.642  1.00  0.00     0.000 HD 
HETATM   31  N   UNL     1     -10.425  13.001  67.088  1.00  0.00    -0.242 N  
HETATM   32  O   UNL     1      -9.465  13.661  69.064  1.00  0.00     0.052 OA 
BRANCH  31  33
HETATM   33  S   UNL     1     -10.332  14.473  66.246  1.00  0.00    -0.306 S  
HETATM   34  O   UNL     1      -9.916  14.179  64.898  1.00  0.00    -0.322 OA 
HETATM   35  O   UNL     1     -11.615  15.103  66.488  1.00  0.00    -0.252 OA 
BRANCH  33  36
HETATM   36  C   UNL     1      -9.176  15.649  66.811  1.00  0.00    -0.251 A  
HETATM   37  C   UNL     1      -8.275  16.361  66.031  1.00  0.00    -0.040 A  
HETATM   38  N   UNL     1      -7.650  17.247  66.857  1.00  0.00    -0.195 NA 
HETATM   39  N   UNL     1      -8.083  17.190  68.120  1.00  0.00    -0.211 NA 
HETATM   40  C   UNL     1      -6.652  18.241  66.543  1.00  0.00    -0.202 C  
HETATM   41  C   UNL     1      -9.062  16.273  68.103  1.00  0.00    -0.188 A  
HETATM   42  C   UNL     1      -9.839  16.170  69.370  1.00  0.00    -0.232 C  
ENDBRANCH  33  36
ENDBRANCH  31  33
ENDBRANCH  13  29
ENDBRANCH   4   9
TORSDOF 8
ENDMDL
MODEL      163
REMARK 921   NORMALIZED FREE ENERGY PREDICTED BY IDOCK:   -3.01 KCAL/MOL
REMARK 922        TOTAL FREE ENERGY PREDICTED BY IDOCK:   -6.06 KCAL/MOL
REMARK 923 INTER-LIGAND FREE ENERGY PREDICTED BY IDOCK:   -6.29 KCAL/MOL
REMARK 924 INTRA-LIGAND FREE ENERGY PREDICTED BY IDOCK:    0.24 KCAL/MOL
REMARK 927      BINDING AFFINITY PREDICTED BY RF-SCORE:    0.00 PKD
ROOT
HETATM    1  C   UNL     1      -6.486  15.518  67.258  1.00  0.00    -0.049 C  
HETATM    2  C   UNL     1      -5.579  14.319  67.537  1.00  0.00     0.168 C  
HETATM    3  C   UNL     1      -6.287  13.001  67.241  1.00  0.00     0.047 C  
HETATM    4  N   UNL     1      -6.880  12.577  68.513  1.00  0.00    -0.076 NA 
HETATM    5  C   UNL     1      -5.131  11.914  70.095  1.00  0.00    -0.082 C  
HETATM    6  C   UNL     1      -6.017  13.088  69.640  1.00  0.00    -0.118 C  
HETATM    7  C   UNL     1      -5.163  14.219  69.003  1.00  0.00    -0.081 C  
HETATM    8  C   UNL     1      -6.647  13.669  70.911  1.00  0.00     0.762 C  
ENDROOT
BRANCH   4   9
HETATM    9  C   UNL     1      -8.230  12.279  68.592  1.00  0.00    -0.017 A  
HETATM   10  N   UNL     1      -8.508  10.984  68.956  1.00  0.00    -0.120 NA 
HETATM   11  C   UNL     1      -9.774  10.514  69.145  1.00  0.00    -0.211 A  
HETATM   12  C   UNL     1     -10.858  11.341  68.972  1.00  0.00    -0.268 A  
HETATM   13  C   UNL     1      -9.303  13.175  68.378  1.00  0.00    -0.154 A  
HETATM   14  C   UNL     1     -10.613  12.669  68.598  1.00  0.00    -0.245 A  
BRANCH  11  15
HETATM   15  N   UNL     1      -9.962   9.134  69.548  1.00  0.00    -0.182 NA 
HETATM   16  C   UNL     1     -11.150   8.420  69.462  1.00  0.00     0.053 A  
HETATM   17  C   UNL     1     -10.919   7.166  69.962  1.00  0.00    -0.287 A  
HETATM   18  N   UNL     1      -8.958   8.343  70.065  1.00  0.00    -0.137 NA 
HETATM   19  C   UNL     1      -9.570   7.180  70.321  1.00  0.00    -0.169 A  
BRANCH  19  20
HETATM   20  O   UNL     1      -8.945   6.115  70.871  1.00  0.00    -0.141 OA 
BRANCH  20  21
HETATM   21  C   UNL     1      -9.727   4.935  71.043  1.00  0.00    -0.185 C  
BRANCH  21  22
HETATM   22  C   UNL     1      -9.551   4.397  72.490  1.00  0.00    -0.190 C  
HETATM   23  F   UNL     1     -10.489   5.583  74.355  1.00  0.00    -0.255 F  
HETATM   24  F   UNL     1     -11.726   5.416  72.579  1.00  0.00    -0.323 F  
HETATM   25  C   UNL     1      -8.286   5.001  73.134  1.00  0.00    -0.108 C  
HETATM   26  C   UNL     1      -9.369   2.864  72.471  1.00  0.00    -0.152 C  
HETATM   27  C   UNL     1     -10.795   4.770  73.317  1.00  0.00    -0.281 C  
HETATM   28  F   UNL     1     -11.402   3.681  73.843  1.00  0.00    -0.277 F  
ENDBRANCH  21  22
ENDBRANCH  20  21
ENDBRANCH  19  20
ENDBRANCH  11  15
BRANCH  13  29
HETATM   29  C   UNL     1      -9.304  14.640  67.969  1.00  0.00    -0.198 C  
HETATM   30  H   UNL     1     -10.294  14.311  66.165  1.00  0.00     0.000 HD 
HETATM   31  N   UNL     1      -9.810  15.023  66.711  1.00  0.00    -0.237 N  
HETATM   32  O   UNL     1      -8.951  15.478  68.788  1.00  0.00    -0.178 OA 
BRANCH  31  33
HETATM   33  S   UNL     1      -9.679  16.573  66.027  1.00  0.00    -0.278 S  
HETATM   34  O   UNL     1      -8.298  16.776  65.668  1.00  0.00    -0.333 OA 
HETATM   35  O   UNL     1     -10.705  16.598  65.004  1.00  0.00    -0.677 OA 
BRANCH  33  36
HETATM   36  C   UNL     1     -10.068  17.934  67.044  1.00  0.00    -0.340 A  
HETATM   37  C   UNL     1      -9.894  18.013  68.419  1.00  0.00    -0.366 A  
HETATM   38  N   UNL     1     -10.217  19.285  68.786  1.00  0.00    -0.376 NA 
HETATM   39  N   UNL     1     -10.571  20.060  67.757  1.00  0.00    -0.318 NA 
HETATM   40  C   UNL     1     -10.177  19.897  70.093  1.00  0.00     0.707 C  
HETATM   41  C   UNL     1     -10.421  19.279  66.676  1.00  0.00    -0.449 A  
HETATM   42  C   UNL     1     -10.572  19.986  65.373  1.00  0.00    -0.172 C  
ENDBRANCH  33  36
ENDBRANCH  31  33
ENDBRANCH  13  29
ENDBRANCH   4   9
TORSDOF 8
ENDMDL
MODEL      164
REMARK 921   NORMALIZED FREE ENERGY PREDICTED BY IDOCK:   -3.00 KCAL/MOL
REMARK 922        TOTAL FREE ENERGY PREDICTED BY IDOCK:   -6.03 KCAL/MOL
REMARK 923 INTER-LIGAND FREE ENERGY PREDICTED BY IDOCK:   -7.14 KCAL/MOL
REMARK 924 INTRA-LIGAND FREE ENERGY PREDICTED BY IDOCK:    1.11 KCAL/MOL
REMARK 927      BINDING AFFINITY PREDICTED BY RF-SCORE:    0.00 PKD
ROOT
HETATM    1  C   UNL     1      -6.987  12.684  67.849  1.00  0.00    -0.110 C  
HETATM    2  C   UNL     1      -7.560  12.184  66.523  1.00  0.00     0.268 C  
HETATM    3  C   UNL     1      -9.085  12.215  66.525  1.00  0.00    -0.199 C  
HETATM    4  N   UNL     1      -9.505  10.881  66.965  1.00  0.00    -0.164 NA 
HETATM    5  C   UNL     1      -8.995   9.212  65.246  1.00  0.00    -0.246 C  
HETATM    6  C   UNL     1      -8.465   9.880  66.528  1.00  0.00    -0.125 C  
HETATM    7  C   UNL     1      -7.197  10.729  66.233  1.00  0.00    -0.137 C  
HETATM    8  C   UNL     1      -8.030   8.742  67.458  1.00  0.00    -0.102 C  
ENDROOT
BRANCH   4   9
HETATM    9  C   UNL     1     -10.376  10.737  68.032  1.00  0.00    -0.182 A  
HETATM   10  N   UNL     1     -10.414   9.475  68.571  1.00  0.00    -0.211 NA 
HETATM   11  C   UNL     1     -11.163   9.148  69.663  1.00  0.00    -0.009 A  
HETATM   12  C   UNL     1     -11.938  10.098  70.287  1.00  0.00    -0.315 A  
HETATM   13  C   UNL     1     -11.167  11.754  68.615  1.00  0.00    -0.312 A  
HETATM   14  C   UNL     1     -11.926  11.397  69.762  1.00  0.00    -0.422 A  
BRANCH  11  15
HETATM   15  N   UNL     1     -11.120   7.791  70.169  1.00  0.00    -0.242 NA 
HETATM   16  C   UNL     1     -12.215   7.046  70.585  1.00  0.00    -0.240 A  
HETATM   17  C   UNL     1     -11.754   5.828  71.011  1.00  0.00     0.279 A  
HETATM   18  N   UNL     1      -9.960   7.054  70.289  1.00  0.00    -0.179 NA 
HETATM   19  C   UNL     1     -10.373   5.894  70.815  1.00  0.00    -0.232 A  
BRANCH  19  20
HETATM   20  O   UNL     1      -9.538   4.877  71.124  1.00  0.00    -0.152 OA 
BRANCH  20  21
HETATM   21  C   UNL     1      -8.489   5.172  72.046  1.00  0.00    -0.126 C  
BRANCH  21  22
HETATM   22  C   UNL     1      -8.954   4.840  73.491  1.00  0.00    -0.107 C  
HETATM   23  F   UNL     1     -11.197   4.092  73.909  1.00  0.00    -0.302 F  
HETATM   24  F   UNL     1     -10.196   3.260  72.173  1.00  0.00    -0.228 F  
HETATM   25  C   UNL     1      -9.572   6.088  74.154  1.00  0.00    -0.182 C  
HETATM   26  C   UNL     1      -7.748   4.411  74.354  1.00  0.00    -0.084 C  
HETATM   27  C   UNL     1      -9.991   3.703  73.433  1.00  0.00    -0.119 C  
HETATM   28  F   UNL     1      -9.613   2.631  74.166  1.00  0.00    -0.093 F  
ENDBRANCH  21  22
ENDBRANCH  20  21
ENDBRANCH  19  20
ENDBRANCH  11  15
BRANCH  13  29
HETATM   29  C   UNL     1     -11.334  13.218  68.237  1.00  0.00    -0.300 C  
HETATM   30  H   UNL     1     -10.431  13.944  69.969  1.00  0.00     0.000 HD 
HETATM   31  N   UNL     1     -10.948  14.230  69.138  1.00  0.00    -0.259 N  
HETATM   32  O   UNL     1     -11.715  13.492  67.107  1.00  0.00    -0.336 OA 
BRANCH  31  33
HETATM   33  S   UNL     1     -11.272  15.888  68.955  1.00  0.00    -0.365 S  
HETATM   34  O   UNL     1     -12.490  16.013  68.195  1.00  0.00     0.648 OA 
HETATM   35  O   UNL     1     -11.201  16.415  70.303  1.00  0.00    -0.367 OA 
BRANCH  33  36
HETATM   36  C   UNL     1     -10.109  16.840  68.072  1.00  0.00    -0.284 A  
HETATM   37  C   UNL     1     -10.377  17.962  67.300  1.00  0.00    -0.369 A  
HETATM   38  N   UNL     1      -9.175  18.457  66.890  1.00  0.00    -0.278 NA 
HETATM   39  N   UNL     1      -8.131  17.762  67.351  1.00  0.00    -0.208 NA 
HETATM   40  C   UNL     1      -8.892  19.627  66.094  1.00  0.00    -0.332 C  
HETATM   41  C   UNL     1      -8.671  16.813  68.130  1.00  0.00    -0.219 A  
HETATM   42  C   UNL     1      -7.685  16.021  68.919  1.00  0.00    -0.196 C  
ENDBRANCH  33  36
ENDBRANCH  31  33
ENDBRANCH  13  29
ENDBRANCH   4   9
TORSDOF 8
ENDMDL
MODEL      165
REMARK 921   NORMALIZED FREE ENERGY PREDICTED BY IDOCK:   -2.88 KCAL/MOL
REMARK 922        TOTAL FREE ENERGY PREDICTED BY IDOCK:   -5.86 KCAL/MOL
REMARK 923 INTER-LIGAND FREE ENERGY PREDICTED BY IDOCK:   -6.29 KCAL/MOL
REMARK 924 INTRA-LIGAND FREE ENERGY PREDICTED BY IDOCK:    0.44 KCAL/MOL
REMARK 927      BINDING AFFINITY PREDICTED BY RF-SCORE:    0.00 PKD
ROOT
HETATM    1  C   UNL     1     -12.197  12.378  68.650  1.00  0.00     0.045 C  
HETATM    2  C   UNL     1     -11.154  12.071  69.724  1.00  0.00     0.007 C  
HETATM    3  C   UNL     1      -9.760  11.920  69.123  1.00  0.00     0.318 C  
HETATM    4  N   UNL     1      -9.597  10.487  68.859  1.00  0.00    -0.185 NA 
HETATM    5  C   UNL     1      -9.423   9.242  70.961  1.00  0.00    -0.313 C  
HETATM    6  C   UNL     1     -10.405   9.716  69.872  1.00  0.00    -0.249 C  
HETATM    7  C   UNL     1     -11.416  10.749  70.443  1.00  0.00    -0.397 C  
HETATM    8  C   UNL     1     -11.216   8.483  69.458  1.00  0.00     0.139 C  
ENDROOT
BRANCH   4   9
HETATM    9  C   UNL     1      -9.238  10.045  67.597  1.00  0.00    -0.137 A  
HETATM   10  N   UNL     1      -8.948   8.704  67.524  1.00  0.00    -0.134 NA 
HETATM   11  C   UNL     1      -8.631   8.068  66.360  1.00  0.00    -0.145 A  
HETATM   12  C   UNL     1      -8.585   8.764  65.175  1.00  0.00    -0.209 A  
HETATM   13  C   UNL     1      -9.188  10.821  66.416  1.00  0.00    -0.191 A  
HETATM   14  C   UNL     1      -8.874  10.135  65.212  1.00  0.00    -0.201 A  
BRANCH  11  15
HETATM   15  N   UNL     1      -8.360   6.644  66.384  1.00  0.00    -0.116 NA 
HETATM   16  C   UNL     1      -8.688   5.775  67.416  1.00  0.00    -0.107 A  
HETATM   17  C   UNL     1      -8.245   4.527  67.066  1.00  0.00    -0.102 A  
HETATM   18  N   UNL     1      -7.741   5.964  65.357  1.00  0.00    -0.088 NA 
HETATM   19  C   UNL     1      -7.670   4.705  65.807  1.00  0.00    -0.094 A  
BRANCH  19  20
HETATM   20  O   UNL     1      -7.099   3.697  65.110  1.00  0.00    -0.063 OA 
BRANCH  20  21
HETATM   21  C   UNL     1      -7.568   3.497  63.778  1.00  0.00    -0.067 C  
BRANCH  21  22
HETATM   22  C   UNL     1      -8.933   2.755  63.810  1.00  0.00    -0.097 C  
HETATM   23  F   UNL     1     -10.941   3.920  64.425  1.00  0.00    -0.298 F  
HETATM   24  F   UNL     1      -9.564   4.967  63.113  1.00  0.00    -0.048 F  
HETATM   25  C   UNL     1      -9.198   2.184  65.218  1.00  0.00    -0.073 C  
HETATM   26  C   UNL     1      -8.917   1.564  62.827  1.00  0.00    -0.075 C  
HETATM   27  C   UNL     1     -10.049   3.743  63.422  1.00  0.00    -0.189 C  
HETATM   28  F   UNL     1     -10.753   3.320  62.347  1.00  0.00    -0.140 F  
ENDBRANCH  21  22
ENDBRANCH  20  21
ENDBRANCH  19  20
ENDBRANCH  11  15
BRANCH  13  29
HETATM   29  C   UNL     1      -9.447  12.303  66.193  1.00  0.00    -0.217 C  
HETATM   30  H   UNL     1     -11.508  12.158  66.462  1.00  0.00     0.000 HD 
HETATM   31  N   UNL     1     -10.766  12.797  66.178  1.00  0.00    -0.271 N  
HETATM   32  O   UNL     1      -8.488  13.061  66.125  1.00  0.00     0.398 OA 
BRANCH  31  33
HETATM   33  S   UNL     1     -11.223  14.370  65.727  1.00  0.00    -0.333 S  
HETATM   34  O   UNL     1     -10.838  14.558  64.351  1.00  0.00    -0.284 OA 
HETATM   35  O   UNL     1     -12.620  14.457  66.107  1.00  0.00    -0.375 OA 
BRANCH  33  36
HETATM   36  C   UNL     1     -10.476  15.697  66.574  1.00  0.00    -0.302 A  
HETATM   37  C   UNL     1      -9.536  16.580  66.059  1.00  0.00    -0.290 A  
HETATM   38  N   UNL     1      -9.312  17.523  67.017  1.00  0.00    -0.252 NA 
HETATM   39  N   UNL     1     -10.048  17.344  68.119  1.00  0.00    -0.309 NA 
HETATM   40  C   UNL     1      -8.451  18.680  66.977  1.00  0.00    -0.271 C  
HETATM   41  C   UNL     1     -10.816  16.279  67.845  1.00  0.00    -0.330 A  
HETATM   42  C   UNL     1     -11.872  15.998  68.859  1.00  0.00    -0.249 C  
ENDBRANCH  33  36
ENDBRANCH  31  33
ENDBRANCH  13  29
ENDBRANCH   4   9
TORSDOF 8
ENDMDL
MODEL      166
REMARK 921   NORMALIZED FREE ENERGY PREDICTED BY IDOCK:   -2.72 KCAL/MOL
REMARK 922        TOTAL FREE ENERGY PREDICTED BY IDOCK:   -5.62 KCAL/MOL
REMARK 923 INTER-LIGAND FREE ENERGY PREDICTED BY IDOCK:   -6.10 KCAL/MOL
REMARK 924 INTRA-LIGAND FREE ENERGY PREDICTED BY IDOCK:    0.48 KCAL/MOL
REMARK 927      BINDING AFFINITY PREDICTED BY RF-SCORE:    0.00 PKD
ROOT
HETATM    1  C   UNL     1      -7.436   7.555  64.751  1.00  0.00    -0.091 C  
HETATM    2  C   UNL     1      -6.527   8.583  65.425  1.00  0.00    -0.056 C  
HETATM    3  C   UNL     1      -6.562   8.449  66.944  1.00  0.00    -0.058 C  
HETATM    4  N   UNL     1      -7.597   9.383  67.399  1.00  0.00    -0.094 NA 
HETATM    5  C   UNL     1      -6.867  11.698  67.071  1.00  0.00    -0.144 C  
HETATM    6  C   UNL     1      -7.659  10.540  66.434  1.00  0.00    -0.132 C  
HETATM    7  C   UNL     1      -6.955  10.023  65.149  1.00  0.00    -0.134 C  
HETATM    8  C   UNL     1      -9.005  11.129  65.997  1.00  0.00    -0.210 C  
ENDROOT
BRANCH   4   9
HETATM    9  C   UNL     1      -8.630   8.943  68.209  1.00  0.00    -0.134 A  
HETATM   10  N   UNL     1      -9.463   9.936  68.662  1.00  0.00    -0.149 NA 
HETATM   11  C   UNL     1     -10.569   9.698  69.422  1.00  0.00    -0.225 A  
HETATM   12  C   UNL     1     -10.907   8.414  69.780  1.00  0.00    -0.184 A  
HETATM   13  C   UNL     1      -8.910   7.602  68.561  1.00  0.00    -0.130 A  
HETATM   14  C   UNL     1     -10.078   7.374  69.338  1.00  0.00    -0.185 A  
BRANCH  11  15
HETATM   15  N   UNL     1     -11.397  10.815  69.834  1.00  0.00    -0.288 NA 
HETATM   16  C   UNL     1     -11.754  11.895  69.038  1.00  0.00    -0.331 A  
HETATM   17  C   UNL     1     -12.519  12.739  69.800  1.00  0.00     0.049 A  
HETATM   18  N   UNL     1     -11.952  10.935  71.090  1.00  0.00    -0.279 NA 
HETATM   19  C   UNL     1     -12.600  12.106  71.042  1.00  0.00    -0.263 A  
BRANCH  19  20
HETATM   20  O   UNL     1     -13.271  12.630  72.091  1.00  0.00    -0.478 OA 
BRANCH  20  21
HETATM   21  C   UNL     1     -13.928  13.876  71.870  1.00  0.00    -0.425 C  
BRANCH  21  22
HETATM   22  C   UNL     1     -13.131  15.018  72.559  1.00  0.00    -0.480 C  
HETATM   23  F   UNL     1     -10.830  15.411  71.997  1.00  0.00    -0.386 F  
HETATM   24  F   UNL     1     -12.181  14.985  70.352  1.00  0.00    -0.293 F  
HETATM   25  C   UNL     1     -12.415  14.485  73.817  1.00  0.00    -0.092 C  
HETATM   26  C   UNL     1     -14.090  16.138  73.018  1.00  0.00     0.041 C  
HETATM   27  C   UNL     1     -12.101  15.581  71.563  1.00  0.00    -0.393 C  
HETATM   28  F   UNL     1     -12.266  16.908  71.356  1.00  0.00     0.172 F  
ENDBRANCH  21  22
ENDBRANCH  20  21
ENDBRANCH  19  20
ENDBRANCH  11  15
BRANCH  13  29
HETATM   29  C   UNL     1      -8.176   6.314  68.220  1.00  0.00    -0.115 C  
HETATM   30  H   UNL     1      -9.476   5.779  66.682  1.00  0.00     0.000 HD 
HETATM   31  N   UNL     1      -8.691   5.443  67.239  1.00  0.00    -0.108 N  
HETATM   32  O   UNL     1      -7.089   6.104  68.742  1.00  0.00    -0.076 OA 
BRANCH  31  33
HETATM   33  S   UNL     1      -8.112   3.881  66.908  1.00  0.00    -0.096 S  
HETATM   34  O   UNL     1      -9.205   3.119  66.359  1.00  0.00    -0.154 OA 
HETATM   35  O   UNL     1      -6.916   4.105  66.119  1.00  0.00    -0.063 OA 
BRANCH  33  36
HETATM   36  C   UNL     1      -7.551   2.930  68.256  1.00  0.00    -0.055 A  
HETATM   37  C   UNL     1      -6.235   2.788  68.675  1.00  0.00    -0.029 A  
HETATM   38  N   UNL     1      -6.262   2.058  69.825  1.00  0.00    -0.024 NA 
HETATM   39  N   UNL     1      -7.497   1.725  70.213  1.00  0.00    -0.036 NA 
HETATM   40  C   UNL     1      -5.170   1.657  70.679  1.00  0.00    -0.004 C  
HETATM   41  C   UNL     1      -8.304   2.304  69.311  1.00  0.00    -0.049 A  
HETATM   42  C   UNL     1      -9.756   2.237  69.642  1.00  0.00     0.081 C  
ENDBRANCH  33  36
ENDBRANCH  31  33
ENDBRANCH  13  29
ENDBRANCH   4   9
TORSDOF 8
ENDMDL
MODEL      167
REMARK 921   NORMALIZED FREE ENERGY PREDICTED BY IDOCK:   -2.60 KCAL/MOL
REMARK 922        TOTAL FREE ENERGY PREDICTED BY IDOCK:   -5.45 KCAL/MOL
REMARK 923 INTER-LIGAND FREE ENERGY PREDICTED BY IDOCK:   -6.51 KCAL/MOL
REMARK 924 INTRA-LIGAND FREE ENERGY PREDICTED BY IDOCK:    1.07 KCAL/MOL
REMARK 927      BINDING AFFINITY PREDICTED BY RF-SCORE:    0.00 PKD
ROOT
HETATM    1  C   UNL     1     -13.934   8.035  71.534  1.00  0.00    -0.433 C  
HETATM    2  C   UNL     1     -12.721   8.414  72.384  1.00  0.00    -0.346 C  
HETATM    3  C   UNL     1     -11.891   9.506  71.718  1.00  0.00    -0.360 C  
HETATM    4  N   UNL     1     -10.861   8.802  70.946  1.00  0.00    -0.226 NA 
HETATM    5  C   UNL     1      -9.249   7.729  72.447  1.00  0.00    -0.218 C  
HETATM    6  C   UNL     1     -10.543   7.502  71.642  1.00  0.00    -0.205 C  
HETATM    7  C   UNL     1     -11.752   7.252  72.586  1.00  0.00    -0.203 C  
HETATM    8  C   UNL     1     -10.330   6.214  70.840  1.00  0.00    -0.267 C  
ENDROOT
BRANCH   4   9
HETATM    9  C   UNL     1     -10.694   9.066  69.597  1.00  0.00    -0.219 A  
HETATM   10  N   UNL     1     -10.460   7.956  68.824  1.00  0.00    -0.201 NA 
HETATM   11  C   UNL     1     -10.329   8.002  67.467  1.00  0.00    -0.261 A  
HETATM   12  C   UNL     1     -10.426   9.198  66.797  1.00  0.00    -0.266 A  
HETATM   13  C   UNL     1     -10.784  10.330  68.970  1.00  0.00    -0.257 A  
HETATM   14  C   UNL     1     -10.662  10.353  67.555  1.00  0.00    -0.339 A  
BRANCH  11  15
HETATM   15  N   UNL     1     -10.103   6.770  66.737  1.00  0.00    -0.193 NA 
HETATM   16  C   UNL     1     -10.833   5.597  66.882  1.00  0.00    -0.202 A  
HETATM   17  C   UNL     1     -10.295   4.664  66.035  1.00  0.00    -0.318 A  
HETATM   18  N   UNL     1      -9.122   6.614  65.781  1.00  0.00    -0.037 NA 
HETATM   19  C   UNL     1      -9.252   5.338  65.396  1.00  0.00    -0.080 A  
BRANCH  19  20
HETATM   20  O   UNL     1      -8.454   4.753  64.476  1.00  0.00    -0.128 OA 
BRANCH  20  21
HETATM   21  C   UNL     1      -7.191   4.277  64.937  1.00  0.00    -0.071 C  
BRANCH  21  22
HETATM   22  C   UNL     1      -7.033   2.775  64.573  1.00  0.00    -0.048 C  
HETATM   23  F   UNL     1      -7.632   1.980  62.387  1.00  0.00    -0.034 F  
HETATM   24  F   UNL     1      -6.560   3.865  62.484  1.00  0.00    -0.020 F  
HETATM   25  C   UNL     1      -8.340   2.012  64.873  1.00  0.00    -0.086 C  
HETATM   26  C   UNL     1      -5.920   2.131  65.427  1.00  0.00    -0.018 C  
HETATM   27  C   UNL     1      -6.684   2.657  63.077  1.00  0.00    -0.027 C  
HETATM   28  F   UNL     1      -5.517   2.003  62.877  1.00  0.00    -0.006 F  
ENDBRANCH  21  22
ENDBRANCH  20  21
ENDBRANCH  19  20
ENDBRANCH  11  15
BRANCH  13  29
HETATM   29  C   UNL     1     -11.023  11.713  69.557  1.00  0.00    -0.098 C  
HETATM   30  H   UNL     1     -12.660  11.129  70.706  1.00  0.00     0.000 HD 
HETATM   31  N   UNL     1     -12.129  11.943  70.400  1.00  0.00    -0.358 N  
HETATM   32  O   UNL     1     -10.187  12.585  69.362  1.00  0.00     0.283 OA 
BRANCH  31  33
HETATM   33  S   UNL     1     -12.649  13.464  70.949  1.00  0.00    -0.282 S  
HETATM   34  O   UNL     1     -14.026  13.622  70.557  1.00  0.00     0.801 OA 
HETATM   35  O   UNL     1     -12.289  13.477  72.354  1.00  0.00     0.140 OA 
BRANCH  33  36
HETATM   36  C   UNL     1     -11.847  14.869  70.299  1.00  0.00    -0.307 A  
HETATM   37  C   UNL     1     -11.653  15.160  68.956  1.00  0.00    -0.330 A  
HETATM   38  N   UNL     1     -11.092  16.401  68.897  1.00  0.00    -0.335 NA 
HETATM   39  N   UNL     1     -10.921  16.962  70.097  1.00  0.00    -0.002 NA 
HETATM   40  C   UNL     1     -10.721  17.182  67.741  1.00  0.00    -0.329 C  
HETATM   41  C   UNL     1     -11.437  16.078  70.963  1.00  0.00    -0.417 A  
HETATM   42  C   UNL     1     -11.539  16.569  72.367  1.00  0.00    -0.210 C  
ENDBRANCH  33  36
ENDBRANCH  31  33
ENDBRANCH  13  29
ENDBRANCH   4   9
TORSDOF 8
ENDMDL
MODEL      168
REMARK 921   NORMALIZED FREE ENERGY PREDICTED BY IDOCK:   -2.49 KCAL/MOL
REMARK 922        TOTAL FREE ENERGY PREDICTED BY IDOCK:   -5.28 KCAL/MOL
REMARK 923 INTER-LIGAND FREE ENERGY PREDICTED BY IDOCK:   -6.97 KCAL/MOL
REMARK 924 INTRA-LIGAND FREE ENERGY PREDICTED BY IDOCK:    1.69 KCAL/MOL
REMARK 927      BINDING AFFINITY PREDICTED BY RF-SCORE:    0.00 PKD
ROOT
HETATM    1  C   UNL     1      -9.115   8.965  65.107  1.00  0.00    -0.157 C  
HETATM    2  C   UNL     1      -7.855   9.310  65.900  1.00  0.00    -0.099 C  
HETATM    3  C   UNL     1      -7.876   8.678  67.288  1.00  0.00    -0.097 C  
HETATM    4  N   UNL     1      -8.454   9.693  68.174  1.00  0.00    -0.118 NA 
HETATM    5  C   UNL     1      -6.904  11.570  68.452  1.00  0.00    -0.070 C  
HETATM    6  C   UNL     1      -8.105  11.058  67.635  1.00  0.00    -0.116 C  
HETATM    7  C   UNL     1      -7.707  10.809  66.153  1.00  0.00    -0.149 C  
HETATM    8  C   UNL     1      -9.138  12.190  67.633  1.00  0.00    -0.181 C  
ENDROOT
BRANCH   4   9
HETATM    9  C   UNL     1      -9.542   9.387  68.973  1.00  0.00    -0.164 A  
HETATM   10  N   UNL     1     -10.278  10.475  69.376  1.00  0.00    -0.228 NA 
HETATM   11  C   UNL     1     -11.418  10.376  70.117  1.00  0.00    -0.319 A  
HETATM   12  C   UNL     1     -11.893   9.146  70.505  1.00  0.00    -0.137 A  
HETATM   13  C   UNL     1      -9.967   8.094  69.358  1.00  0.00    -0.188 A  
HETATM   14  C   UNL     1     -11.167   8.013  70.114  1.00  0.00    -0.145 A  
BRANCH  11  15
HETATM   15  N   UNL     1     -12.134  11.584  70.476  1.00  0.00    -0.375 NA 
HETATM   16  C   UNL     1     -12.240  12.726  69.692  1.00  0.00    -0.126 A  
HETATM   17  C   UNL     1     -12.976  13.645  70.393  1.00  0.00    -0.001 A  
HETATM   18  N   UNL     1     -12.823  11.744  71.660  1.00  0.00    -0.367 NA 
HETATM   19  C   UNL     1     -13.297  12.994  71.586  1.00  0.00    -0.292 A  
BRANCH  19  20
HETATM   20  O   UNL     1     -14.019  13.576  72.569  1.00  0.00    -0.701 OA 
BRANCH  20  21
HETATM   21  C   UNL     1     -14.034  15.002  72.591  1.00  0.00    -0.394 C  
BRANCH  21  22
HETATM   22  C   UNL     1     -12.669  15.531  73.111  1.00  0.00    -0.591 C  
HETATM   23  F   UNL     1     -10.718  15.455  71.713  1.00  0.00    -0.342 F  
HETATM   24  F   UNL     1     -12.574  16.071  70.771  1.00  0.00    -0.441 F  
HETATM   25  C   UNL     1     -11.868  14.388  73.768  1.00  0.00     0.434 C  
HETATM   26  C   UNL     1     -12.891  16.614  74.188  1.00  0.00    -0.001 C  
HETATM   27  C   UNL     1     -11.877  16.119  71.928  1.00  0.00    -0.525 C  
HETATM   28  F   UNL     1     -11.548  17.416  72.130  1.00  0.00    -0.045 F  
ENDBRANCH  21  22
ENDBRANCH  20  21
ENDBRANCH  19  20
ENDBRANCH  11  15
BRANCH  13  29
HETATM   29  C   UNL     1      -9.362   6.728  69.073  1.00  0.00    -0.134 C  
HETATM   30  H   UNL     1      -9.069   6.250  71.080  1.00  0.00     0.000 HD 
HETATM   31  N   UNL     1      -8.872   5.936  70.130  1.00  0.00    -0.140 N  
HETATM   32  O   UNL     1      -9.402   6.296  67.928  1.00  0.00    -0.117 OA 
BRANCH  31  33
HETATM   33  S   UNL     1      -7.979   4.502  69.954  1.00  0.00    -0.060 S  
HETATM   34  O   UNL     1      -8.714   3.637  69.066  1.00  0.00    -0.080 OA 
HETATM   35  O   UNL     1      -6.650   4.953  69.590  1.00  0.00    -0.037 OA 
BRANCH  33  36
HETATM   36  C   UNL     1      -7.717   3.539  71.382  1.00  0.00    -0.056 A  
HETATM   37  C   UNL     1      -6.496   3.076  71.853  1.00  0.00    -0.015 A  
HETATM   38  N   UNL     1      -6.736   2.470  73.050  1.00  0.00    -0.025 NA 
HETATM   39  N   UNL     1      -8.020   2.515  73.418  1.00  0.00    -0.057 NA 
HETATM   40  C   UNL     1      -5.806   1.853  73.965  1.00  0.00     0.000 C  
HETATM   41  C   UNL     1      -8.626   3.222  72.452  1.00  0.00    -0.083 A  
HETATM   42  C   UNL     1     -10.045   3.577  72.739  1.00  0.00    -0.229 C  
ENDBRANCH  33  36
ENDBRANCH  31  33
ENDBRANCH  13  29
ENDBRANCH   4   9
TORSDOF 8
ENDMDL
MODEL      169
REMARK 921   NORMALIZED FREE ENERGY PREDICTED BY IDOCK:   -2.14 KCAL/MOL
REMARK 922        TOTAL FREE ENERGY PREDICTED BY IDOCK:   -4.77 KCAL/MOL
REMARK 923 INTER-LIGAND FREE ENERGY PREDICTED BY IDOCK:   -5.40 KCAL/MOL
REMARK 924 INTRA-LIGAND FREE ENERGY PREDICTED BY IDOCK:    0.63 KCAL/MOL
REMARK 927      BINDING AFFINITY PREDICTED BY RF-SCORE:    0.00 PKD
ROOT
HETATM    1  C   UNL     1      -8.122  13.999  68.973  1.00  0.00     0.087 C  
HETATM    2  C   UNL     1      -8.039  13.387  67.574  1.00  0.00    -0.183 C  
HETATM    3  C   UNL     1      -9.262  12.529  67.267  1.00  0.00    -0.190 C  
HETATM    4  N   UNL     1      -8.893  11.163  67.653  1.00  0.00    -0.135 NA 
HETATM    5  C   UNL     1      -7.199  10.269  66.126  1.00  0.00    -0.121 C  
HETATM    6  C   UNL     1      -7.405  10.996  67.468  1.00  0.00    -0.101 C  
HETATM    7  C   UNL     1      -6.848  12.446  67.409  1.00  0.00    -0.147 C  
HETATM    8  C   UNL     1      -6.564  10.239  68.501  1.00  0.00    -0.052 C  
ENDROOT
BRANCH   4   9
HETATM    9  C   UNL     1      -9.690  10.442  68.525  1.00  0.00    -0.168 A  
HETATM   10  N   UNL     1      -9.301   9.138  68.710  1.00  0.00    -0.139 NA 
HETATM   11  C   UNL     1      -9.922   8.285  69.574  1.00  0.00    -0.187 A  
HETATM   12  C   UNL     1     -10.998   8.707  70.318  1.00  0.00    -0.251 A  
HETATM   13  C   UNL     1     -10.805  10.932  69.246  1.00  0.00    -0.286 A  
HETATM   14  C   UNL     1     -11.425  10.032  70.154  1.00  0.00    -0.344 A  
BRANCH  11  15
HETATM   15  N   UNL     1      -9.421   6.932  69.712  1.00  0.00    -0.146 NA 
HETATM   16  C   UNL     1      -8.992   6.344  70.894  1.00  0.00    -0.144 A  
HETATM   17  C   UNL     1      -8.577   5.071  70.600  1.00  0.00    -0.125 A  
HETATM   18  N   UNL     1      -9.321   6.041  68.664  1.00  0.00    -0.118 NA 
HETATM   19  C   UNL     1      -8.794   4.946  69.226  1.00  0.00    -0.088 A  
BRANCH  19  20
HETATM   20  O   UNL     1      -8.500   3.822  68.536  1.00  0.00    -0.083 OA 
BRANCH  20  21
HETATM   21  C   UNL     1      -9.564   3.237  67.787  1.00  0.00    -0.088 C  
BRANCH  21  22
HETATM   22  C   UNL     1      -9.229   3.294  66.271  1.00  0.00    -0.154 C  
HETATM   23  F   UNL     1     -10.935   3.809  64.662  1.00  0.00    -0.219 F  
HETATM   24  F   UNL     1     -10.923   4.984  66.488  1.00  0.00    -0.307 F  
HETATM   25  C   UNL     1      -9.462   1.914  65.621  1.00  0.00     0.189 C  
HETATM   26  C   UNL     1      -7.741   3.652  66.065  1.00  0.00    -0.089 C  
HETATM   27  C   UNL     1     -10.123   4.352  65.599  1.00  0.00    -0.241 C  
HETATM   28  F   UNL     1      -9.399   5.311  64.977  1.00  0.00    -0.142 F  
ENDBRANCH  21  22
ENDBRANCH  20  21
ENDBRANCH  19  20
ENDBRANCH  11  15
BRANCH  13  29
HETATM   29  C   UNL     1     -11.462  12.303  69.243  1.00  0.00    -0.292 C  
HETATM   30  H   UNL     1      -9.794  13.292  70.007  1.00  0.00     0.000 HD 
HETATM   31  N   UNL     1     -10.777  13.418  69.767  1.00  0.00     0.345 N  
HETATM   32  O   UNL     1     -12.546  12.432  68.691  1.00  0.00     0.257 OA 
BRANCH  31  33
HETATM   33  S   UNL     1     -11.454  14.953  70.034  1.00  0.00    -0.291 S  
HETATM   34  O   UNL     1     -10.424  15.931  69.792  1.00  0.00    -0.273 OA 
HETATM   35  O   UNL     1     -12.659  14.955  69.228  1.00  0.00    -0.056 OA 
BRANCH  33  36
HETATM   36  C   UNL     1     -12.025  15.310  71.641  1.00  0.00    -0.372 A  
HETATM   37  C   UNL     1     -11.960  16.538  72.285  1.00  0.00    -0.289 A  
HETATM   38  N   UNL     1     -12.621  16.400  73.469  1.00  0.00    -0.473 NA 
HETATM   39  N   UNL     1     -13.138  15.180  73.648  1.00  0.00    -0.474 NA 
HETATM   40  C   UNL     1     -12.873  17.382  74.496  1.00  0.00     1.516 C  
HETATM   41  C   UNL     1     -12.848  14.519  72.517  1.00  0.00    -0.386 A  
HETATM   42  C   UNL     1     -13.494  13.181  72.396  1.00  0.00    -0.643 C  
ENDBRANCH  33  36
ENDBRANCH  31  33
ENDBRANCH  13  29
ENDBRANCH   4   9
TORSDOF 8
ENDMDL
MODEL      170
REMARK 921   NORMALIZED FREE ENERGY PREDICTED BY IDOCK:   -1.89 KCAL/MOL
REMARK 922        TOTAL FREE ENERGY PREDICTED BY IDOCK:   -4.41 KCAL/MOL
REMARK 923 INTER-LIGAND FREE ENERGY PREDICTED BY IDOCK:   -4.69 KCAL/MOL
REMARK 924 INTRA-LIGAND FREE ENERGY PREDICTED BY IDOCK:    0.28 KCAL/MOL
REMARK 927      BINDING AFFINITY PREDICTED BY RF-SCORE:    0.00 PKD
ROOT
HETATM    1  C   UNL     1      -6.472  15.515  67.260  1.00  0.00    -0.049 C  
HETATM    2  C   UNL     1      -5.572  14.308  67.526  1.00  0.00     0.168 C  
HETATM    3  C   UNL     1      -6.289  12.997  67.219  1.00  0.00     0.047 C  
HETATM    4  N   UNL     1      -6.882  12.566  68.490  1.00  0.00    -0.076 NA 
HETATM    5  C   UNL     1      -5.134  11.878  70.061  1.00  0.00    -0.076 C  
HETATM    6  C   UNL     1      -6.014  13.062  69.619  1.00  0.00    -0.118 C  
HETATM    7  C   UNL     1      -5.153  14.193  68.990  1.00  0.00    -0.075 C  
HETATM    8  C   UNL     1      -6.637  13.635  70.896  1.00  0.00     0.762 C  
ENDROOT
BRANCH   4   9
HETATM    9  C   UNL     1      -8.234  12.276  68.569  1.00  0.00    -0.096 A  
HETATM   10  N   UNL     1      -8.519  10.977  68.910  1.00  0.00    -0.148 NA 
HETATM   11  C   UNL     1      -9.788  10.512  69.096  1.00  0.00    -0.218 A  
HETATM   12  C   UNL     1     -10.867  11.350  68.943  1.00  0.00    -0.259 A  
HETATM   13  C   UNL     1      -9.302  13.183  68.375  1.00  0.00    -0.154 A  
HETATM   14  C   UNL     1     -10.614  12.683  68.591  1.00  0.00    -0.245 A  
BRANCH  11  15
HETATM   15  N   UNL     1      -9.984   9.127  69.476  1.00  0.00    -0.182 NA 
HETATM   16  C   UNL     1     -11.176   8.422  69.381  1.00  0.00     0.227 A  
HETATM   17  C   UNL     1     -10.952   7.158  69.858  1.00  0.00    -0.278 A  
HETATM   18  N   UNL     1      -8.984   8.321  69.977  1.00  0.00    -0.141 NA 
HETATM   19  C   UNL     1      -9.602   7.157  70.214  1.00  0.00    -0.169 A  
BRANCH  19  20
HETATM   20  O   UNL     1      -8.983   6.079  70.744  1.00  0.00    -0.146 OA 
BRANCH  20  21
HETATM   21  C   UNL     1      -8.072   5.384  69.893  1.00  0.00    -0.088 C  
BRANCH  21  22
HETATM   22  C   UNL     1      -8.375   3.861  69.935  1.00  0.00    -0.079 C  
HETATM   23  F   UNL     1     -10.367   2.985  68.921  1.00  0.00     0.450 F  
HETATM   24  F   UNL     1      -9.294   4.511  67.812  1.00  0.00    -0.130 F  
HETATM   25  C   UNL     1      -9.224   3.519  71.177  1.00  0.00    -0.192 C  
HETATM   26  C   UNL     1      -7.061   3.058  70.043  1.00  0.00    -0.040 C  
HETATM   27  C   UNL     1      -9.131   3.466  68.653  1.00  0.00    -0.150 C  
HETATM   28  F   UNL     1      -8.483   2.503  67.956  1.00  0.00    -0.073 F  
ENDBRANCH  21  22
ENDBRANCH  20  21
ENDBRANCH  19  20
ENDBRANCH  11  15
BRANCH  13  29
HETATM   29  C   UNL     1      -9.294  14.655  67.991  1.00  0.00    -0.198 C  
HETATM   30  H   UNL     1     -10.305  14.366  66.192  1.00  0.00     0.000 HD 
HETATM   31  N   UNL     1      -9.809  15.064  66.745  1.00  0.00    -0.237 N  
HETATM   32  O   UNL     1      -8.925  15.475  68.821  1.00  0.00    -0.178 OA 
BRANCH  31  33
HETATM   33  S   UNL     1      -9.671  16.624  66.088  1.00  0.00    -0.290 S  
HETATM   34  O   UNL     1      -8.325  16.774  65.597  1.00  0.00    -0.333 OA 
HETATM   35  O   UNL     1     -10.792  16.724  65.172  1.00  0.00    -0.584 OA 
BRANCH  33  36
HETATM   36  C   UNL     1      -9.893  17.973  67.169  1.00  0.00    -0.316 A  
HETATM   37  C   UNL     1      -9.690  17.972  68.542  1.00  0.00    -0.352 A  
HETATM   38  N   UNL     1      -9.865  19.254  68.970  1.00  0.00    -0.427 NA 
HETATM   39  N   UNL     1     -10.148  20.108  67.982  1.00  0.00    -0.409 NA 
HETATM   40  C   UNL     1      -9.738  19.799  70.300  1.00  0.00     0.845 C  
HETATM   41  C   UNL     1     -10.102  19.365  66.866  1.00  0.00    -0.388 A  
HETATM   42  C   UNL     1     -10.194  20.141  65.597  1.00  0.00    -0.294 C  
ENDBRANCH  33  36
ENDBRANCH  31  33
ENDBRANCH  13  29
ENDBRANCH   4   9
TORSDOF 8
ENDMDL
MODEL      171
REMARK 921   NORMALIZED FREE ENERGY PREDICTED BY IDOCK:   -1.43 KCAL/MOL
REMARK 922        TOTAL FREE ENERGY PREDICTED BY IDOCK:   -3.73 KCAL/MOL
REMARK 923 INTER-LIGAND FREE ENERGY PREDICTED BY IDOCK:   -5.74 KCAL/MOL
REMARK 924 INTRA-LIGAND FREE ENERGY PREDICTED BY IDOCK:    2.01 KCAL/MOL
REMARK 927      BINDING AFFINITY PREDICTED BY RF-SCORE:    0.00 PKD
ROOT
HETATM    1  C   UNL     1      -7.728  14.807  67.218  1.00  0.00    -0.214 C  
HETATM    2  C   UNL     1      -7.753  13.578  68.126  1.00  0.00    -0.139 C  
HETATM    3  C   UNL     1      -7.538  12.293  67.334  1.00  0.00    -0.159 C  
HETATM    4  N   UNL     1      -8.880  11.807  66.997  1.00  0.00    -0.176 NA 
HETATM    5  C   UNL     1     -10.036  11.022  69.009  1.00  0.00    -0.197 C  
HETATM    6  C   UNL     1      -9.833  12.237  68.084  1.00  0.00    -0.212 C  
HETATM    7  C   UNL     1      -9.097  13.387  68.826  1.00  0.00     0.115 C  
HETATM    8  C   UNL     1     -11.234  12.755  67.741  1.00  0.00    -0.317 C  
ENDROOT
BRANCH   4   9
HETATM    9  C   UNL     1      -9.215  11.530  65.683  1.00  0.00    -0.170 A  
HETATM   10  N   UNL     1      -8.786  10.306  65.231  1.00  0.00    -0.164 NA 
HETATM   11  C   UNL     1      -9.067   9.826  63.986  1.00  0.00    -0.237 A  
HETATM   12  C   UNL     1      -9.814  10.570  63.104  1.00  0.00    -0.295 A  
HETATM   13  C   UNL     1      -9.970  12.353  64.816  1.00  0.00    -0.196 A  
HETATM   14  C   UNL     1     -10.268  11.826  63.530  1.00  0.00    -0.483 A  
BRANCH  11  15
HETATM   15  N   UNL     1      -8.584   8.512  63.610  1.00  0.00    -0.019 NA 
HETATM   16  C   UNL     1      -8.637   7.964  62.336  1.00  0.00     0.044 A  
HETATM   17  C   UNL     1      -8.102   6.704  62.401  1.00  0.00    -0.088 A  
HETATM   18  N   UNL     1      -7.987   7.634  64.490  1.00  0.00    -0.139 NA 
HETATM   19  C   UNL     1      -7.731   6.555  63.739  1.00  0.00    -0.108 A  
BRANCH  19  20
HETATM   20  O   UNL     1      -7.163   5.429  64.223  1.00  0.00    -0.052 OA 
BRANCH  20  21
HETATM   21  C   UNL     1      -6.725   5.467  65.580  1.00  0.00    -0.045 C  
BRANCH  21  22
HETATM   22  C   UNL     1      -7.494   4.401  66.409  1.00  0.00    -0.082 C  
HETATM   23  F   UNL     1      -8.896   2.786  65.317  1.00  0.00    -0.107 F  
HETATM   24  F   UNL     1      -6.983   3.212  64.384  1.00  0.00    -0.046 F  
HETATM   25  C   UNL     1      -8.900   4.921  66.775  1.00  0.00    -0.110 C  
HETATM   26  C   UNL     1      -6.752   4.115  67.732  1.00  0.00    -0.050 C  
HETATM   27  C   UNL     1      -7.608   3.109  65.578  1.00  0.00    -0.077 C  
HETATM   28  F   UNL     1      -7.063   2.046  66.214  1.00  0.00    -0.046 F  
ENDBRANCH  21  22
ENDBRANCH  20  21
ENDBRANCH  19  20
ENDBRANCH  11  15
BRANCH  13  29
HETATM   29  C   UNL     1     -10.565  13.736  65.031  1.00  0.00    -0.389 C  
HETATM   30  H   UNL     1      -8.730  14.721  64.975  1.00  0.00     0.000 HD 
HETATM   31  N   UNL     1      -9.722  14.856  65.168  1.00  0.00    -0.129 N  
HETATM   32  O   UNL     1     -11.781  13.865  64.984  1.00  0.00    -0.331 OA 
BRANCH  31  33
HETATM   33  S   UNL     1     -10.220  16.414  65.628  1.00  0.00    -0.278 S  
HETATM   34  O   UNL     1      -9.079  17.287  65.520  1.00  0.00    -0.306 OA 
HETATM   35  O   UNL     1     -11.400  16.661  64.823  1.00  0.00    -0.465 OA 
BRANCH  33  36
HETATM   36  C   UNL     1     -10.779  16.627  67.265  1.00  0.00    -0.227 A  
HETATM   37  C   UNL     1     -10.815  15.657  68.257  1.00  0.00    -0.298 A  
HETATM   38  N   UNL     1     -11.209  16.278  69.404  1.00  0.00    -0.326 NA 
HETATM   39  N   UNL     1     -11.414  17.590  69.253  1.00  0.00     1.274 NA 
HETATM   40  C   UNL     1     -11.375  15.731  70.730  1.00  0.00    -0.390 C  
HETATM   41  C   UNL     1     -11.092  17.839  67.975  1.00  0.00     0.100 A  
HETATM   42  C   UNL     1     -11.054  19.285  67.614  1.00  0.00    -0.211 C  
ENDBRANCH  33  36
ENDBRANCH  31  33
ENDBRANCH  13  29
ENDBRANCH   4   9
TORSDOF 8
ENDMDL
MODEL      172
REMARK 921   NORMALIZED FREE ENERGY PREDICTED BY IDOCK:   -0.57 KCAL/MOL
REMARK 922        TOTAL FREE ENERGY PREDICTED BY IDOCK:   -2.47 KCAL/MOL
REMARK 923 INTER-LIGAND FREE ENERGY PREDICTED BY IDOCK:   -5.05 KCAL/MOL
REMARK 924 INTRA-LIGAND FREE ENERGY PREDICTED BY IDOCK:    2.59 KCAL/MOL
REMARK 927      BINDING AFFINITY PREDICTED BY RF-SCORE:    0.00 PKD
ROOT
HETATM    1  C   UNL     1     -10.114  10.907  64.719  1.00  0.00    -0.383 C  
HETATM    2  C   UNL     1     -10.714  10.363  66.015  1.00  0.00    -0.052 C  
HETATM    3  C   UNL     1     -10.064  10.997  67.241  1.00  0.00    -0.189 C  
HETATM    4  N   UNL     1      -8.972  10.095  67.620  1.00  0.00    -0.131 NA 
HETATM    5  C   UNL     1      -9.864   7.990  68.501  1.00  0.00    -0.185 C  
HETATM    6  C   UNL     1      -9.351   8.689  67.227  1.00  0.00    -0.152 C  
HETATM    7  C   UNL     1     -10.492   8.862  66.187  1.00  0.00     0.281 C  
HETATM    8  C   UNL     1      -8.320   7.742  66.603  1.00  0.00    -0.126 C  
ENDROOT
BRANCH   4   9
HETATM    9  C   UNL     1      -7.683  10.580  67.768  1.00  0.00    -0.093 A  
HETATM   10  N   UNL     1      -7.561  11.937  67.599  1.00  0.00    -0.126 NA 
HETATM   11  C   UNL     1      -6.387  12.610  67.763  1.00  0.00    -0.130 A  
HETATM   12  C   UNL     1      -5.240  11.938  68.112  1.00  0.00    -0.046 A  
HETATM   13  C   UNL     1      -6.535   9.827  68.108  1.00  0.00    -0.056 A  
HETATM   14  C   UNL     1      -5.326  10.550  68.291  1.00  0.00    -0.033 A  
BRANCH  11  15
HETATM   15  N   UNL     1      -6.366  14.048  67.581  1.00  0.00    -0.279 NA 
HETATM   16  C   UNL     1      -5.538  14.937  68.253  1.00  0.00    -0.116 A  
HETATM   17  C   UNL     1      -5.840  16.200  67.816  1.00  0.00    -0.157 A  
HETATM   18  N   UNL     1      -7.175  14.720  66.690  1.00  0.00     0.523 NA 
HETATM   19  C   UNL     1      -6.850  16.006  66.870  1.00  0.00    -0.054 A  
BRANCH  19  20
HETATM   20  O   UNL     1      -7.436  17.024  66.203  1.00  0.00    -0.293 OA 
BRANCH  20  21
HETATM   21  C   UNL     1      -7.949  18.095  66.994  1.00  0.00    -0.225 C  
BRANCH  21  22
HETATM   22  C   UNL     1      -9.277  17.656  67.669  1.00  0.00    -0.245 C  
HETATM   23  F   UNL     1     -10.229  18.957  69.449  1.00  0.00    -0.387 F  
HETATM   24  F   UNL     1      -9.419  20.053  67.759  1.00  0.00    -0.407 F  
HETATM   25  C   UNL     1      -8.985  16.761  68.891  1.00  0.00    -0.227 C  
HETATM   26  C   UNL     1     -10.128  16.826  66.685  1.00  0.00    -0.304 C  
HETATM   27  C   UNL     1     -10.054  18.912  68.108  1.00  0.00    -0.388 C  
HETATM   28  F   UNL     1     -11.287  18.967  67.554  1.00  0.00    -0.434 F  
ENDBRANCH  21  22
ENDBRANCH  20  21
ENDBRANCH  19  20
ENDBRANCH  11  15
BRANCH  13  29
HETATM   29  C   UNL     1      -6.364   8.334  68.347  1.00  0.00    -0.054 C  
HETATM   30  H   UNL     1      -7.872   8.218  69.781  1.00  0.00     0.000 HD 
HETATM   31  N   UNL     1      -7.121   7.685  69.342  1.00  0.00    -0.073 N  
HETATM   32  O   UNL     1      -5.634   7.700  67.597  1.00  0.00    -0.033 OA 
BRANCH  31  33
HETATM   33  S   UNL     1      -6.887   6.089  69.873  1.00  0.00    -0.066 S  
HETATM   34  O   UNL     1      -8.096   5.355  69.594  1.00  0.00    -0.096 OA 
HETATM   35  O   UNL     1      -5.638   5.688  69.255  1.00  0.00    -0.007 OA 
BRANCH  33  36
HETATM   36  C   UNL     1      -6.610   5.841  71.575  1.00  0.00    -0.053 A  
HETATM   37  C   UNL     1      -6.255   4.647  72.188  1.00  0.00    -0.021 A  
HETATM   38  N   UNL     1      -6.028   4.928  73.502  1.00  0.00    -0.025 NA 
HETATM   39  N   UNL     1      -6.183   6.222  73.802  1.00  0.00    -0.064 NA 
HETATM   40  C   UNL     1      -5.604   4.049  74.566  1.00  0.00    -0.004 C  
HETATM   41  C   UNL     1      -6.470   6.810  72.631  1.00  0.00    -0.058 A  
HETATM   42  C   UNL     1      -6.497   8.299  72.673  1.00  0.00    -0.091 C  
ENDBRANCH  33  36
ENDBRANCH  31  33
ENDBRANCH  13  29
ENDBRANCH   4   9
TORSDOF 8
ENDMDL
MODEL      173
REMARK 921   NORMALIZED FREE ENERGY PREDICTED BY IDOCK:    0.97 KCAL/MOL
REMARK 922        TOTAL FREE ENERGY PREDICTED BY IDOCK:   -0.20 KCAL/MOL
REMARK 923 INTER-LIGAND FREE ENERGY PREDICTED BY IDOCK:   -2.15 KCAL/MOL
REMARK 924 INTRA-LIGAND FREE ENERGY PREDICTED BY IDOCK:    1.95 KCAL/MOL
REMARK 927      BINDING AFFINITY PREDICTED BY RF-SCORE:    0.00 PKD
ROOT
HETATM    1  C   UNL     1      -8.510  14.527  68.594  1.00  0.00    -0.161 C  
HETATM    2  C   UNL     1      -9.258  14.324  67.277  1.00  0.00    -0.218 C  
HETATM    3  C   UNL     1     -10.477  13.426  67.459  1.00  0.00    -0.236 C  
HETATM    4  N   UNL     1     -10.014  12.067  67.159  1.00  0.00    -0.195 NA 
HETATM    5  C   UNL     1      -9.520  11.839  64.770  1.00  0.00    -0.031 C  
HETATM    6  C   UNL     1      -8.900  12.152  66.145  1.00  0.00     0.029 C  
HETATM    7  C   UNL     1      -8.411  13.625  66.216  1.00  0.00     0.704 C  
HETATM    8  C   UNL     1      -7.657  11.265  66.268  1.00  0.00    -0.032 C  
ENDROOT
BRANCH   4   9
HETATM    9  C   UNL     1     -10.210  11.043  68.069  1.00  0.00    -0.179 A  
HETATM   10  N   UNL     1      -9.445   9.925  67.844  1.00  0.00    -0.134 NA 
HETATM   11  C   UNL     1      -9.452   8.835  68.663  1.00  0.00    -0.141 A  
HETATM   12  C   UNL     1     -10.250   8.807  69.782  1.00  0.00    -0.205 A  
HETATM   13  C   UNL     1     -11.069  11.069  69.193  1.00  0.00    -0.301 A  
HETATM   14  C   UNL     1     -11.047   9.931  70.042  1.00  0.00    -0.335 A  
BRANCH  11  15
HETATM   15  N   UNL     1      -8.591   7.711  68.349  1.00  0.00    -0.125 NA 
HETATM   16  C   UNL     1      -7.437   7.359  69.035  1.00  0.00    -0.100 A  
HETATM   17  C   UNL     1      -6.904   6.258  68.417  1.00  0.00    -0.071 A  
HETATM   18  N   UNL     1      -8.829   6.828  67.317  1.00  0.00    -0.117 NA 
HETATM   19  C   UNL     1      -7.791   5.985  67.373  1.00  0.00    -0.102 A  
BRANCH  19  20
HETATM   20  O   UNL     1      -7.613   4.963  66.507  1.00  0.00    -0.086 OA 
BRANCH  20  21
HETATM   21  C   UNL     1      -8.744   4.128  66.266  1.00  0.00    -0.115 C  
BRANCH  21  22
HETATM   22  C   UNL     1      -8.706   3.604  64.804  1.00  0.00    -0.114 C  
HETATM   23  F   UNL     1      -6.609   3.264  63.684  1.00  0.00    -0.027 F  
HETATM   24  F   UNL     1      -6.729   2.624  65.755  1.00  0.00    -0.038 F  
HETATM   25  C   UNL     1      -8.694   4.787  63.813  1.00  0.00    -0.131 C  
HETATM   26  C   UNL     1      -9.967   2.767  64.503  1.00  0.00     0.010 C  
HETATM   27  C   UNL     1      -7.444   2.743  64.614  1.00  0.00    -0.074 C  
HETATM   28  F   UNL     1      -7.741   1.487  64.207  1.00  0.00    -0.054 F  
ENDBRANCH  21  22
ENDBRANCH  20  21
ENDBRANCH  19  20
ENDBRANCH  11  15
BRANCH  13  29
HETATM   29  C   UNL     1     -12.024  12.146  69.685  1.00  0.00    -0.284 C  
HETATM   30  H   UNL     1     -11.194  13.657  68.515  1.00  0.00     0.000 HD 
HETATM   31  N   UNL     1     -11.867  13.480  69.260  1.00  0.00    -0.323 N  
HETATM   32  O   UNL     1     -12.980  11.812  70.373  1.00  0.00     0.067 OA 
BRANCH  31  33
HETATM   33  S   UNL     1     -12.706  14.818  69.886  1.00  0.00     0.023 S  
HETATM   34  O   UNL     1     -12.204  15.996  69.225  1.00  0.00    -0.226 OA 
HETATM   35  O   UNL     1     -14.103  14.454  69.756  1.00  0.00     2.407 OA 
BRANCH  33  36
HETATM   36  C   UNL     1     -12.519  15.159  71.585  1.00  0.00    -0.350 A  
HETATM   37  C   UNL     1     -11.884  16.263  72.140  1.00  0.00    -0.499 A  
HETATM   38  N   UNL     1     -12.071  16.190  73.488  1.00  0.00    -0.471 NA 
HETATM   39  N   UNL     1     -12.798  15.135  73.866  1.00  0.00    -0.481 NA 
HETATM   40  C   UNL     1     -11.643  17.103  74.520  1.00  0.00     0.603 C  
HETATM   41  C   UNL     1     -13.142  14.530  72.719  1.00  0.00    -0.497 A  
HETATM   42  C   UNL     1     -14.128  13.423  72.871  1.00  0.00     0.456 C  
ENDBRANCH  33  36
ENDBRANCH  31  33
ENDBRANCH  13  29
ENDBRANCH   4   9
TORSDOF 8
ENDMDL
MODEL      174
REMARK 921   NORMALIZED FREE ENERGY PREDICTED BY IDOCK:    2.76 KCAL/MOL
REMARK 922        TOTAL FREE ENERGY PREDICTED BY IDOCK:    2.42 KCAL/MOL
REMARK 923 INTER-LIGAND FREE ENERGY PREDICTED BY IDOCK:   -4.05 KCAL/MOL
REMARK 924 INTRA-LIGAND FREE ENERGY PREDICTED BY IDOCK:    6.46 KCAL/MOL
REMARK 927      BINDING AFFINITY PREDICTED BY RF-SCORE:    0.00 PKD
ROOT
HETATM    1  C   UNL     1     -11.871  12.189  65.982  1.00  0.00    -0.328 C  
HETATM    2  C   UNL     1     -10.361  12.203  66.216  1.00  0.00    -0.250 C  
HETATM    3  C   UNL     1     -10.024  12.103  67.700  1.00  0.00    -0.197 C  
HETATM    4  N   UNL     1      -9.894  13.487  68.169  1.00  0.00    -0.231 NA 
HETATM    5  C   UNL     1      -7.889  14.528  67.222  1.00  0.00    -0.199 C  
HETATM    6  C   UNL     1      -9.405  14.339  67.025  1.00  0.00    -0.241 C  
HETATM    7  C   UNL     1      -9.702  13.500  65.750  1.00  0.00    -0.156 C  
HETATM    8  C   UNL     1      -9.985  15.736  66.782  1.00  0.00    -0.260 C  
ENDROOT
BRANCH   4   9
HETATM    9  C   UNL     1     -10.626  13.928  69.258  1.00  0.00    -0.034 A  
HETATM   10  N   UNL     1     -11.340  12.947  69.901  1.00  0.00    -0.051 NA 
HETATM   11  C   UNL     1     -12.074  13.170  71.028  1.00  0.00    -0.020 A  
HETATM   12  C   UNL     1     -12.135  14.426  71.584  1.00  0.00    -0.339 A  
HETATM   13  C   UNL     1     -10.664  15.247  69.767  1.00  0.00    -0.295 A  
HETATM   14  C   UNL     1     -11.421  15.454  70.952  1.00  0.00    -0.396 A  
BRANCH  11  15
HETATM   15  N   UNL     1     -12.777  12.062  71.645  1.00  0.00    -0.274 NA 
HETATM   16  C   UNL     1     -13.606  12.147  72.756  1.00  0.00     1.026 A  
HETATM   17  C   UNL     1     -14.056  10.884  73.036  1.00  0.00     2.367 A  
HETATM   18  N   UNL     1     -12.716  10.764  71.184  1.00  0.00    -0.398 NA 
HETATM   19  C   UNL     1     -13.476  10.083  72.051  1.00  0.00    -0.347 A  
BRANCH  19  20
HETATM   20  O   UNL     1     -13.668   8.747  71.982  1.00  0.00    -0.389 OA 
BRANCH  20  21
HETATM   21  C   UNL     1     -12.889   8.039  71.020  1.00  0.00     0.005 C  
BRANCH  21  22
HETATM   22  C   UNL     1     -11.380   8.174  71.367  1.00  0.00    -0.299 C  
HETATM   23  F   UNL     1     -10.422   6.897  73.161  1.00  0.00    -0.214 F  
HETATM   24  F   UNL     1     -11.819   5.863  71.859  1.00  0.00    -0.338 F  
HETATM   25  C   UNL     1     -11.175   9.263  72.441  1.00  0.00     0.398 C  
HETATM   26  C   UNL     1     -10.581   8.604  70.119  1.00  0.00    -0.235 C  
HETATM   27  C   UNL     1     -10.863   6.818  71.883  1.00  0.00    -0.232 C  
HETATM   28  F   UNL     1      -9.829   6.354  71.145  1.00  0.00    -0.181 F  
ENDBRANCH  21  22
ENDBRANCH  20  21
ENDBRANCH  19  20
ENDBRANCH  11  15
BRANCH  13  29
HETATM   29  C   UNL     1      -9.995  16.520  69.272  1.00  0.00    -0.244 C  
HETATM   30  H   UNL     1     -11.784  17.509  68.874  1.00  0.00     0.000 HD 
HETATM   31  N   UNL     1     -10.773  17.577  68.762  1.00  0.00    -0.227 N  
HETATM   32  O   UNL     1      -8.785  16.640  69.418  1.00  0.00    -0.104 OA 
BRANCH  31  33
HETATM   33  S   UNL     1     -10.167  18.956  67.977  1.00  0.00    -0.389 S  
HETATM   34  O   UNL     1     -10.826  19.055  66.700  1.00  0.00    -0.369 OA 
HETATM   35  O   UNL     1     -10.318  20.017  68.955  1.00  0.00    -0.411 OA 
BRANCH  33  36
HETATM   36  C   UNL     1      -8.467  18.980  67.594  1.00  0.00    -0.288 A  
HETATM   37  C   UNL     1      -7.563  17.944  67.790  1.00  0.00    -0.214 A  
HETATM   38  N   UNL     1      -6.379  18.345  67.248  1.00  0.00    -0.180 NA 
HETATM   39  N   UNL     1      -6.435  19.557  66.688  1.00  0.00    -0.185 NA 
HETATM   40  C   UNL     1      -5.127  17.631  67.156  1.00  0.00    -0.126 C  
HETATM   41  C   UNL     1      -7.715  19.935  66.825  1.00  0.00    -0.290 A  
HETATM   42  C   UNL     1      -8.075  21.187  66.100  1.00  0.00     1.091 C  
ENDBRANCH  33  36
ENDBRANCH  31  33
ENDBRANCH  13  29
ENDBRANCH   4   9
TORSDOF 8
ENDMDL
MODEL      175
REMARK 921   NORMALIZED FREE ENERGY PREDICTED BY IDOCK:    2.92 KCAL/MOL
REMARK 922        TOTAL FREE ENERGY PREDICTED BY IDOCK:    2.66 KCAL/MOL
REMARK 923 INTER-LIGAND FREE ENERGY PREDICTED BY IDOCK:    2.98 KCAL/MOL
REMARK 924 INTRA-LIGAND FREE ENERGY PREDICTED BY IDOCK:   -0.32 KCAL/MOL
REMARK 927      BINDING AFFINITY PREDICTED BY RF-SCORE:    0.00 PKD
ROOT
HETATM    1  C   UNL     1     -11.761  16.083  68.524  1.00  0.00    -0.244 C  
HETATM    2  C   UNL     1     -11.859  15.742  67.037  1.00  0.00     0.553 C  
HETATM    3  C   UNL     1     -12.246  14.282  66.823  1.00  0.00    -0.352 C  
HETATM    4  N   UNL     1     -10.979  13.554  66.689  1.00  0.00    -0.286 NA 
HETATM    5  C   UNL     1      -9.873  14.141  64.583  1.00  0.00     0.367 C  
HETATM    6  C   UNL     1      -9.954  14.480  66.084  1.00  0.00    -0.311 C  
HETATM    7  C   UNL     1     -10.530  15.907  66.304  1.00  0.00    -0.324 C  
HETATM    8  C   UNL     1      -8.511  14.499  66.599  1.00  0.00    -0.006 C  
ENDROOT
BRANCH   4   9
HETATM    9  C   UNL     1     -10.713  12.458  67.491  1.00  0.00    -0.228 A  
HETATM   10  N   UNL     1     -10.164  11.387  66.830  1.00  0.00    -0.216 NA 
HETATM   11  C   UNL     1      -9.778  10.238  67.454  1.00  0.00    -0.160 A  
HETATM   12  C   UNL     1      -9.928  10.099  68.814  1.00  0.00    -0.187 A  
HETATM   13  C   UNL     1     -10.914  12.370  68.888  1.00  0.00    -0.268 A  
HETATM   14  C   UNL     1     -10.488  11.171  69.522  1.00  0.00    -0.080 A  
BRANCH  11  15
HETATM   15  N   UNL     1      -9.189   9.171  66.670  1.00  0.00    -0.155 NA 
HETATM   16  C   UNL     1      -8.842   9.250  65.327  1.00  0.00    -0.198 A  
HETATM   17  C   UNL     1      -8.340   8.030  64.955  1.00  0.00    -0.108 A  
HETATM   18  N   UNL     1      -8.883   7.926  67.176  1.00  0.00    -0.130 NA 
HETATM   19  C   UNL     1      -8.397   7.263  66.119  1.00  0.00    -0.133 A  
BRANCH  19  20
HETATM   20  O   UNL     1      -7.994   5.973  66.170  1.00  0.00    -0.102 OA 
BRANCH  20  21
HETATM   21  C   UNL     1      -9.020   4.983  66.127  1.00  0.00    -0.131 C  
BRANCH  21  22
HETATM   22  C   UNL     1      -8.651   3.806  67.072  1.00  0.00    -0.110 C  
HETATM   23  F   UNL     1      -9.415   1.579  66.602  1.00  0.00    -0.078 F  
HETATM   24  F   UNL     1      -8.697   2.743  64.917  1.00  0.00    -0.099 F  
HETATM   25  C   UNL     1      -9.740   3.624  68.149  1.00  0.00    -0.089 C  
HETATM   26  C   UNL     1      -7.326   4.105  67.805  1.00  0.00    -0.068 C  
HETATM   27  C   UNL     1      -8.513   2.519  66.238  1.00  0.00    -0.099 C  
HETATM   28  F   UNL     1      -7.290   1.956  66.370  1.00  0.00    -0.055 F  
ENDBRANCH  21  22
ENDBRANCH  20  21
ENDBRANCH  19  20
ENDBRANCH  11  15
BRANCH  13  29
HETATM   29  C   UNL     1     -11.499  13.373  69.871  1.00  0.00    -0.111 C  
HETATM   30  H   UNL     1     -13.167  12.212  70.327  1.00  0.00     0.000 HD 
HETATM   31  N   UNL     1     -12.751  13.132  70.468  1.00  0.00    -0.136 N  
HETATM   32  O   UNL     1     -10.817  14.335  70.201  1.00  0.00     0.018 OA 
BRANCH  31  33
HETATM   33  S   UNL     1     -13.627  14.247  71.403  1.00  0.00    -0.289 S  
HETATM   34  O   UNL     1     -14.287  15.153  70.498  1.00  0.00     0.252 OA 
HETATM   35  O   UNL     1     -14.410  13.421  72.301  1.00  0.00    -0.500 OA 
BRANCH  33  36
HETATM   36  C   UNL     1     -12.722  15.284  72.472  1.00  0.00    -0.362 A  
HETATM   37  C   UNL     1     -12.641  16.668  72.406  1.00  0.00     0.630 A  
HETATM   38  N   UNL     1     -11.929  17.076  73.494  1.00  0.00    -0.111 NA 
HETATM   39  N   UNL     1     -11.551  16.069  74.288  1.00  0.00     0.501 NA 
HETATM   40  C   UNL     1     -11.587  18.414  73.915  1.00  0.00     1.942 C  
HETATM   41  C   UNL     1     -12.081  14.974  73.723  1.00  0.00    -0.446 A  
HETATM   42  C   UNL     1     -11.959  13.732  74.539  1.00  0.00     4.896 C  
ENDBRANCH  33  36
ENDBRANCH  31  33
ENDBRANCH  13  29
ENDBRANCH   4   9
TORSDOF 8
ENDMDL
MODEL      176
REMARK 921   NORMALIZED FREE ENERGY PREDICTED BY IDOCK:    4.72 KCAL/MOL
REMARK 922        TOTAL FREE ENERGY PREDICTED BY IDOCK:    5.29 KCAL/MOL
REMARK 923 INTER-LIGAND FREE ENERGY PREDICTED BY IDOCK:    5.50 KCAL/MOL
REMARK 924 INTRA-LIGAND FREE ENERGY PREDICTED BY IDOCK:   -0.21 KCAL/MOL
REMARK 927      BINDING AFFINITY PREDICTED BY RF-SCORE:    0.00 PKD
ROOT
HETATM    1  C   UNL     1     -11.827  15.664  68.616  1.00  0.00    -0.306 C  
HETATM    2  C   UNL     1     -11.863  15.359  67.119  1.00  0.00     0.161 C  
HETATM    3  C   UNL     1     -12.272  13.914  66.852  1.00  0.00    -0.377 C  
HETATM    4  N   UNL     1     -11.017  13.161  66.758  1.00  0.00    -0.276 NA 
HETATM    5  C   UNL     1      -9.801  13.770  64.721  1.00  0.00     0.044 C  
HETATM    6  C   UNL     1      -9.945  14.076  66.224  1.00  0.00    -0.307 C  
HETATM    7  C   UNL     1     -10.498  15.510  66.451  1.00  0.00    -0.310 C  
HETATM    8  C   UNL     1      -8.527  14.049  66.805  1.00  0.00    -0.019 C  
ENDROOT
BRANCH   4   9
HETATM    9  C   UNL     1     -10.813  12.040  67.546  1.00  0.00    -0.241 A  
HETATM   10  N   UNL     1     -10.313  10.953  66.872  1.00  0.00    -0.228 NA 
HETATM   11  C   UNL     1      -9.990   9.777  67.482  1.00  0.00    -0.184 A  
HETATM   12  C   UNL     1     -10.158   9.625  68.838  1.00  0.00    -0.198 A  
HETATM   13  C   UNL     1     -11.030  11.941  68.940  1.00  0.00    -0.285 A  
HETATM   14  C   UNL     1     -10.670  10.713  69.558  1.00  0.00    -0.290 A  
BRANCH  11  15
HETATM   15  N   UNL     1      -9.448   8.694  66.685  1.00  0.00    -0.189 NA 
HETATM   16  C   UNL     1      -8.124   8.564  66.288  1.00  0.00    -0.107 A  
HETATM   17  C   UNL     1      -8.025   7.423  65.535  1.00  0.00    -0.122 A  
HETATM   18  N   UNL     1     -10.197   7.631  66.226  1.00  0.00     0.052 NA 
HETATM   19  C   UNL     1      -9.320   6.902  65.525  1.00  0.00     0.447 A  
BRANCH  19  20
HETATM   20  O   UNL     1      -9.650   5.766  64.870  1.00  0.00     0.467 OA 
BRANCH  20  21
HETATM   21  C   UNL     1      -8.685   4.716  64.889  1.00  0.00    -0.145 C  
BRANCH  21  22
HETATM   22  C   UNL     1      -8.123   4.497  63.457  1.00  0.00    -0.093 C  
HETATM   23  F   UNL     1      -5.903   5.219  62.894  1.00  0.00    -0.013 F  
HETATM   24  F   UNL     1      -6.160   4.259  64.824  1.00  0.00    -0.020 F  
HETATM   25  C   UNL     1      -8.417   5.727  62.574  1.00  0.00    -0.043 C  
HETATM   26  C   UNL     1      -8.807   3.282  62.795  1.00  0.00    -0.092 C  
HETATM   27  C   UNL     1      -6.603   4.262  63.546  1.00  0.00    -0.034 C  
HETATM   28  F   UNL     1      -6.239   3.077  63.005  1.00  0.00    -0.012 F  
ENDBRANCH  21  22
ENDBRANCH  20  21
ENDBRANCH  19  20
ENDBRANCH  11  15
BRANCH  13  29
HETATM   29  C   UNL     1     -11.572  12.957  69.933  1.00  0.00    -0.176 C  
HETATM   30  H   UNL     1     -13.272  11.847  70.402  1.00  0.00     0.000 HD 
HETATM   31  N   UNL     1     -12.825  12.753  70.543  1.00  0.00     0.035 N  
HETATM   32  O   UNL     1     -10.857  13.895  70.260  1.00  0.00     0.297 OA 
BRANCH  31  33
HETATM   33  S   UNL     1     -13.655  13.891  71.493  1.00  0.00    -0.233 S  
HETATM   34  O   UNL     1     -14.409  14.736  70.602  1.00  0.00     0.215 OA 
HETATM   35  O   UNL     1     -14.343  13.090  72.487  1.00  0.00    -0.548 OA 
BRANCH  33  36
HETATM   36  C   UNL     1     -12.697  14.998  72.438  1.00  0.00    -0.342 A  
HETATM   37  C   UNL     1     -12.761  16.385  72.399  1.00  0.00     0.092 A  
HETATM   38  N   UNL     1     -11.930  16.847  73.375  1.00  0.00    -0.226 NA 
HETATM   39  N   UNL     1     -11.337  15.872  74.072  1.00  0.00     1.013 NA 
HETATM   40  C   UNL     1     -11.657  18.206  73.775  1.00  0.00     1.414 C  
HETATM   41  C   UNL     1     -11.842  14.737  73.565  1.00  0.00    -0.056 A  
HETATM   42  C   UNL     1     -11.475  13.503  74.317  1.00  0.00     6.738 C  
ENDBRANCH  33  36
ENDBRANCH  31  33
ENDBRANCH  13  29
ENDBRANCH   4   9
TORSDOF 8
ENDMDL
MODEL      177
REMARK 921   NORMALIZED FREE ENERGY PREDICTED BY IDOCK:    4.78 KCAL/MOL
REMARK 922        TOTAL FREE ENERGY PREDICTED BY IDOCK:    5.39 KCAL/MOL
REMARK 923 INTER-LIGAND FREE ENERGY PREDICTED BY IDOCK:    1.49 KCAL/MOL
REMARK 924 INTRA-LIGAND FREE ENERGY PREDICTED BY IDOCK:    3.90 KCAL/MOL
REMARK 927      BINDING AFFINITY PREDICTED BY RF-SCORE:    0.00 PKD
ROOT
HETATM    1  C   UNL     1      -9.649  14.649  69.448  1.00  0.00     0.054 C  
HETATM    2  C   UNL     1     -10.561  14.377  68.252  1.00  0.00    -0.243 C  
HETATM    3  C   UNL     1     -11.423  13.139  68.476  1.00  0.00    -0.303 C  
HETATM    4  N   UNL     1     -10.674  12.025  67.887  1.00  0.00    -0.203 NA 
HETATM    5  C   UNL     1     -10.626  12.221  65.445  1.00  0.00    -0.309 C  
HETATM    6  C   UNL     1      -9.853  12.552  66.736  1.00  0.00    -0.229 C  
HETATM    7  C   UNL     1      -9.785  14.087  66.969  1.00  0.00    -0.256 C  
HETATM    8  C   UNL     1      -8.415  12.073  66.512  1.00  0.00    -0.065 C  
ENDROOT
BRANCH   4   9
HETATM    9  C   UNL     1     -10.393  10.895  68.636  1.00  0.00    -0.191 A  
HETATM   10  N   UNL     1      -9.498  10.032  68.054  1.00  0.00    -0.137 NA 
HETATM   11  C   UNL     1      -9.050   8.895  68.660  1.00  0.00    -0.137 A  
HETATM   12  C   UNL     1      -9.491   8.554  69.916  1.00  0.00    -0.163 A  
HETATM   13  C   UNL     1     -10.901  10.590  69.920  1.00  0.00    -0.334 A  
HETATM   14  C   UNL     1     -10.408   9.411  70.541  1.00  0.00    -0.341 A  
BRANCH  11  15
HETATM   15  N   UNL     1      -8.088   8.059  67.969  1.00  0.00    -0.127 NA 
HETATM   16  C   UNL     1      -6.707   8.145  68.088  1.00  0.00    -0.061 A  
HETATM   17  C   UNL     1      -6.158   7.201  67.261  1.00  0.00    -0.037 A  
HETATM   18  N   UNL     1      -8.437   7.045  67.102  1.00  0.00    -0.120 NA 
HETATM   19  C   UNL     1      -7.259   6.567  66.681  1.00  0.00    -0.073 A  
BRANCH  19  20
HETATM   20  O   UNL     1      -7.140   5.564  65.783  1.00  0.00    -0.064 OA 
BRANCH  20  21
HETATM   21  C   UNL     1      -7.156   4.236  66.304  1.00  0.00    -0.067 C  
BRANCH  21  22
HETATM   22  C   UNL     1      -8.522   3.566  65.988  1.00  0.00    -0.112 C  
HETATM   23  F   UNL     1      -9.361   1.794  67.374  1.00  0.00    -0.160 F  
HETATM   24  F   UNL     1      -8.448   3.482  68.389  1.00  0.00    -0.086 F  
HETATM   25  C   UNL     1      -8.317   2.341  65.073  1.00  0.00    -0.090 C  
HETATM   26  C   UNL     1      -9.439   4.553  65.235  1.00  0.00    -0.175 C  
HETATM   27  C   UNL     1      -9.184   3.134  67.310  1.00  0.00    -0.189 C  
HETATM   28  F   UNL     1     -10.405   3.695  67.474  1.00  0.00     0.090 F  
ENDBRANCH  21  22
ENDBRANCH  20  21
ENDBRANCH  19  20
ENDBRANCH  11  15
BRANCH  13  29
HETATM   29  C   UNL     1     -11.894  11.339  70.797  1.00  0.00    -0.183 C  
HETATM   30  H   UNL     1     -12.471  12.670  69.301  1.00  0.00     0.000 HD 
HETATM   31  N   UNL     1     -12.567  12.471  70.297  1.00  0.00    -0.036 N  
HETATM   32  O   UNL     1     -12.163  10.881  71.900  1.00  0.00    -0.035 OA 
BRANCH  31  33
HETATM   33  S   UNL     1     -13.527  13.530  71.214  1.00  0.00     0.017 S  
HETATM   34  O   UNL     1     -14.410  14.216  70.305  1.00  0.00     1.569 OA 
HETATM   35  O   UNL     1     -14.075  12.695  72.264  1.00  0.00    -0.260 OA 
BRANCH  33  36
HETATM   36  C   UNL     1     -12.713  14.807  72.077  1.00  0.00    -0.329 A  
HETATM   37  C   UNL     1     -13.292  15.702  72.966  1.00  0.00    -0.570 A  
HETATM   38  N   UNL     1     -12.281  16.447  73.494  1.00  0.00    -0.497 NA 
HETATM   39  N   UNL     1     -11.073  16.099  73.039  1.00  0.00     1.069 NA 
HETATM   40  C   UNL     1     -12.338  17.493  74.487  1.00  0.00     0.800 C  
HETATM   41  C   UNL     1     -11.303  15.056  72.227  1.00  0.00    -0.084 A  
HETATM   42  C   UNL     1     -10.076  14.362  71.744  1.00  0.00     4.153 C  
ENDBRANCH  33  36
ENDBRANCH  31  33
ENDBRANCH  13  29
ENDBRANCH   4   9
TORSDOF 8
ENDMDL
MODEL      178
REMARK 921   NORMALIZED FREE ENERGY PREDICTED BY IDOCK:    7.23 KCAL/MOL
REMARK 922        TOTAL FREE ENERGY PREDICTED BY IDOCK:    8.98 KCAL/MOL
REMARK 923 INTER-LIGAND FREE ENERGY PREDICTED BY IDOCK:   -0.84 KCAL/MOL
REMARK 924 INTRA-LIGAND FREE ENERGY PREDICTED BY IDOCK:    9.81 KCAL/MOL
REMARK 927      BINDING AFFINITY PREDICTED BY RF-SCORE:    0.00 PKD
ROOT
HETATM    1  C   UNL     1      -7.677   8.184  65.097  1.00  0.00    -0.107 C  
HETATM    2  C   UNL     1      -6.958   9.452  65.560  1.00  0.00    -0.086 C  
HETATM    3  C   UNL     1      -7.123   9.673  67.060  1.00  0.00    -0.086 C  
HETATM    4  N   UNL     1      -8.295  10.542  67.203  1.00  0.00    -0.126 NA 
HETATM    5  C   UNL     1      -7.801  12.792  66.370  1.00  0.00     0.814 C  
HETATM    6  C   UNL     1      -8.393  11.424  65.983  1.00  0.00    -0.019 C  
HETATM    7  C   UNL     1      -7.515  10.718  64.913  1.00  0.00     0.220 C  
HETATM    8  C   UNL     1      -9.748  11.711  65.328  1.00  0.00    -0.255 C  
ENDROOT
BRANCH   4   9
HETATM    9  C   UNL     1      -9.346  10.172  68.026  1.00  0.00    -0.141 A  
HETATM   10  N   UNL     1      -9.945  11.213  68.690  1.00  0.00    -0.200 NA 
HETATM   11  C   UNL     1     -11.032  11.060  69.499  1.00  0.00    -0.243 A  
HETATM   12  C   UNL     1     -11.588   9.818  69.692  1.00  0.00    -0.032 A  
HETATM   13  C   UNL     1      -9.858   8.865  68.199  1.00  0.00    -0.193 A  
HETATM   14  C   UNL     1     -11.001   8.730  69.032  1.00  0.00     0.046 A  
BRANCH  11  15
HETATM   15  N   UNL     1     -11.605  12.227  70.141  1.00  0.00    -0.176 NA 
HETATM   16  C   UNL     1     -11.000  13.473  70.244  1.00  0.00     0.775 A  
HETATM   17  C   UNL     1     -11.852  14.293  70.936  1.00  0.00    -0.322 A  
HETATM   18  N   UNL     1     -12.852  12.244  70.728  1.00  0.00    -0.097 NA 
HETATM   19  C   UNL     1     -12.959  13.488  71.211  1.00  0.00    -0.304 A  
BRANCH  19  20
HETATM   20  O   UNL     1     -14.036  13.930  71.899  1.00  0.00    -0.438 OA 
BRANCH  20  21
HETATM   21  C   UNL     1     -14.011  15.294  72.315  1.00  0.00    -0.546 C  
BRANCH  21  22
HETATM   22  C   UNL     1     -12.545  15.732  72.583  1.00  0.00    -0.541 C  
HETATM   23  F   UNL     1     -11.968  18.060  72.695  1.00  0.00     1.446 F  
HETATM   24  F   UNL     1     -13.807  17.459  73.678  1.00  0.00     1.272 F  
HETATM   25  C   UNL     1     -11.793  15.924  71.249  1.00  0.00    -0.502 C  
HETATM   26  C   UNL     1     -11.797  14.640  73.377  1.00  0.00    -0.045 C  
HETATM   27  C   UNL     1     -12.554  17.050  73.379  1.00  0.00     0.683 C  
HETATM   28  F   UNL     1     -11.890  16.941  74.553  1.00  0.00    -0.448 F  
ENDBRANCH  21  22
ENDBRANCH  20  21
ENDBRANCH  19  20
ENDBRANCH  11  15
BRANCH  13  29
HETATM   29  C   UNL     1      -9.405   7.537  67.610  1.00  0.00    -0.137 C  
HETATM   30  H   UNL     1      -8.227   7.018  69.248  1.00  0.00     0.000 HD 
HETATM   31  N   UNL     1      -8.468   6.740  68.297  1.00  0.00    -0.125 N  
HETATM   32  O   UNL     1      -9.943   7.137  66.586  1.00  0.00    -0.202 OA 
BRANCH  31  33
HETATM   33  S   UNL     1      -7.708   5.356  67.673  1.00  0.00    -0.093 S  
HETATM   34  O   UNL     1      -8.213   5.144  66.340  1.00  0.00    -0.108 OA 
HETATM   35  O   UNL     1      -6.294   5.602  67.882  1.00  0.00    -0.038 OA 
BRANCH  33  36
HETATM   36  C   UNL     1      -7.994   3.844  68.493  1.00  0.00    -0.067 A  
HETATM   37  C   UNL     1      -8.815   3.646  69.595  1.00  0.00    -0.089 A  
HETATM   38  N   UNL     1      -8.838   2.305  69.835  1.00  0.00    -0.071 NA 
HETATM   39  N   UNL     1      -8.114   1.598  68.962  1.00  0.00    -0.045 NA 
HETATM   40  C   UNL     1      -9.563   1.569  70.844  1.00  0.00    -0.112 C  
HETATM   41  C   UNL     1      -7.646   2.506  68.094  1.00  0.00    -0.055 A  
HETATM   42  C   UNL     1      -6.960   1.931  66.902  1.00  0.00    -0.043 C  
ENDBRANCH  33  36
ENDBRANCH  31  33
ENDBRANCH  13  29
ENDBRANCH   4   9
TORSDOF 8
ENDMDL
MODEL      179
REMARK 921   NORMALIZED FREE ENERGY PREDICTED BY IDOCK:    7.46 KCAL/MOL
REMARK 922        TOTAL FREE ENERGY PREDICTED BY IDOCK:    9.31 KCAL/MOL
REMARK 923 INTER-LIGAND FREE ENERGY PREDICTED BY IDOCK:    3.01 KCAL/MOL
REMARK 924 INTRA-LIGAND FREE ENERGY PREDICTED BY IDOCK:    6.30 KCAL/MOL
REMARK 927      BINDING AFFINITY PREDICTED BY RF-SCORE:    0.00 PKD
ROOT
HETATM    1  C   UNL     1     -10.390  11.077  64.533  1.00  0.00    -0.420 C  
HETATM    2  C   UNL     1     -11.666  11.457  65.285  1.00  0.00     0.258 C  
HETATM    3  C   UNL     1     -11.489  12.755  66.067  1.00  0.00    -0.350 C  
HETATM    4  N   UNL     1     -11.071  12.350  67.413  1.00  0.00    -0.257 NA 
HETATM    5  C   UNL     1     -12.919  11.251  68.589  1.00  0.00     2.445 C  
HETATM    6  C   UNL     1     -11.673  11.001  67.718  1.00  0.00    -0.088 C  
HETATM    7  C   UNL     1     -12.068  10.420  66.331  1.00  0.00     3.684 C  
HETATM    8  C   UNL     1     -10.857   9.920  68.435  1.00  0.00    -0.263 C  
ENDROOT
BRANCH   4   9
HETATM    9  C   UNL     1      -9.921  12.874  67.977  1.00  0.00    -0.236 A  
HETATM   10  N   UNL     1      -9.897  14.245  68.054  1.00  0.00    -0.218 NA 
HETATM   11  C   UNL     1      -8.879  14.946  68.630  1.00  0.00    -0.179 A  
HETATM   12  C   UNL     1      -7.800  14.290  69.172  1.00  0.00     0.018 A  
HETATM   13  C   UNL     1      -8.830  12.141  68.499  1.00  0.00    -0.079 A  
HETATM   14  C   UNL     1      -7.789  12.890  69.110  1.00  0.00     0.388 A  
BRANCH  11  15
HETATM   15  N   UNL     1      -8.957  16.393  68.679  1.00  0.00    -0.223 NA 
HETATM   16  C   UNL     1      -8.735  17.178  69.802  1.00  0.00     1.170 A  
HETATM   17  C   UNL     1      -8.927  18.486  69.441  1.00  0.00     0.359 A  
HETATM   18  N   UNL     1      -9.256  17.182  67.588  1.00  0.00    -0.236 NA 
HETATM   19  C   UNL     1      -9.249  18.426  68.084  1.00  0.00    -0.312 A  
BRANCH  19  20
HETATM   20  O   UNL     1      -9.525  19.523  67.345  1.00  0.00    -0.303 OA 
BRANCH  20  21
HETATM   21  C   UNL     1      -8.502  20.515  67.269  1.00  0.00    -0.285 C  
BRANCH  21  22
HETATM   22  C   UNL     1      -7.263  19.932  66.533  1.00  0.00    -0.275 C  
HETATM   23  F   UNL     1      -5.146  19.766  67.652  1.00  0.00    -0.171 F  
HETATM   24  F   UNL     1      -6.904  19.211  68.797  1.00  0.00    -0.277 F  
HETATM   25  C   UNL     1      -6.468  21.064  65.849  1.00  0.00    -0.191 C  
HETATM   26  C   UNL     1      -7.711  18.953  65.427  1.00  0.00     0.546 C  
HETATM   27  C   UNL     1      -6.372  19.202  67.554  1.00  0.00    -0.199 C  
HETATM   28  F   UNL     1      -6.177  17.905  67.224  1.00  0.00    -0.150 F  
ENDBRANCH  21  22
ENDBRANCH  20  21
ENDBRANCH  19  20
ENDBRANCH  11  15
BRANCH  13  29
HETATM   29  C   UNL     1      -8.577  10.642  68.548  1.00  0.00    -0.137 C  
HETATM   30  H   UNL     1      -8.528  10.409  66.479  1.00  0.00     0.000 HD 
HETATM   31  N   UNL     1      -8.530   9.891  67.357  1.00  0.00    -0.118 N  
HETATM   32  O   UNL     1      -8.320  10.127  69.629  1.00  0.00    -0.168 OA 
BRANCH  31  33
HETATM   33  S   UNL     1      -8.478   8.196  67.263  1.00  0.00    -0.125 S  
HETATM   34  O   UNL     1      -8.241   7.692  68.592  1.00  0.00    -0.125 OA 
HETATM   35  O   UNL     1      -9.695   7.842  66.559  1.00  0.00    -0.213 OA 
BRANCH  33  36
HETATM   36  C   UNL     1      -7.214   7.485  66.296  1.00  0.00    -0.074 A  
HETATM   37  C   UNL     1      -7.120   7.511  64.911  1.00  0.00    -0.060 A  
HETATM   38  N   UNL     1      -5.926   6.943  64.584  1.00  0.00    -0.035 NA 
HETATM   39  N   UNL     1      -5.212   6.562  65.647  1.00  0.00    -0.017 NA 
HETATM   40  C   UNL     1      -5.330   6.753  63.283  1.00  0.00    -0.031 C  
HETATM   41  C   UNL     1      -5.944   6.945  66.704  1.00  0.00    -0.029 A  
HETATM   42  C   UNL     1      -5.259   6.800  68.020  1.00  0.00    -0.008 C  
ENDBRANCH  33  36
ENDBRANCH  31  33
ENDBRANCH  13  29
ENDBRANCH   4   9
TORSDOF 8
ENDMDL
MODEL      180
REMARK 921   NORMALIZED FREE ENERGY PREDICTED BY IDOCK:    7.62 KCAL/MOL
REMARK 922        TOTAL FREE ENERGY PREDICTED BY IDOCK:    9.55 KCAL/MOL
REMARK 923 INTER-LIGAND FREE ENERGY PREDICTED BY IDOCK:    3.13 KCAL/MOL
REMARK 924 INTRA-LIGAND FREE ENERGY PREDICTED BY IDOCK:    6.42 KCAL/MOL
REMARK 927      BINDING AFFINITY PREDICTED BY RF-SCORE:    0.00 PKD
ROOT
HETATM    1  C   UNL     1     -10.390  11.077  64.533  1.00  0.00    -0.420 C  
HETATM    2  C   UNL     1     -11.666  11.457  65.285  1.00  0.00     0.258 C  
HETATM    3  C   UNL     1     -11.489  12.755  66.067  1.00  0.00    -0.350 C  
HETATM    4  N   UNL     1     -11.071  12.350  67.413  1.00  0.00    -0.257 NA 
HETATM    5  C   UNL     1     -12.919  11.251  68.589  1.00  0.00     2.445 C  
HETATM    6  C   UNL     1     -11.673  11.001  67.718  1.00  0.00    -0.088 C  
HETATM    7  C   UNL     1     -12.068  10.420  66.331  1.00  0.00     3.684 C  
HETATM    8  C   UNL     1     -10.857   9.920  68.435  1.00  0.00    -0.263 C  
ENDROOT
BRANCH   4   9
HETATM    9  C   UNL     1      -9.921  12.874  67.977  1.00  0.00    -0.236 A  
HETATM   10  N   UNL     1      -9.897  14.245  68.054  1.00  0.00    -0.218 NA 
HETATM   11  C   UNL     1      -8.879  14.946  68.630  1.00  0.00    -0.179 A  
HETATM   12  C   UNL     1      -7.800  14.290  69.172  1.00  0.00     0.018 A  
HETATM   13  C   UNL     1      -8.830  12.141  68.499  1.00  0.00    -0.079 A  
HETATM   14  C   UNL     1      -7.789  12.890  69.110  1.00  0.00     0.388 A  
BRANCH  11  15
HETATM   15  N   UNL     1      -8.957  16.393  68.679  1.00  0.00    -0.223 NA 
HETATM   16  C   UNL     1      -8.735  17.178  69.802  1.00  0.00     1.170 A  
HETATM   17  C   UNL     1      -8.927  18.486  69.441  1.00  0.00     0.359 A  
HETATM   18  N   UNL     1      -9.256  17.182  67.588  1.00  0.00    -0.236 NA 
HETATM   19  C   UNL     1      -9.249  18.426  68.084  1.00  0.00    -0.312 A  
BRANCH  19  20
HETATM   20  O   UNL     1      -9.525  19.523  67.345  1.00  0.00    -0.303 OA 
BRANCH  20  21
HETATM   21  C   UNL     1      -8.502  20.515  67.269  1.00  0.00    -0.285 C  
BRANCH  21  22
HETATM   22  C   UNL     1      -7.263  19.932  66.533  1.00  0.00    -0.275 C  
HETATM   23  F   UNL     1      -5.146  19.766  67.652  1.00  0.00    -0.171 F  
HETATM   24  F   UNL     1      -6.904  19.211  68.797  1.00  0.00    -0.277 F  
HETATM   25  C   UNL     1      -6.468  21.064  65.849  1.00  0.00    -0.191 C  
HETATM   26  C   UNL     1      -7.711  18.953  65.427  1.00  0.00     0.546 C  
HETATM   27  C   UNL     1      -6.372  19.202  67.554  1.00  0.00    -0.199 C  
HETATM   28  F   UNL     1      -6.177  17.905  67.224  1.00  0.00    -0.150 F  
ENDBRANCH  21  22
ENDBRANCH  20  21
ENDBRANCH  19  20
ENDBRANCH  11  15
BRANCH  13  29
HETATM   29  C   UNL     1      -8.577  10.642  68.548  1.00  0.00    -0.137 C  
HETATM   30  H   UNL     1      -8.528  10.409  66.479  1.00  0.00     0.000 HD 
HETATM   31  N   UNL     1      -8.530   9.891  67.357  1.00  0.00    -0.118 N  
HETATM   32  O   UNL     1      -8.320  10.127  69.629  1.00  0.00    -0.168 OA 
BRANCH  31  33
HETATM   33  S   UNL     1      -8.478   8.196  67.263  1.00  0.00    -0.125 S  
HETATM   34  O   UNL     1      -9.169   7.805  66.061  1.00  0.00    -0.161 OA 
HETATM   35  O   UNL     1      -7.074   7.875  67.428  1.00  0.00    -0.079 OA 
BRANCH  33  36
HETATM   36  C   UNL     1      -9.265   7.297  68.531  1.00  0.00    -0.138 A  
HETATM   37  C   UNL     1      -8.840   7.183  69.848  1.00  0.00    -0.142 A  
HETATM   38  N   UNL     1      -9.805   6.492  70.517  1.00  0.00    -0.179 NA 
HETATM   39  N   UNL     1     -10.847   6.158  69.749  1.00  0.00    -0.316 NA 
HETATM   40  C   UNL     1      -9.869   6.131  71.913  1.00  0.00    -0.156 C  
HETATM   41  C   UNL     1     -10.573   6.698  68.552  1.00  0.00    -0.233 A  
HETATM   42  C   UNL     1     -11.690   6.626  67.568  1.00  0.00     0.931 C  
ENDBRANCH  33  36
ENDBRANCH  31  33
ENDBRANCH  13  29
ENDBRANCH   4   9
TORSDOF 8
ENDMDL
MODEL      181
REMARK 921   NORMALIZED FREE ENERGY PREDICTED BY IDOCK:    8.56 KCAL/MOL
REMARK 922        TOTAL FREE ENERGY PREDICTED BY IDOCK:   10.94 KCAL/MOL
REMARK 923 INTER-LIGAND FREE ENERGY PREDICTED BY IDOCK:   -0.08 KCAL/MOL
REMARK 924 INTRA-LIGAND FREE ENERGY PREDICTED BY IDOCK:   11.01 KCAL/MOL
REMARK 927      BINDING AFFINITY PREDICTED BY RF-SCORE:    0.00 PKD
ROOT
HETATM    1  C   UNL     1     -12.197  11.746  66.959  1.00  0.00     0.697 C  
HETATM    2  C   UNL     1     -12.593  12.963  67.794  1.00  0.00     0.920 C  
HETATM    3  C   UNL     1     -11.494  14.020  67.799  1.00  0.00    -0.322 C  
HETATM    4  N   UNL     1     -10.681  13.738  68.987  1.00  0.00    -0.220 NA 
HETATM    5  C   UNL     1     -11.938  14.248  71.027  1.00  0.00    -0.374 C  
HETATM    6  C   UNL     1     -11.567  13.123  70.041  1.00  0.00    -0.131 C  
HETATM    7  C   UNL     1     -12.818  12.624  69.266  1.00  0.00     1.156 C  
HETATM    8  C   UNL     1     -11.075  11.949  70.894  1.00  0.00     2.163 C  
ENDROOT
BRANCH   4   9
HETATM    9  C   UNL     1      -9.311  13.567  68.874  1.00  0.00     0.193 A  
HETATM   10  N   UNL     1      -8.564  14.600  69.384  1.00  0.00     0.032 NA 
HETATM   11  C   UNL     1      -7.201  14.593  69.420  1.00  0.00    -0.146 A  
HETATM   12  C   UNL     1      -6.496  13.519  68.931  1.00  0.00    -0.102 A  
HETATM   13  C   UNL     1      -8.645  12.442  68.336  1.00  0.00    -0.129 A  
HETATM   14  C   UNL     1      -7.226  12.447  68.400  1.00  0.00    -0.110 A  
BRANCH  11  15
HETATM   15  N   UNL     1      -6.504  15.725  69.999  1.00  0.00    -0.122 NA 
HETATM   16  C   UNL     1      -5.726  15.695  71.148  1.00  0.00     0.250 A  
HETATM   17  C   UNL     1      -5.263  16.966  71.370  1.00  0.00     0.078 A  
HETATM   18  N   UNL     1      -6.519  16.993  69.457  1.00  0.00    -0.236 NA 
HETATM   19  C   UNL     1      -5.784  17.714  70.313  1.00  0.00    -0.200 A  
BRANCH  19  20
HETATM   20  O   UNL     1      -5.563  19.039  70.172  1.00  0.00    -0.228 OA 
BRANCH  20  21
HETATM   21  C   UNL     1      -5.964  19.624  68.934  1.00  0.00    -0.240 C  
BRANCH  21  22
HETATM   22  C   UNL     1      -6.806  18.602  68.122  1.00  0.00    -0.243 C  
HETATM   23  F   UNL     1      -8.684  19.333  66.816  1.00  0.00    -0.273 F  
HETATM   24  F   UNL     1      -6.898  20.564  66.736  1.00  0.00    -0.248 F  
HETATM   25  C   UNL     1      -7.987  18.088  68.971  1.00  0.00    -0.075 C  
HETATM   26  C   UNL     1      -5.944  17.378  67.745  1.00  0.00    -0.147 C  
HETATM   27  C   UNL     1      -7.332  19.288  66.847  1.00  0.00    -0.212 C  
HETATM   28  F   UNL     1      -6.939  18.644  65.724  1.00  0.00    -0.260 F  
ENDBRANCH  21  22
ENDBRANCH  20  21
ENDBRANCH  19  20
ENDBRANCH  11  15
BRANCH  13  29
HETATM   29  C   UNL     1      -9.196  11.173  67.704  1.00  0.00    -0.151 C  
HETATM   30  H   UNL     1      -7.579  10.907  66.417  1.00  0.00     0.000 HD 
HETATM   31  N   UNL     1      -8.510  10.555  66.640  1.00  0.00    -0.127 N  
HETATM   32  O   UNL     1     -10.186  10.652  68.203  1.00  0.00    -0.159 OA 
BRANCH  31  33
HETATM   33  S   UNL     1      -9.105   9.274  65.697  1.00  0.00    -0.229 S  
HETATM   34  O   UNL     1     -10.493   9.089  66.037  1.00  0.00    -0.020 OA 
HETATM   35  O   UNL     1      -8.733   9.628  64.341  1.00  0.00    -0.178 OA 
BRANCH  33  36
HETATM   36  C   UNL     1      -8.386   7.704  65.931  1.00  0.00    -0.139 A  
HETATM   37  C   UNL     1      -7.037   7.434  66.119  1.00  0.00    -0.069 A  
HETATM   38  N   UNL     1      -6.932   6.100  66.376  1.00  0.00    -0.065 NA 
HETATM   39  N   UNL     1      -8.110   5.470  66.395  1.00  0.00    -0.105 NA 
HETATM   40  C   UNL     1      -5.757   5.316  66.674  1.00  0.00    -0.018 C  
HETATM   41  C   UNL     1      -9.017   6.438  66.195  1.00  0.00    -0.150 A  
HETATM   42  C   UNL     1     -10.434   6.008  66.368  1.00  0.00    -0.141 C  
ENDBRANCH  33  36
ENDBRANCH  31  33
ENDBRANCH  13  29
ENDBRANCH   4   9
TORSDOF 8
ENDMDL
MODEL      182
REMARK 921   NORMALIZED FREE ENERGY PREDICTED BY IDOCK:   35.99 KCAL/MOL
REMARK 922        TOTAL FREE ENERGY PREDICTED BY IDOCK:   51.19 KCAL/MOL
REMARK 923 INTER-LIGAND FREE ENERGY PREDICTED BY IDOCK:   35.64 KCAL/MOL
REMARK 924 INTRA-LIGAND FREE ENERGY PREDICTED BY IDOCK:   15.55 KCAL/MOL
REMARK 927      BINDING AFFINITY PREDICTED BY RF-SCORE:    0.00 PKD
ROOT
HETATM    1  C   UNL     1     -12.033  11.332  67.187  1.00  0.00     0.507 C  
HETATM    2  C   UNL     1     -10.538  11.291  67.501  1.00  0.00    -0.257 C  
HETATM    3  C   UNL     1     -10.285  11.147  68.998  1.00  0.00    -0.176 C  
HETATM    4  N   UNL     1     -10.136  12.514  69.506  1.00  0.00     0.726 NA 
HETATM    5  C   UNL     1      -8.050  13.508  68.693  1.00  0.00    -0.055 C  
HETATM    6  C   UNL     1      -9.559  13.374  68.410  1.00  0.00    -0.188 C  
HETATM    7  C   UNL     1      -9.813  12.574  67.103  1.00  0.00    -0.210 C  
HETATM    8  C   UNL     1     -10.079  14.796  68.170  1.00  0.00    -0.221 C  
ENDROOT
BRANCH   4   9
HETATM    9  C   UNL     1     -10.911  12.956  70.565  1.00  0.00     1.811 A  
HETATM   10  N   UNL     1     -11.626  11.970  71.199  1.00  0.00     1.032 NA 
HETATM   11  C   UNL     1     -12.400  12.195  72.299  1.00  0.00     1.353 A  
HETATM   12  C   UNL     1     -12.503  13.457  72.834  1.00  0.00     0.788 A  
HETATM   13  C   UNL     1     -10.991  14.281  71.054  1.00  0.00     0.885 A  
HETATM   14  C   UNL     1     -11.789  14.489  72.211  1.00  0.00    -0.030 A  
BRANCH  11  15
HETATM   15  N   UNL     1     -13.101  11.081  72.909  1.00  0.00     1.418 NA 
HETATM   16  C   UNL     1     -13.943  11.160  74.010  1.00  0.00    10.377 A  
HETATM   17  C   UNL     1     -14.386   9.894  74.287  1.00  0.00     7.168 A  
HETATM   18  N   UNL     1     -13.024   9.784  72.450  1.00  0.00    -0.314 NA 
HETATM   19  C   UNL     1     -13.788   9.097  73.309  1.00  0.00     0.936 A  
BRANCH  19  20
HETATM   20  O   UNL     1     -13.969   7.759  73.240  1.00  0.00     1.191 OA 
BRANCH  20  21
HETATM   21  C   UNL     1     -13.916   7.175  71.939  1.00  0.00    -0.211 C  
BRANCH  21  22
HETATM   22  C   UNL     1     -12.571   7.543  71.255  1.00  0.00    -0.345 C  
HETATM   23  F   UNL     1     -11.317   9.458  71.980  1.00  0.00    -0.432 F  
HETATM   24  F   UNL     1     -12.194   8.218  73.530  1.00  0.00     0.264 F  
HETATM   25  C   UNL     1     -12.815   8.525  70.091  1.00  0.00     1.469 C  
HETATM   26  C   UNL     1     -11.912   6.281  70.659  1.00  0.00    -0.091 C  
HETATM   27  C   UNL     1     -11.637   8.183  72.299  1.00  0.00    -0.374 C  
HETATM   28  F   UNL     1     -10.470   7.509  72.419  1.00  0.00    -0.222 F  
ENDBRANCH  21  22
ENDBRANCH  20  21
ENDBRANCH  19  20
ENDBRANCH  11  15
BRANCH  13  29
HETATM   29  C   UNL     1     -10.331  15.560  70.562  1.00  0.00    -0.006 C  
HETATM   30  H   UNL     1     -12.124  16.494  70.058  1.00  0.00     0.000 HD 
HETATM   31  N   UNL     1     -11.110  16.586  69.992  1.00  0.00    -0.303 N  
HETATM   32  O   UNL     1      -9.133  15.715  70.761  1.00  0.00     1.275 OA 
BRANCH  31  33
HETATM   33  S   UNL     1     -10.503  17.963  69.206  1.00  0.00     0.358 S  
HETATM   34  O   UNL     1     -10.545  17.710  67.788  1.00  0.00    -0.374 OA 
HETATM   35  O   UNL     1     -11.265  19.060  69.769  1.00  0.00     2.468 OA 
BRANCH  33  36
HETATM   36  C   UNL     1      -8.845  18.401  69.520  1.00  0.00     0.644 A  
HETATM   37  C   UNL     1      -8.291  18.698  70.758  1.00  0.00     4.432 A  
HETATM   38  N   UNL     1      -6.954  18.870  70.562  1.00  0.00     0.878 NA 
HETATM   39  N   UNL     1      -6.576  18.687  69.293  1.00  0.00    -0.270 NA 
HETATM   40  C   UNL     1      -5.919  19.161  71.525  1.00  0.00     0.249 C  
HETATM   41  C   UNL     1      -7.700  18.333  68.652  1.00  0.00    -0.302 A  
HETATM   42  C   UNL     1      -7.498  17.884  67.245  1.00  0.00    -0.213 C  
ENDBRANCH  33  36
ENDBRANCH  31  33
ENDBRANCH  13  29
ENDBRANCH   4   9
TORSDOF 8
ENDMDL
MODEL      183
REMARK 921   NORMALIZED FREE ENERGY PREDICTED BY IDOCK:   51.11 KCAL/MOL
REMARK 922        TOTAL FREE ENERGY PREDICTED BY IDOCK:   73.39 KCAL/MOL
REMARK 923 INTER-LIGAND FREE ENERGY PREDICTED BY IDOCK:   63.89 KCAL/MOL
REMARK 924 INTRA-LIGAND FREE ENERGY PREDICTED BY IDOCK:    9.50 KCAL/MOL
REMARK 927      BINDING AFFINITY PREDICTED BY RF-SCORE:    0.00 PKD
ROOT
HETATM    1  C   UNL     1      -8.108   8.836  65.927  1.00  0.00    -0.110 C  
HETATM    2  C   UNL     1      -7.198  10.012  66.283  1.00  0.00    -0.106 C  
HETATM    3  C   UNL     1      -7.394  10.453  67.729  1.00  0.00    -0.087 C  
HETATM    4  N   UNL     1      -8.398  11.522  67.682  1.00  0.00    -0.130 NA 
HETATM    5  C   UNL     1      -7.468  13.524  66.621  1.00  0.00     1.122 C  
HETATM    6  C   UNL     1      -8.276  12.238  66.361  1.00  0.00     0.226 C  
HETATM    7  C   UNL     1      -7.486  11.258  65.449  1.00  0.00     0.557 C  
HETATM    8  C   UNL     1      -9.523  12.665  65.579  1.00  0.00     0.068 C  
ENDROOT
BRANCH   4   9
HETATM    9  C   UNL     1      -9.537  11.448  68.466  1.00  0.00    -0.189 A  
HETATM   10  N   UNL     1      -9.908  12.636  69.046  1.00  0.00     0.178 NA 
HETATM   11  C   UNL     1     -11.032  12.781  69.804  1.00  0.00     0.340 A  
HETATM   12  C   UNL     1     -11.866  11.711  70.028  1.00  0.00    -0.435 A  
HETATM   13  C   UNL     1     -10.341  10.304  68.675  1.00  0.00    -0.203 A  
HETATM   14  C   UNL     1     -11.517  10.482  69.453  1.00  0.00    -0.329 A  
BRANCH  11  15
HETATM   15  N   UNL     1     -11.348  14.084  70.357  1.00  0.00    -0.034 NA 
HETATM   16  C   UNL     1     -11.003  15.307  69.796  1.00  0.00    -0.284 A  
HETATM   17  C   UNL     1     -11.463  16.292  70.631  1.00  0.00    -0.297 A  
HETATM   18  N   UNL     1     -12.055  14.270  71.525  1.00  0.00    -0.307 NA 
HETATM   19  C   UNL     1     -12.088  15.600  71.670  1.00  0.00    -0.426 A  
BRANCH  19  20
HETATM   20  O   UNL     1     -12.672  16.221  72.719  1.00  0.00    -0.420 OA 
BRANCH  20  21
HETATM   21  C   UNL     1     -12.771  17.642  72.644  1.00  0.00     5.298 C  
BRANCH  21  22
HETATM   22  C   UNL     1     -11.383  18.246  72.295  1.00  0.00     3.388 C  
HETATM   23  F   UNL     1      -9.572  18.128  73.867  1.00  0.00     5.002 F  
HETATM   24  F   UNL     1     -10.796  16.349  73.648  1.00  0.00     1.414 F  
HETATM   25  C   UNL     1     -11.301  19.710  72.776  1.00  0.00     7.810 C  
HETATM   26  C   UNL     1     -11.172  18.253  70.766  1.00  0.00     3.681 C  
HETATM   27  C   UNL     1     -10.287  17.404  72.974  1.00  0.00     6.407 C  
HETATM   28  F   UNL     1      -9.401  16.906  72.081  1.00  0.00     6.987 F  
ENDBRANCH  21  22
ENDBRANCH  20  21
ENDBRANCH  19  20
ENDBRANCH  11  15
BRANCH  13  29
HETATM   29  C   UNL     1     -10.181   8.876  68.177  1.00  0.00    -0.201 C  
HETATM   30  H   UNL     1      -8.723   8.369  69.576  1.00  0.00     0.000 HD 
HETATM   31  N   UNL     1      -9.204   8.033  68.743  1.00  0.00    -0.144 N  
HETATM   32  O   UNL     1     -10.979   8.451  67.351  1.00  0.00    -0.114 OA 
BRANCH  31  33
HETATM   33  S   UNL     1      -8.761   6.504  68.151  1.00  0.00    -0.115 S  
HETATM   34  O   UNL     1      -8.847   6.551  66.713  1.00  0.00    -0.121 OA 
HETATM   35  O   UNL     1      -7.489   6.230  68.792  1.00  0.00    -0.084 OA 
BRANCH  33  36
HETATM   36  C   UNL     1      -9.758   5.148  68.603  1.00  0.00    -0.151 A  
HETATM   37  C   UNL     1     -10.671   5.108  69.648  1.00  0.00     0.065 A  
HETATM   38  N   UNL     1     -11.309   3.907  69.570  1.00  0.00     5.709 NA 
HETATM   39  N   UNL     1     -10.905   3.157  68.540  1.00  0.00     3.956 NA 
HETATM   40  C   UNL     1     -12.368   3.379  70.398  1.00  0.00    15.923 C  
HETATM   41  C   UNL     1     -10.010   3.921  67.896  1.00  0.00     0.137 A  
HETATM   42  C   UNL     1      -9.554   3.373  66.587  1.00  0.00    -0.090 C  
ENDBRANCH  33  36
ENDBRANCH  31  33
ENDBRANCH  13  29
ENDBRANCH   4   9
TORSDOF 8
ENDMDL
