MODEL        1
REMARK 921   NORMALIZED FREE ENERGY PREDICTED BY IDOCK:   -6.68 KCAL/MOL
REMARK 922        TOTAL FREE ENERGY PREDICTED BY IDOCK:  -13.42 KCAL/MOL
REMARK 923 INTER-LIGAND FREE ENERGY PREDICTED BY IDOCK:  -11.37 KCAL/MOL
REMARK 924 INTRA-LIGAND FREE ENERGY PREDICTED BY IDOCK:   -2.06 KCAL/MOL
REMARK 927      BINDING AFFINITY PREDICTED BY RF-SCORE:    0.00 PKD
ROOT
HETATM    1  C   UNL     1      -9.932  15.668  66.502  1.00  0.00    -0.273 C  
ENDROOT
BRANCH   1   2
HETATM    2  C   UNL     1      -9.351  14.562  67.444  1.00  0.00    -0.197 C  
HETATM    3  O   UNL     1      -8.900  13.422  66.701  1.00  0.00    -0.400 OA 
HETATM    4  H   UNL     1      -8.547  12.750  67.273  1.00  0.00     0.000 HD 
BRANCH   2   5
HETATM    5  C   UNL     1     -10.315  14.150  68.560  1.00  0.00    -0.249 A  
HETATM    6  C   UNL     1     -13.647  15.536  71.494  1.00  0.00    -0.480 C  
HETATM    7  C   UNL     1     -11.782  14.811  70.390  1.00  0.00    -0.295 A  
HETATM    8  C   UNL     1     -10.800  12.836  68.697  1.00  0.00    -0.284 A  
HETATM    9  C   UNL     1     -12.246  13.501  70.521  1.00  0.00    -0.361 A  
HETATM   10  C   UNL     1     -13.688  14.206  72.228  1.00  0.00    -0.526 C  
HETATM   11  C   UNL     1     -10.796  15.129  69.452  1.00  0.00    -0.265 A  
HETATM   12  O   UNL     1     -13.226  13.127  71.404  1.00  0.00    -0.305 OA 
HETATM   13  O   UNL     1     -12.299  15.850  71.124  1.00  0.00    -0.425 OA 
HETATM   14  C   UNL     1     -11.739  12.510  69.686  1.00  0.00    -0.372 A  
ENDBRANCH   2   5
ENDBRANCH   1   2
BRANCH   1  15
HETATM   15  N   UNL     1     -10.389  15.020  65.261  1.00  0.00    -0.381 NA 
HETATM   16  H   UNL     1      -9.686  14.506  64.729  1.00  0.00     0.000 HD 
BRANCH  15  17
HETATM   17  C   UNL     1     -11.567  15.035  64.780  1.00  0.00    -0.395 C  
HETATM   18  H   UNL     1     -12.901  15.884  63.489  1.00  0.00     0.000 HD 
HETATM   19  O   UNL     1     -12.021  15.873  63.848  1.00  0.00    -0.730 OA 
BRANCH  17  20
HETATM   20  C   UNL     1     -12.597  14.048  65.272  1.00  0.00    -0.495 C  
BRANCH  20  21
HETATM   21  C   UNL     1     -12.099  12.607  65.230  1.00  0.00    -0.519 C  
BRANCH  21  22
HETATM   22  C   UNL     1     -12.047  12.027  63.815  1.00  0.00    -0.599 C  
BRANCH  22  23
HETATM   23  C   UNL     1     -10.610  11.678  63.421  1.00  0.00    -0.472 C  
BRANCH  23  24
HETATM   24  C   UNL     1      -9.724  11.459  64.647  1.00  0.00    -0.275 C  
BRANCH  24  25
HETATM   25  C   UNL     1      -9.737   9.992  65.079  1.00  0.00    -0.386 C  
HETATM   26  C   UNL     1     -10.009   9.849  66.567  1.00  0.00    -0.291 C  
ENDBRANCH  24  25
ENDBRANCH  23  24
ENDBRANCH  22  23
ENDBRANCH  21  22
ENDBRANCH  20  21
ENDBRANCH  17  20
ENDBRANCH  15  17
ENDBRANCH   1  15
BRANCH   1  27
HETATM   27  C   UNL     1      -8.936  16.771  66.001  1.00  0.00    -0.185 C  
BRANCH  27  28
HETATM   28  N   UNL     1      -9.138  18.212  66.285  1.00  0.00    -0.458 NA 
HETATM   29  C   UNL     1      -8.826  18.483  67.708  1.00  0.00    -0.275 C  
HETATM   30  C   UNL     1     -10.527  18.628  66.087  1.00  0.00    -0.430 C  
HETATM   31  C   UNL     1      -9.867  19.458  68.239  1.00  0.00    -0.500 C  
HETATM   32  C   UNL     1     -10.779  19.753  67.071  1.00  0.00    -0.542 C  
ENDBRANCH  27  28
ENDBRANCH   1  27
TORSDOF 12
ENDMDL
MODEL        2
REMARK 921   NORMALIZED FREE ENERGY PREDICTED BY IDOCK:   -6.58 KCAL/MOL
REMARK 922        TOTAL FREE ENERGY PREDICTED BY IDOCK:  -13.24 KCAL/MOL
REMARK 923 INTER-LIGAND FREE ENERGY PREDICTED BY IDOCK:  -11.17 KCAL/MOL
REMARK 924 INTRA-LIGAND FREE ENERGY PREDICTED BY IDOCK:   -2.08 KCAL/MOL
REMARK 927      BINDING AFFINITY PREDICTED BY RF-SCORE:    0.00 PKD
ROOT
HETATM    1  C   UNL     1      -9.951  15.580  66.595  1.00  0.00    -0.261 C  
ENDROOT
BRANCH   1   2
HETATM    2  C   UNL     1      -9.341  14.435  67.469  1.00  0.00    -0.198 C  
HETATM    3  O   UNL     1      -8.652  13.469  66.663  1.00  0.00    -0.432 OA 
HETATM    4  H   UNL     1      -8.280  12.773  67.193  1.00  0.00     0.000 HD 
BRANCH   2   5
HETATM    5  C   UNL     1     -10.365  13.761  68.385  1.00  0.00    -0.247 A  
HETATM    6  C   UNL     1     -11.535   9.893  70.687  1.00  0.00    -0.334 C  
HETATM    7  C   UNL     1     -11.285  11.709  69.323  1.00  0.00    -0.265 A  
HETATM    8  C   UNL     1     -11.177  14.487  69.277  1.00  0.00    -0.309 A  
HETATM    9  C   UNL     1     -12.093  12.441  70.193  1.00  0.00    -0.290 A  
HETATM   10  C   UNL     1     -12.892  10.436  71.105  1.00  0.00    -0.414 C  
HETATM   11  C   UNL     1     -10.461  12.356  68.397  1.00  0.00    -0.245 A  
HETATM   12  O   UNL     1     -12.906  11.870  71.138  1.00  0.00    -0.343 OA 
HETATM   13  O   UNL     1     -11.215  10.338  69.363  1.00  0.00    -0.231 OA 
HETATM   14  C   UNL     1     -12.053  13.832  70.155  1.00  0.00    -0.429 A  
ENDBRANCH   2   5
ENDBRANCH   1   2
BRANCH   1  15
HETATM   15  N   UNL     1     -10.398  14.996  65.318  1.00  0.00    -0.381 NA 
HETATM   16  H   UNL     1      -9.712  14.441  64.806  1.00  0.00     0.000 HD 
BRANCH  15  17
HETATM   17  C   UNL     1     -11.549  15.110  64.787  1.00  0.00    -0.364 C  
HETATM   18  H   UNL     1     -12.749  16.071  63.444  1.00  0.00     0.000 HD 
HETATM   19  O   UNL     1     -11.889  15.985  63.841  1.00  0.00    -0.810 OA 
BRANCH  17  20
HETATM   20  C   UNL     1     -12.678  14.213  65.228  1.00  0.00    -0.425 C  
BRANCH  20  21
HETATM   21  C   UNL     1     -12.399  12.738  64.957  1.00  0.00    -0.559 C  
BRANCH  21  22
HETATM   22  C   UNL     1     -12.063  12.446  63.493  1.00  0.00    -0.651 C  
BRANCH  22  23
HETATM   23  C   UNL     1     -10.723  11.716  63.377  1.00  0.00    -0.460 C  
BRANCH  23  24
HETATM   24  C   UNL     1     -10.146  11.369  64.748  1.00  0.00    -0.326 C  
BRANCH  24  25
HETATM   25  C   UNL     1      -9.633   9.929  64.780  1.00  0.00    -0.339 C  
HETATM   26  C   UNL     1      -9.703   9.341  66.180  1.00  0.00    -0.349 C  
ENDBRANCH  24  25
ENDBRANCH  23  24
ENDBRANCH  22  23
ENDBRANCH  21  22
ENDBRANCH  20  21
ENDBRANCH  17  20
ENDBRANCH  15  17
ENDBRANCH   1  15
BRANCH   1  27
HETATM   27  C   UNL     1      -8.983  16.733  66.156  1.00  0.00    -0.260 C  
BRANCH  27  28
HETATM   28  N   UNL     1      -9.437  18.138  66.008  1.00  0.00    -0.519 NA 
HETATM   29  C   UNL     1      -8.318  19.054  66.331  1.00  0.00    -0.307 C  
HETATM   30  C   UNL     1     -10.518  18.473  66.936  1.00  0.00    -0.396 C  
HETATM   31  C   UNL     1      -8.881  20.216  67.137  1.00  0.00    -0.446 C  
HETATM   32  C   UNL     1     -10.363  19.947  67.254  1.00  0.00    -0.574 C  
ENDBRANCH  27  28
ENDBRANCH   1  27
TORSDOF 12
ENDMDL
MODEL        3
REMARK 921   NORMALIZED FREE ENERGY PREDICTED BY IDOCK:   -6.45 KCAL/MOL
REMARK 922        TOTAL FREE ENERGY PREDICTED BY IDOCK:  -13.03 KCAL/MOL
REMARK 923 INTER-LIGAND FREE ENERGY PREDICTED BY IDOCK:  -11.30 KCAL/MOL
REMARK 924 INTRA-LIGAND FREE ENERGY PREDICTED BY IDOCK:   -1.73 KCAL/MOL
REMARK 927      BINDING AFFINITY PREDICTED BY RF-SCORE:    0.00 PKD
ROOT
HETATM    1  C   UNL     1     -10.869  12.133  66.864  1.00  0.00    -0.250 C  
ENDROOT
BRANCH   1   2
HETATM    2  C   UNL     1     -10.984  11.120  68.051  1.00  0.00    -0.252 C  
HETATM    3  O   UNL     1     -11.638   9.909  67.646  1.00  0.00    -0.479 OA 
HETATM    4  H   UNL     1     -11.708   9.293  68.367  1.00  0.00     0.000 HD 
BRANCH   2   5
HETATM    5  C   UNL     1     -11.646  11.718  69.295  1.00  0.00    -0.378 A  
HETATM    6  C   UNL     1     -13.919  15.356  71.092  1.00  0.00    -0.316 C  
HETATM    7  C   UNL     1     -12.497  13.683  70.457  1.00  0.00    -0.324 A  
HETATM    8  C   UNL     1     -12.197  10.922  70.317  1.00  0.00    -0.432 A  
HETATM    9  C   UNL     1     -13.029  12.883  71.469  1.00  0.00    -0.294 A  
HETATM   10  C   UNL     1     -13.885  14.801  72.506  1.00  0.00    -0.458 C  
HETATM   11  C   UNL     1     -11.775  13.116  69.403  1.00  0.00    -0.386 A  
HETATM   12  O   UNL     1     -13.766  13.372  72.517  1.00  0.00    -0.613 OA 
HETATM   13  O   UNL     1     -12.697  15.040  70.413  1.00  0.00    -0.351 OA 
HETATM   14  C   UNL     1     -12.861  11.502  71.408  1.00  0.00    -0.489 A  
ENDBRANCH   2   5
ENDBRANCH   1   2
BRANCH   1  15
HETATM   15  N   UNL     1     -12.158  12.154  66.151  1.00  0.00    -0.590 NA 
HETATM   16  H   UNL     1     -12.837  11.440  66.415  1.00  0.00     0.000 HD 
BRANCH  15  17
HETATM   17  C   UNL     1     -12.513  12.969  65.240  1.00  0.00    -0.499 C  
HETATM   18  H   UNL     1     -13.231  13.248  63.350  1.00  0.00     0.000 HD 
HETATM   19  O   UNL     1     -12.966  12.639  64.030  1.00  0.00    -0.712 OA 
BRANCH  17  20
HETATM   20  C   UNL     1     -12.432  14.455  65.481  1.00  0.00    -0.356 C  
BRANCH  20  21
HETATM   21  C   UNL     1     -11.275  15.111  64.734  1.00  0.00    -0.396 C  
BRANCH  21  22
HETATM   22  C   UNL     1     -10.412  16.007  65.625  1.00  0.00    -0.416 C  
BRANCH  22  23
HETATM   23  C   UNL     1     -10.756  15.802  67.101  1.00  0.00    -0.312 C  
BRANCH  23  24
HETATM   24  C   UNL     1     -10.672  17.108  67.890  1.00  0.00    -0.355 C  
BRANCH  24  25
HETATM   25  C   UNL     1     -10.081  18.229  67.035  1.00  0.00    -0.370 C  
HETATM   26  C   UNL     1     -10.555  19.596  67.499  1.00  0.00    -0.577 C  
ENDBRANCH  24  25
ENDBRANCH  23  24
ENDBRANCH  22  23
ENDBRANCH  21  22
ENDBRANCH  20  21
ENDBRANCH  17  20
ENDBRANCH  15  17
ENDBRANCH   1  15
BRANCH   1  27
HETATM   27  C   UNL     1      -9.828  11.797  65.740  1.00  0.00    -0.240 C  
BRANCH  27  28
HETATM   28  N   UNL     1     -10.100  10.797  64.679  1.00  0.00    -0.322 NA 
HETATM   29  C   UNL     1      -9.176   9.649  64.835  1.00  0.00    -0.246 C  
HETATM   30  C   UNL     1      -9.860  11.332  63.338  1.00  0.00    -0.385 C  
HETATM   31  C   UNL     1      -8.712   9.228  63.448  1.00  0.00    -0.193 C  
HETATM   32  C   UNL     1      -9.411  10.161  62.486  1.00  0.00    -0.313 C  
ENDBRANCH  27  28
ENDBRANCH   1  27
TORSDOF 12
ENDMDL
MODEL        4
REMARK 921   NORMALIZED FREE ENERGY PREDICTED BY IDOCK:   -6.31 KCAL/MOL
REMARK 922        TOTAL FREE ENERGY PREDICTED BY IDOCK:  -12.80 KCAL/MOL
REMARK 923 INTER-LIGAND FREE ENERGY PREDICTED BY IDOCK:  -11.01 KCAL/MOL
REMARK 924 INTRA-LIGAND FREE ENERGY PREDICTED BY IDOCK:   -1.79 KCAL/MOL
REMARK 927      BINDING AFFINITY PREDICTED BY RF-SCORE:    0.00 PKD
ROOT
HETATM    1  C   UNL     1     -10.918  11.907  66.847  1.00  0.00    -0.289 C  
ENDROOT
BRANCH   1   2
HETATM    2  C   UNL     1     -11.098  11.618  68.374  1.00  0.00    -0.234 C  
HETATM    3  O   UNL     1     -12.108  10.627  68.605  1.00  0.00    -0.777 OA 
HETATM    4  H   UNL     1     -12.218  10.451  69.533  1.00  0.00     0.000 HD 
BRANCH   2   5
HETATM    5  C   UNL     1     -11.358  12.879  69.202  1.00  0.00    -0.329 A  
HETATM    6  C   UNL     1     -12.811  14.594  73.273  1.00  0.00    -0.467 C  
HETATM    7  C   UNL     1     -12.438  13.919  71.122  1.00  0.00    -0.372 A  
HETATM    8  C   UNL     1     -10.656  14.081  68.994  1.00  0.00    -0.205 A  
HETATM    9  C   UNL     1     -11.744  15.109  70.897  1.00  0.00    -0.332 A  
HETATM   10  C   UNL     1     -12.760  16.036  72.794  1.00  0.00    -0.455 C  
HETATM   11  C   UNL     1     -12.284  12.828  70.263  1.00  0.00    -0.351 A  
HETATM   12  O   UNL     1     -11.832  16.207  71.714  1.00  0.00    -0.472 OA 
HETATM   13  O   UNL     1     -13.254  13.740  72.212  1.00  0.00    -0.408 OA 
HETATM   14  C   UNL     1     -10.867  15.195  69.819  1.00  0.00    -0.298 A  
ENDBRANCH   2   5
ENDBRANCH   1   2
BRANCH   1  15
HETATM   15  N   UNL     1     -12.224  12.313  66.299  1.00  0.00    -0.557 NA 
HETATM   16  H   UNL     1     -13.049  11.898  66.732  1.00  0.00     0.000 HD 
BRANCH  15  17
HETATM   17  C   UNL     1     -12.431  13.126  65.342  1.00  0.00    -0.481 C  
HETATM   18  H   UNL     1     -13.300  13.482  63.530  1.00  0.00     0.000 HD 
HETATM   19  O   UNL     1     -13.145  12.875  64.244  1.00  0.00    -0.631 OA 
BRANCH  17  20
HETATM   20  C   UNL     1     -11.838  14.512  65.385  1.00  0.00    -0.344 C  
BRANCH  20  21
HETATM   21  C   UNL     1     -10.364  14.533  64.995  1.00  0.00    -0.442 C  
BRANCH  21  22
HETATM   22  C   UNL     1      -9.550  15.573  65.769  1.00  0.00    -0.367 C  
BRANCH  22  23
HETATM   23  C   UNL     1     -10.383  16.827  66.039  1.00  0.00    -0.346 C  
BRANCH  23  24
HETATM   24  C   UNL     1      -9.879  17.590  67.263  1.00  0.00    -0.294 C  
BRANCH  24  25
HETATM   25  C   UNL     1     -10.480  18.995  67.320  1.00  0.00    -0.533 C  
HETATM   26  C   UNL     1     -10.080  19.824  66.112  1.00  0.00    -0.600 C  
ENDBRANCH  24  25
ENDBRANCH  23  24
ENDBRANCH  22  23
ENDBRANCH  21  22
ENDBRANCH  20  21
ENDBRANCH  17  20
ENDBRANCH  15  17
ENDBRANCH   1  15
BRANCH   1  27
HETATM   27  C   UNL     1     -10.493  10.701  65.939  1.00  0.00    -0.174 C  
BRANCH  27  28
HETATM   28  N   UNL     1      -9.460  10.826  64.883  1.00  0.00    -0.224 NA 
HETATM   29  C   UNL     1     -10.118  10.982  63.564  1.00  0.00    -0.373 C  
HETATM   30  C   UNL     1      -8.622   9.630  64.780  1.00  0.00    -0.179 C  
HETATM   31  C   UNL     1      -9.343  10.151  62.552  1.00  0.00    -0.313 C  
HETATM   32  C   UNL     1      -8.206   9.525  63.327  1.00  0.00    -0.162 C  
ENDBRANCH  27  28
ENDBRANCH   1  27
TORSDOF 12
ENDMDL
MODEL        5
REMARK 921   NORMALIZED FREE ENERGY PREDICTED BY IDOCK:   -6.30 KCAL/MOL
REMARK 922        TOTAL FREE ENERGY PREDICTED BY IDOCK:  -12.77 KCAL/MOL
REMARK 923 INTER-LIGAND FREE ENERGY PREDICTED BY IDOCK:  -11.14 KCAL/MOL
REMARK 924 INTRA-LIGAND FREE ENERGY PREDICTED BY IDOCK:   -1.64 KCAL/MOL
REMARK 927      BINDING AFFINITY PREDICTED BY RF-SCORE:    0.00 PKD
ROOT
HETATM    1  C   UNL     1     -11.246  14.384  67.847  1.00  0.00    -0.286 C  
ENDROOT
BRANCH   1   2
HETATM    2  C   UNL     1     -11.541  14.692  69.352  1.00  0.00    -0.305 C  
HETATM    3  O   UNL     1     -10.399  15.262  70.004  1.00  0.00    -0.372 OA 
HETATM    4  H   UNL     1     -10.577  15.450  70.919  1.00  0.00     0.000 HD 
BRANCH   2   5
HETATM    5  C   UNL     1     -12.074  13.483  70.124  1.00  0.00    -0.425 A  
HETATM    6  C   UNL     1     -11.325   9.071  71.390  1.00  0.00    -0.323 C  
HETATM    7  C   UNL     1     -11.997  11.084  70.543  1.00  0.00    -0.379 A  
HETATM    8  C   UNL     1     -12.937  13.609  71.230  1.00  0.00    -0.399 A  
HETATM    9  C   UNL     1     -12.862  11.222  71.629  1.00  0.00    -0.405 A  
HETATM   10  C   UNL     1     -12.696   8.919  72.028  1.00  0.00    -0.394 C  
HETATM   11  C   UNL     1     -11.639  12.191  69.769  1.00  0.00    -0.334 A  
HETATM   12  O   UNL     1     -13.235  10.182  72.442  1.00  0.00    -0.344 OA 
HETATM   13  O   UNL     1     -11.419   9.883  70.213  1.00  0.00    -0.260 OA 
HETATM   14  C   UNL     1     -13.347  12.484  71.960  1.00  0.00    -0.528 A  
ENDBRANCH   2   5
ENDBRANCH   1   2
BRANCH   1  15
HETATM   15  N   UNL     1     -11.011  15.661  67.153  1.00  0.00    -0.304 NA 
HETATM   16  H   UNL     1     -11.572  16.457  67.459  1.00  0.00     0.000 HD 
BRANCH  15  17
HETATM   17  C   UNL     1     -10.181  15.879  66.212  1.00  0.00    -0.311 C  
HETATM   18  H   UNL     1      -9.853  16.553  64.314  1.00  0.00     0.000 HD 
HETATM   19  O   UNL     1     -10.472  16.391  65.017  1.00  0.00    -0.642 OA 
BRANCH  17  20
HETATM   20  C   UNL     1      -8.723  15.539  66.396  1.00  0.00    -0.333 C  
BRANCH  20  21
HETATM   21  C   UNL     1      -7.828  16.774  66.411  1.00  0.00    -0.353 C  
BRANCH  21  22
HETATM   22  C   UNL     1      -7.708  17.416  67.795  1.00  0.00    -0.200 C  
BRANCH  22  23
HETATM   23  C   UNL     1      -8.244  18.849  67.780  1.00  0.00    -0.296 C  
BRANCH  23  24
HETATM   24  C   UNL     1      -8.453  19.361  66.355  1.00  0.00    -0.361 C  
BRANCH  24  25
HETATM   25  C   UNL     1      -9.887  19.852  66.152  1.00  0.00    -0.562 C  
HETATM   26  C   UNL     1     -10.784  19.454  67.313  1.00  0.00    -0.603 C  
ENDBRANCH  24  25
ENDBRANCH  23  24
ENDBRANCH  22  23
ENDBRANCH  21  22
ENDBRANCH  20  21
ENDBRANCH  17  20
ENDBRANCH  15  17
ENDBRANCH   1  15
BRANCH   1  27
HETATM   27  C   UNL     1     -12.400  13.719  67.018  1.00  0.00    -0.247 C  
BRANCH  27  28
HETATM   28  N   UNL     1     -12.185  12.513  66.181  1.00  0.00    -0.608 NA 
HETATM   29  C   UNL     1     -10.738  12.194  66.139  1.00  0.00    -0.272 C  
HETATM   30  C   UNL     1     -12.596  12.720  64.792  1.00  0.00    -0.446 C  
HETATM   31  C   UNL     1     -10.391  11.776  64.717  1.00  0.00    -0.333 C  
HETATM   32  C   UNL     1     -11.689  11.850  63.945  1.00  0.00    -0.509 C  
ENDBRANCH  27  28
ENDBRANCH   1  27
TORSDOF 12
ENDMDL
MODEL        6
REMARK 921   NORMALIZED FREE ENERGY PREDICTED BY IDOCK:   -6.20 KCAL/MOL
REMARK 922        TOTAL FREE ENERGY PREDICTED BY IDOCK:  -12.61 KCAL/MOL
REMARK 923 INTER-LIGAND FREE ENERGY PREDICTED BY IDOCK:  -10.55 KCAL/MOL
REMARK 924 INTRA-LIGAND FREE ENERGY PREDICTED BY IDOCK:   -2.06 KCAL/MOL
REMARK 927      BINDING AFFINITY PREDICTED BY RF-SCORE:    0.00 PKD
ROOT
HETATM    1  C   UNL     1     -11.531  14.463  68.811  1.00  0.00    -0.289 C  
ENDROOT
BRANCH   1   2
HETATM    2  C   UNL     1     -11.983  12.967  68.871  1.00  0.00    -0.250 C  
HETATM    3  O   UNL     1     -11.693  12.381  70.147  1.00  0.00    -0.489 OA 
HETATM    4  H   UNL     1     -11.967  11.471  70.184  1.00  0.00     0.000 HD 
BRANCH   2   5
HETATM    5  C   UNL     1     -11.418  12.118  67.729  1.00  0.00    -0.398 A  
HETATM    6  C   UNL     1     -10.050  12.038  63.285  1.00  0.00    -0.345 C  
HETATM    7  C   UNL     1     -11.029  11.839  65.340  1.00  0.00    -0.297 A  
HETATM    8  C   UNL     1     -10.612  10.985  67.953  1.00  0.00    -0.244 A  
HETATM    9  C   UNL     1     -10.242  10.711  65.576  1.00  0.00    -0.262 A  
HETATM   10  C   UNL     1      -9.845  10.532  63.275  1.00  0.00    -0.253 C  
HETATM   11  C   UNL     1     -11.648  12.513  66.397  1.00  0.00    -0.449 A  
HETATM   12  O   UNL     1      -9.589  10.019  64.589  1.00  0.00    -0.289 OA 
HETATM   13  O   UNL     1     -11.191  12.371  64.085  1.00  0.00    -0.323 OA 
HETATM   14  C   UNL     1     -10.051  10.273  66.884  1.00  0.00    -0.274 A  
ENDBRANCH   2   5
ENDBRANCH   1   2
BRANCH   1  15
HETATM   15  N   UNL     1     -10.102  14.526  69.162  1.00  0.00    -0.372 NA 
HETATM   16  H   UNL     1      -9.792  13.922  69.924  1.00  0.00     0.000 HD 
BRANCH  15  17
HETATM   17  C   UNL     1      -9.212  15.253  68.615  1.00  0.00    -0.201 C  
HETATM   18  H   UNL     1      -7.900  16.808  68.786  1.00  0.00     0.000 HD 
HETATM   19  O   UNL     1      -8.565  16.265  69.194  1.00  0.00    -0.248 OA 
BRANCH  17  20
HETATM   20  C   UNL     1      -8.813  15.010  67.181  1.00  0.00    -0.233 C  
BRANCH  20  21
HETATM   21  C   UNL     1      -8.958  16.254  66.310  1.00  0.00    -0.366 C  
BRANCH  21  22
HETATM   22  C   UNL     1     -10.401  16.752  66.204  1.00  0.00    -0.338 C  
BRANCH  22  23
HETATM   23  C   UNL     1     -10.442  18.272  66.037  1.00  0.00    -0.380 C  
BRANCH  23  24
HETATM   24  C   UNL     1     -10.694  18.981  67.367  1.00  0.00    -0.559 C  
BRANCH  24  25
HETATM   25  C   UNL     1      -9.746  20.168  67.545  1.00  0.00    -0.557 C  
HETATM   26  C   UNL     1      -8.487  20.009  66.709  1.00  0.00    -0.380 C  
ENDBRANCH  24  25
ENDBRANCH  23  24
ENDBRANCH  22  23
ENDBRANCH  21  22
ENDBRANCH  20  21
ENDBRANCH  17  20
ENDBRANCH  15  17
ENDBRANCH   1  15
BRANCH   1  27
HETATM   27  C   UNL     1     -12.205  15.451  69.826  1.00  0.00    -0.306 C  
BRANCH  27  28
HETATM   28  N   UNL     1     -12.432  15.097  71.248  1.00  0.00    -0.314 NA 
HETATM   29  C   UNL     1     -13.878  15.196  71.557  1.00  0.00    -0.508 C  
HETATM   30  C   UNL     1     -11.757  16.019  72.164  1.00  0.00    -0.488 C  
HETATM   31  C   UNL     1     -14.022  15.829  72.933  1.00  0.00    -0.467 C  
HETATM   32  C   UNL     1     -12.611  16.078  73.414  1.00  0.00    -0.673 C  
ENDBRANCH  27  28
ENDBRANCH   1  27
TORSDOF 12
ENDMDL
MODEL        7
REMARK 921   NORMALIZED FREE ENERGY PREDICTED BY IDOCK:   -6.17 KCAL/MOL
REMARK 922        TOTAL FREE ENERGY PREDICTED BY IDOCK:  -12.55 KCAL/MOL
REMARK 923 INTER-LIGAND FREE ENERGY PREDICTED BY IDOCK:  -10.90 KCAL/MOL
REMARK 924 INTRA-LIGAND FREE ENERGY PREDICTED BY IDOCK:   -1.65 KCAL/MOL
REMARK 927      BINDING AFFINITY PREDICTED BY RF-SCORE:    0.00 PKD
ROOT
HETATM    1  C   UNL     1     -10.351  14.016  66.259  1.00  0.00    -0.293 C  
ENDROOT
BRANCH   1   2
HETATM    2  C   UNL     1     -10.989  13.231  67.452  1.00  0.00    -0.271 C  
HETATM    3  O   UNL     1     -12.153  12.503  67.039  1.00  0.00    -0.521 OA 
HETATM    4  H   UNL     1     -12.541  12.026  67.764  1.00  0.00     0.000 HD 
BRANCH   2   5
HETATM    5  C   UNL     1     -11.290  14.114  68.666  1.00  0.00    -0.306 A  
HETATM    6  C   UNL     1     -13.248  14.356  72.877  1.00  0.00    -0.517 C  
HETATM    7  C   UNL     1     -12.586  14.490  70.694  1.00  0.00    -0.352 A  
HETATM    8  C   UNL     1     -10.483  15.211  69.024  1.00  0.00    -0.248 A  
HETATM    9  C   UNL     1     -11.786  15.582  71.031  1.00  0.00    -0.381 A  
HETATM   10  C   UNL     1     -13.023  15.854  73.002  1.00  0.00    -0.530 C  
HETATM   11  C   UNL     1     -12.373  13.788  69.505  1.00  0.00    -0.258 A  
HETATM   12  O   UNL     1     -11.927  16.299  72.191  1.00  0.00    -0.504 OA 
HETATM   13  O   UNL     1     -13.575  14.021  71.523  1.00  0.00    -0.342 OA 
HETATM   14  C   UNL     1     -10.745  15.954  70.184  1.00  0.00    -0.338 A  
ENDBRANCH   2   5
ENDBRANCH   1   2
BRANCH   1  15
HETATM   15  N   UNL     1     -11.283  15.084  65.859  1.00  0.00    -0.336 NA 
HETATM   16  H   UNL     1     -12.273  14.916  66.041  1.00  0.00     0.000 HD 
BRANCH  15  17
HETATM   17  C   UNL     1     -10.985  16.194  65.313  1.00  0.00    -0.270 C  
HETATM   18  H   UNL     1     -11.239  17.477  63.745  1.00  0.00     0.000 HD 
HETATM   19  O   UNL     1     -11.462  16.648  64.154  1.00  0.00    -1.131 OA 
BRANCH  17  20
HETATM   20  C   UNL     1     -10.002  17.125  65.978  1.00  0.00    -0.270 C  
BRANCH  20  21
HETATM   21  C   UNL     1     -10.454  18.581  65.946  1.00  0.00    -0.379 C  
BRANCH  21  22
HETATM   22  C   UNL     1     -10.800  19.137  67.329  1.00  0.00    -0.529 C  
BRANCH  22  23
HETATM   23  C   UNL     1      -9.674  20.030  67.854  1.00  0.00    -0.517 C  
BRANCH  23  24
HETATM   24  C   UNL     1      -8.638  19.231  68.644  1.00  0.00    -0.401 C  
BRANCH  24  25
HETATM   25  C   UNL     1      -7.216  19.615  68.232  1.00  0.00    -0.341 C  
HETATM   26  C   UNL     1      -7.195  20.912  67.441  1.00  0.00    -0.396 C  
ENDBRANCH  24  25
ENDBRANCH  23  24
ENDBRANCH  22  23
ENDBRANCH  21  22
ENDBRANCH  20  21
ENDBRANCH  17  20
ENDBRANCH  15  17
ENDBRANCH   1  15
BRANCH   1  27
HETATM   27  C   UNL     1     -10.110  13.218  64.930  1.00  0.00    -0.226 C  
BRANCH  27  28
HETATM   28  N   UNL     1     -10.101  11.736  64.884  1.00  0.00    -0.253 NA 
HETATM   29  C   UNL     1      -8.914  11.227  65.611  1.00  0.00    -0.163 C  
HETATM   30  C   UNL     1      -9.990  11.224  63.517  1.00  0.00    -0.376 C  
HETATM   31  C   UNL     1      -8.339  10.063  64.815  1.00  0.00    -0.166 C  
HETATM   32  C   UNL     1      -9.243   9.909  63.614  1.00  0.00    -0.283 C  
ENDBRANCH  27  28
ENDBRANCH   1  27
TORSDOF 12
ENDMDL
MODEL        8
REMARK 921   NORMALIZED FREE ENERGY PREDICTED BY IDOCK:   -6.16 KCAL/MOL
REMARK 922        TOTAL FREE ENERGY PREDICTED BY IDOCK:  -12.53 KCAL/MOL
REMARK 923 INTER-LIGAND FREE ENERGY PREDICTED BY IDOCK:  -11.48 KCAL/MOL
REMARK 924 INTRA-LIGAND FREE ENERGY PREDICTED BY IDOCK:   -1.05 KCAL/MOL
REMARK 927      BINDING AFFINITY PREDICTED BY RF-SCORE:    0.00 PKD
ROOT
HETATM    1  C   UNL     1     -12.219  13.508  69.060  1.00  0.00    -0.186 C  
ENDROOT
BRANCH   1   2
HETATM    2  C   UNL     1     -11.492  12.186  68.646  1.00  0.00    -0.296 C  
HETATM    3  O   UNL     1     -11.899  11.748  67.343  1.00  0.00    -0.590 OA 
HETATM    4  H   UNL     1     -11.458  10.944  67.091  1.00  0.00     0.000 HD 
BRANCH   2   5
HETATM    5  C   UNL     1     -11.639  11.065  69.679  1.00  0.00    -0.390 A  
HETATM    6  C   UNL     1      -9.482   8.397  72.818  1.00  0.00    -0.242 C  
HETATM    7  C   UNL     1     -10.583   9.361  71.063  1.00  0.00    -0.330 A  
HETATM    8  C   UNL     1     -12.847  10.812  70.356  1.00  0.00    -0.285 A  
HETATM    9  C   UNL     1     -11.791   9.112  71.718  1.00  0.00    -0.383 A  
HETATM   10  C   UNL     1     -10.708   7.534  73.069  1.00  0.00    -0.384 C  
HETATM   11  C   UNL     1     -10.512  10.294  70.025  1.00  0.00    -0.293 A  
HETATM   12  O   UNL     1     -11.923   8.228  72.757  1.00  0.00    -0.377 OA 
HETATM   13  O   UNL     1      -9.409   8.753  71.432  1.00  0.00    -0.210 OA 
HETATM   14  C   UNL     1     -12.928   9.826  71.349  1.00  0.00    -0.490 A  
ENDBRANCH   2   5
ENDBRANCH   1   2
BRANCH   1  15
HETATM   15  N   UNL     1     -12.166  14.438  67.919  1.00  0.00    -0.620 NA 
HETATM   16  H   UNL     1     -12.809  14.253  67.149  1.00  0.00     0.000 HD 
BRANCH  15  17
HETATM   17  C   UNL     1     -11.403  15.449  67.792  1.00  0.00    -0.306 C  
HETATM   18  H   UNL     1     -10.913  17.337  68.395  1.00  0.00     0.000 HD 
HETATM   19  O   UNL     1     -11.483  16.582  68.490  1.00  0.00    -0.317 OA 
BRANCH  17  20
HETATM   20  C   UNL     1     -10.292  15.434  66.772  1.00  0.00    -0.279 C  
BRANCH  20  21
HETATM   21  C   UNL     1     -10.809  15.497  65.338  1.00  0.00    -0.402 C  
BRANCH  21  22
HETATM   22  C   UNL     1     -10.676  14.168  64.590  1.00  0.00    -0.408 C  
BRANCH  22  23
HETATM   23  C   UNL     1     -12.044  13.669  64.120  1.00  0.00    -0.484 C  
BRANCH  23  24
HETATM   24  C   UNL     1     -12.029  12.169  63.825  1.00  0.00    -0.607 C  
BRANCH  24  25
HETATM   25  C   UNL     1     -10.614  11.686  63.504  1.00  0.00    -0.496 C  
HETATM   26  C   UNL     1     -10.155  10.615  64.479  1.00  0.00    -0.421 C  
ENDBRANCH  24  25
ENDBRANCH  23  24
ENDBRANCH  22  23
ENDBRANCH  21  22
ENDBRANCH  20  21
ENDBRANCH  17  20
ENDBRANCH  15  17
ENDBRANCH   1  15
BRANCH   1  27
HETATM   27  C   UNL     1     -11.587  14.328  70.237  1.00  0.00    -0.224 C  
BRANCH  27  28
HETATM   28  N   UNL     1     -12.186  14.361  71.594  1.00  0.00    -0.338 NA 
HETATM   29  C   UNL     1     -13.661  14.447  71.480  1.00  0.00    -0.382 C  
HETATM   30  C   UNL     1     -11.768  15.538  72.357  1.00  0.00    -0.471 C  
HETATM   31  C   UNL     1     -14.158  15.420  72.540  1.00  0.00    -0.593 C  
HETATM   32  C   UNL     1     -12.922  15.879  73.279  1.00  0.00    -0.677 C  
ENDBRANCH  27  28
ENDBRANCH   1  27
TORSDOF 12
ENDMDL
MODEL        9
REMARK 921   NORMALIZED FREE ENERGY PREDICTED BY IDOCK:   -6.12 KCAL/MOL
REMARK 922        TOTAL FREE ENERGY PREDICTED BY IDOCK:  -12.46 KCAL/MOL
REMARK 923 INTER-LIGAND FREE ENERGY PREDICTED BY IDOCK:  -10.94 KCAL/MOL
REMARK 924 INTRA-LIGAND FREE ENERGY PREDICTED BY IDOCK:   -1.52 KCAL/MOL
REMARK 927      BINDING AFFINITY PREDICTED BY RF-SCORE:    0.00 PKD
ROOT
HETATM    1  C   UNL     1     -10.777  14.299  67.391  1.00  0.00    -0.282 C  
ENDROOT
BRANCH   1   2
HETATM    2  C   UNL     1     -10.899  14.689  68.901  1.00  0.00    -0.250 C  
HETATM    3  O   UNL     1      -9.621  15.008  69.466  1.00  0.00    -0.363 OA 
HETATM    4  H   UNL     1      -9.695  15.245  70.384  1.00  0.00     0.000 HD 
BRANCH   2   5
HETATM    5  C   UNL     1     -11.630  13.638  69.741  1.00  0.00    -0.322 A  
HETATM    6  C   UNL     1     -11.512   9.332  71.495  1.00  0.00    -0.384 C  
HETATM    7  C   UNL     1     -11.873  11.305  70.399  1.00  0.00    -0.350 A  
HETATM    8  C   UNL     1     -12.549  13.978  70.751  1.00  0.00    -0.431 A  
HETATM    9  C   UNL     1     -12.793  11.655  71.389  1.00  0.00    -0.356 A  
HETATM   10  C   UNL     1     -12.935   9.405  72.025  1.00  0.00    -0.423 C  
HETATM   11  C   UNL     1     -11.328  12.274  69.553  1.00  0.00    -0.258 A  
HETATM   12  O   UNL     1     -13.346  10.758  72.265  1.00  0.00    -0.385 OA 
HETATM   13  O   UNL     1     -11.421  10.018  70.240  1.00  0.00    -0.265 OA 
HETATM   14  C   UNL     1     -13.145  12.993  71.550  1.00  0.00    -0.400 A  
ENDBRANCH   2   5
ENDBRANCH   1   2
BRANCH   1  15
HETATM   15  N   UNL     1      -9.947  15.314  66.720  1.00  0.00    -0.237 NA 
HETATM   16  H   UNL     1      -8.946  15.123  66.670  1.00  0.00     0.000 HD 
BRANCH  15  17
HETATM   17  C   UNL     1     -10.346  16.402  66.194  1.00  0.00    -0.344 C  
HETATM   18  H   UNL     1     -10.848  17.427  64.502  1.00  0.00     0.000 HD 
HETATM   19  O   UNL     1     -10.550  16.614  64.894  1.00  0.00    -0.694 OA 
BRANCH  17  20
HETATM   20  C   UNL     1     -10.623  17.604  67.062  1.00  0.00    -0.254 C  
BRANCH  20  21
HETATM   21  C   UNL     1     -10.469  18.921  66.310  1.00  0.00    -0.510 C  
BRANCH  21  22
HETATM   22  C   UNL     1      -9.862  20.037  67.164  1.00  0.00    -0.563 C  
BRANCH  22  23
HETATM   23  C   UNL     1      -9.338  19.484  68.491  1.00  0.00    -0.435 C  
BRANCH  23  24
HETATM   24  C   UNL     1      -7.812  19.521  68.558  1.00  0.00    -0.382 C  
BRANCH  24  25
HETATM   25  C   UNL     1      -7.219  18.123  68.376  1.00  0.00    -0.264 C  
HETATM   26  C   UNL     1      -6.694  17.918  66.965  1.00  0.00    -0.203 C  
ENDBRANCH  24  25
ENDBRANCH  23  24
ENDBRANCH  22  23
ENDBRANCH  21  22
ENDBRANCH  20  21
ENDBRANCH  17  20
ENDBRANCH  15  17
ENDBRANCH   1  15
BRANCH   1  27
HETATM   27  C   UNL     1     -12.101  14.287  66.550  1.00  0.00    -0.429 C  
BRANCH  27  28
HETATM   28  N   UNL     1     -12.416  13.212  65.579  1.00  0.00    -0.470 NA 
HETATM   29  C   UNL     1     -11.461  12.092  65.756  1.00  0.00    -0.361 C  
HETATM   30  C   UNL     1     -12.269  13.656  64.192  1.00  0.00    -0.399 C  
HETATM   31  C   UNL     1     -11.073  11.583  64.374  1.00  0.00    -0.359 C  
HETATM   32  C   UNL     1     -11.848  12.436  63.396  1.00  0.00    -0.571 C  
ENDBRANCH  27  28
ENDBRANCH   1  27
TORSDOF 12
ENDMDL
MODEL       10
REMARK 921   NORMALIZED FREE ENERGY PREDICTED BY IDOCK:   -6.09 KCAL/MOL
REMARK 922        TOTAL FREE ENERGY PREDICTED BY IDOCK:  -12.42 KCAL/MOL
REMARK 923 INTER-LIGAND FREE ENERGY PREDICTED BY IDOCK:  -10.50 KCAL/MOL
REMARK 924 INTRA-LIGAND FREE ENERGY PREDICTED BY IDOCK:   -1.92 KCAL/MOL
REMARK 927      BINDING AFFINITY PREDICTED BY RF-SCORE:    0.00 PKD
ROOT
HETATM    1  C   UNL     1     -10.711  12.135  67.363  1.00  0.00    -0.234 C  
ENDROOT
BRANCH   1   2
HETATM    2  C   UNL     1     -11.035  11.122  68.509  1.00  0.00    -0.220 C  
HETATM    3  O   UNL     1     -11.776   9.996  68.021  1.00  0.00    -0.645 OA 
HETATM    4  H   UNL     1     -11.973   9.380  68.718  1.00  0.00     0.000 HD 
BRANCH   2   5
HETATM    5  C   UNL     1     -11.736  11.769  69.708  1.00  0.00    -0.408 A  
HETATM    6  C   UNL     1     -13.909  15.544  71.337  1.00  0.00    -0.405 C  
HETATM    7  C   UNL     1     -12.546  13.790  70.801  1.00  0.00    -0.340 A  
HETATM    8  C   UNL     1     -12.389  11.016  70.701  1.00  0.00    -0.480 A  
HETATM    9  C   UNL     1     -13.180  13.031  71.786  1.00  0.00    -0.392 A  
HETATM   10  C   UNL     1     -13.990  15.004  72.755  1.00  0.00    -0.278 C  
HETATM   11  C   UNL     1     -11.795  13.174  69.796  1.00  0.00    -0.386 A  
HETATM   12  O   UNL     1     -13.949  13.570  72.784  1.00  0.00    -0.733 OA 
HETATM   13  O   UNL     1     -12.669  15.156  70.734  1.00  0.00    -0.350 OA 
HETATM   14  C   UNL     1     -13.083  11.642  71.746  1.00  0.00    -0.487 A  
ENDBRANCH   2   5
ENDBRANCH   1   2
BRANCH   1  15
HETATM   15  N   UNL     1     -11.771  12.033  66.345  1.00  0.00    -0.565 NA 
HETATM   16  H   UNL     1     -12.086  11.092  66.108  1.00  0.00     0.000 HD 
BRANCH  15  17
HETATM   17  C   UNL     1     -12.335  12.994  65.730  1.00  0.00    -0.416 C  
HETATM   18  H   UNL     1     -13.637  13.593  64.277  1.00  0.00     0.000 HD 
HETATM   19  O   UNL     1     -13.216  12.876  64.736  1.00  0.00    -0.764 OA 
BRANCH  17  20
HETATM   20  C   UNL     1     -12.017  14.420  66.102  1.00  0.00    -0.381 C  
BRANCH  20  21
HETATM   21  C   UNL     1     -11.006  15.064  65.158  1.00  0.00    -0.417 C  
BRANCH  21  22
HETATM   22  C   UNL     1     -10.336  16.306  65.748  1.00  0.00    -0.393 C  
BRANCH  22  23
HETATM   23  C   UNL     1     -10.632  16.428  67.244  1.00  0.00    -0.293 C  
BRANCH  23  24
HETATM   24  C   UNL     1      -9.594  17.291  67.959  1.00  0.00    -0.274 C  
BRANCH  24  25
HETATM   25  C   UNL     1      -9.248  18.532  67.135  1.00  0.00    -0.280 C  
HETATM   26  C   UNL     1     -10.240  19.658  67.377  1.00  0.00    -0.561 C  
ENDBRANCH  24  25
ENDBRANCH  23  24
ENDBRANCH  22  23
ENDBRANCH  21  22
ENDBRANCH  20  21
ENDBRANCH  17  20
ENDBRANCH  15  17
ENDBRANCH   1  15
BRANCH   1  27
HETATM   27  C   UNL     1      -9.392  11.891  66.550  1.00  0.00    -0.216 C  
BRANCH  27  28
HETATM   28  N   UNL     1      -8.095  12.498  66.938  1.00  0.00    -0.095 NA 
HETATM   29  C   UNL     1      -7.429  11.637  67.944  1.00  0.00    -0.105 C  
HETATM   30  C   UNL     1      -8.262  13.808  67.570  1.00  0.00    -0.188 C  
HETATM   31  C   UNL     1      -6.805  12.543  68.997  1.00  0.00    -0.089 C  
HETATM   32  C   UNL     1      -7.120  13.953  68.556  1.00  0.00    -0.104 C  
ENDBRANCH  27  28
ENDBRANCH   1  27
TORSDOF 12
ENDMDL
MODEL       11
REMARK 921   NORMALIZED FREE ENERGY PREDICTED BY IDOCK:   -6.08 KCAL/MOL
REMARK 922        TOTAL FREE ENERGY PREDICTED BY IDOCK:  -12.40 KCAL/MOL
REMARK 923 INTER-LIGAND FREE ENERGY PREDICTED BY IDOCK:  -10.28 KCAL/MOL
REMARK 924 INTRA-LIGAND FREE ENERGY PREDICTED BY IDOCK:   -2.12 KCAL/MOL
REMARK 927      BINDING AFFINITY PREDICTED BY RF-SCORE:    0.00 PKD
ROOT
HETATM    1  C   UNL     1     -10.741  15.423  68.629  1.00  0.00    -0.246 C  
ENDROOT
BRANCH   1   2
HETATM    2  C   UNL     1     -11.870  15.623  69.693  1.00  0.00    -0.362 C  
HETATM    3  O   UNL     1     -11.482  16.567  70.700  1.00  0.00    -0.541 OA 
HETATM    4  H   UNL     1     -12.168  16.689  71.346  1.00  0.00     0.000 HD 
BRANCH   2   5
HETATM    5  C   UNL     1     -12.351  14.311  70.319  1.00  0.00    -0.418 A  
HETATM    6  C   UNL     1     -11.589   9.747  70.786  1.00  0.00    -0.339 C  
HETATM    7  C   UNL     1     -12.294  11.876  70.344  1.00  0.00    -0.251 A  
HETATM    8  C   UNL     1     -13.088  14.268  71.517  1.00  0.00    -0.413 A  
HETATM    9  C   UNL     1     -13.035  11.847  71.526  1.00  0.00    -0.323 A  
HETATM   10  C   UNL     1     -12.889   9.509  71.537  1.00  0.00    -0.377 C  
HETATM   11  C   UNL     1     -11.990  13.088  69.719  1.00  0.00    -0.377 A  
HETATM   12  O   UNL     1     -13.347  10.695  72.200  1.00  0.00    -0.444 OA 
HETATM   13  O   UNL     1     -11.785  10.737  69.769  1.00  0.00    -0.270 OA 
HETATM   14  C   UNL     1     -13.449  13.046  72.102  1.00  0.00    -0.638 A  
ENDBRANCH   2   5
ENDBRANCH   1   2
BRANCH   1  15
HETATM   15  N   UNL     1      -9.472  15.194  69.341  1.00  0.00    -0.353 NA 
HETATM   16  H   UNL     1      -9.454  15.442  70.331  1.00  0.00     0.000 HD 
BRANCH  15  17
HETATM   17  C   UNL     1      -8.397  14.721  68.854  1.00  0.00    -0.163 C  
HETATM   18  H   UNL     1      -6.359  14.624  68.923  1.00  0.00     0.000 HD 
HETATM   19  O   UNL     1      -7.162  14.978  69.287  1.00  0.00    -0.150 OA 
BRANCH  17  20
HETATM   20  C   UNL     1      -8.449  13.786  67.672  1.00  0.00    -0.183 C  
BRANCH  20  21
HETATM   21  C   UNL     1      -8.689  12.335  68.078  1.00  0.00    -0.181 C  
BRANCH  21  22
HETATM   22  C   UNL     1      -9.751  11.637  67.226  1.00  0.00    -0.192 C  
BRANCH  22  23
HETATM   23  C   UNL     1     -10.309  12.586  66.165  1.00  0.00    -0.274 C  
BRANCH  23  24
HETATM   24  C   UNL     1     -11.807  12.373  65.945  1.00  0.00    -0.467 C  
BRANCH  24  25
HETATM   25  C   UNL     1     -12.533  13.708  65.775  1.00  0.00    -0.524 C  
HETATM   26  C   UNL     1     -12.032  14.465  64.556  1.00  0.00    -0.487 C  
ENDBRANCH  24  25
ENDBRANCH  23  24
ENDBRANCH  22  23
ENDBRANCH  21  22
ENDBRANCH  20  21
ENDBRANCH  17  20
ENDBRANCH  15  17
ENDBRANCH   1  15
BRANCH   1  27
HETATM   27  C   UNL     1     -10.424  16.640  67.690  1.00  0.00    -0.320 C  
BRANCH  27  28
HETATM   28  N   UNL     1     -10.105  17.988  68.218  1.00  0.00    -0.364 NA 
HETATM   29  C   UNL     1     -10.856  19.009  67.450  1.00  0.00    -0.409 C  
HETATM   30  C   UNL     1      -8.689  18.324  68.063  1.00  0.00    -0.276 C  
HETATM   31  C   UNL     1      -9.929  20.193  67.212  1.00  0.00    -0.583 C  
HETATM   32  C   UNL     1      -8.625  19.827  67.881  1.00  0.00    -0.360 C  
ENDBRANCH  27  28
ENDBRANCH   1  27
TORSDOF 12
ENDMDL
MODEL       12
REMARK 921   NORMALIZED FREE ENERGY PREDICTED BY IDOCK:   -6.07 KCAL/MOL
REMARK 922        TOTAL FREE ENERGY PREDICTED BY IDOCK:  -12.39 KCAL/MOL
REMARK 923 INTER-LIGAND FREE ENERGY PREDICTED BY IDOCK:  -11.06 KCAL/MOL
REMARK 924 INTRA-LIGAND FREE ENERGY PREDICTED BY IDOCK:   -1.33 KCAL/MOL
REMARK 927      BINDING AFFINITY PREDICTED BY RF-SCORE:    0.00 PKD
ROOT
HETATM    1  C   UNL     1     -11.294  14.528  69.042  1.00  0.00    -0.272 C  
ENDROOT
BRANCH   1   2
HETATM    2  C   UNL     1      -9.904  14.734  68.355  1.00  0.00    -0.220 C  
HETATM    3  O   UNL     1      -8.838  14.206  69.156  1.00  0.00    -0.373 OA 
HETATM    4  H   UNL     1      -7.993  14.331  68.739  1.00  0.00     0.000 HD 
BRANCH   2   5
HETATM    5  C   UNL     1      -9.633  16.189  67.961  1.00  0.00    -0.220 A  
HETATM    6  C   UNL     1      -6.716  19.798  68.278  1.00  0.00    -0.280 C  
HETATM    7  C   UNL     1      -8.399  18.253  68.350  1.00  0.00    -0.307 A  
HETATM    8  C   UNL     1     -10.152  16.766  66.787  1.00  0.00    -0.295 A  
HETATM    9  C   UNL     1      -8.931  18.817  67.190  1.00  0.00    -0.281 A  
HETATM   10  C   UNL     1      -7.669  20.753  67.577  1.00  0.00    -0.235 C  
HETATM   11  C   UNL     1      -8.776  16.971  68.759  1.00  0.00    -0.244 A  
HETATM   12  O   UNL     1      -8.587  20.059  66.721  1.00  0.00    -0.315 OA 
HETATM   13  O   UNL     1      -7.453  18.895  69.111  1.00  0.00    -0.297 OA 
HETATM   14  C   UNL     1      -9.824  18.078  66.419  1.00  0.00    -0.340 A  
ENDBRANCH   2   5
ENDBRANCH   1   2
BRANCH   1  15
HETATM   15  N   UNL     1     -12.304  14.338  67.987  1.00  0.00    -0.564 NA 
HETATM   16  H   UNL     1     -13.106  14.969  68.004  1.00  0.00     0.000 HD 
BRANCH  15  17
HETATM   17  C   UNL     1     -12.284  13.470  67.057  1.00  0.00    -0.303 C  
HETATM   18  H   UNL     1     -11.976  11.529  66.505  1.00  0.00     0.000 HD 
HETATM   19  O   UNL     1     -11.991  12.177  67.200  1.00  0.00    -0.580 OA 
BRANCH  17  20
HETATM   20  C   UNL     1     -12.599  13.874  65.638  1.00  0.00    -0.553 C  
BRANCH  20  21
HETATM   21  C   UNL     1     -11.420  13.671  64.692  1.00  0.00    -0.383 C  
BRANCH  21  22
HETATM   22  C   UNL     1     -11.653  12.559  63.667  1.00  0.00    -0.580 C  
BRANCH  22  23
HETATM   23  C   UNL     1     -10.416  11.668  63.540  1.00  0.00    -0.498 C  
BRANCH  23  24
HETATM   24  C   UNL     1      -9.762  11.408  64.896  1.00  0.00    -0.283 C  
BRANCH  24  25
HETATM   25  C   UNL     1      -9.429   9.926  65.071  1.00  0.00    -0.343 C  
HETATM   26  C   UNL     1     -10.067   9.353  66.325  1.00  0.00    -0.328 C  
ENDBRANCH  24  25
ENDBRANCH  23  24
ENDBRANCH  22  23
ENDBRANCH  21  22
ENDBRANCH  20  21
ENDBRANCH  17  20
ENDBRANCH  15  17
ENDBRANCH   1  15
BRANCH   1  27
HETATM   27  C   UNL     1     -11.857  15.727  69.882  1.00  0.00    -0.344 C  
BRANCH  27  28
HETATM   28  N   UNL     1     -12.815  15.535  70.998  1.00  0.00    -0.467 NA 
HETATM   29  C   UNL     1     -12.206  16.018  72.260  1.00  0.00    -0.519 C  
HETATM   30  C   UNL     1     -13.136  14.124  71.216  1.00  0.00    -0.350 C  
HETATM   31  C   UNL     1     -12.568  15.034  73.363  1.00  0.00    -0.641 C  
HETATM   32  C   UNL     1     -13.419  13.976  72.698  1.00  0.00    -0.650 C  
ENDBRANCH  27  28
ENDBRANCH   1  27
TORSDOF 12
ENDMDL
MODEL       13
REMARK 921   NORMALIZED FREE ENERGY PREDICTED BY IDOCK:   -6.05 KCAL/MOL
REMARK 922        TOTAL FREE ENERGY PREDICTED BY IDOCK:  -12.36 KCAL/MOL
REMARK 923 INTER-LIGAND FREE ENERGY PREDICTED BY IDOCK:  -10.81 KCAL/MOL
REMARK 924 INTRA-LIGAND FREE ENERGY PREDICTED BY IDOCK:   -1.54 KCAL/MOL
REMARK 927      BINDING AFFINITY PREDICTED BY RF-SCORE:    0.00 PKD
ROOT
HETATM    1  C   UNL     1     -11.743  15.278  68.454  1.00  0.00    -0.321 C  
ENDROOT
BRANCH   1   2
HETATM    2  C   UNL     1     -11.726  13.717  68.358  1.00  0.00    -0.358 C  
HETATM    3  O   UNL     1     -10.807  13.143  69.298  1.00  0.00    -0.417 OA 
HETATM    4  H   UNL     1     -10.796  12.195  69.240  1.00  0.00     0.000 HD 
BRANCH   2   5
HETATM    5  C   UNL     1     -11.463  13.201  66.941  1.00  0.00    -0.384 A  
HETATM    6  C   UNL     1      -9.318  10.006  64.329  1.00  0.00    -0.288 C  
HETATM    7  C   UNL     1     -10.110  11.839  65.441  1.00  0.00    -0.254 A  
HETATM    8  C   UNL     1     -12.370  13.396  65.882  1.00  0.00    -0.493 A  
HETATM    9  C   UNL     1     -11.011  12.050  64.397  1.00  0.00    -0.333 A  
HETATM   10  C   UNL     1      -9.708  10.675  63.020  1.00  0.00    -0.323 C  
HETATM   11  C   UNL     1     -10.305  12.440  66.688  1.00  0.00    -0.245 A  
HETATM   12  O   UNL     1     -10.891  11.473  63.160  1.00  0.00    -0.306 OA 
HETATM   13  O   UNL     1      -9.029  11.000  65.319  1.00  0.00    -0.199 OA 
HETATM   14  C   UNL     1     -12.133  12.846  64.614  1.00  0.00    -0.474 A  
ENDBRANCH   2   5
ENDBRANCH   1   2
BRANCH   1  15
HETATM   15  N   UNL     1     -10.560  15.796  67.747  1.00  0.00    -0.284 NA 
HETATM   16  H   UNL     1      -9.659  15.398  68.014  1.00  0.00     0.000 HD 
BRANCH  15  17
HETATM   17  C   UNL     1     -10.541  16.688  66.839  1.00  0.00    -0.229 C  
HETATM   18  H   UNL     1     -10.346  17.138  64.858  1.00  0.00     0.000 HD 
HETATM   19  O   UNL     1     -10.360  16.472  65.536  1.00  0.00    -0.509 OA 
BRANCH  17  20
HETATM   20  C   UNL     1     -10.723  18.140  67.202  1.00  0.00    -0.309 C  
BRANCH  20  21
HETATM   21  C   UNL     1     -10.506  19.075  66.016  1.00  0.00    -0.530 C  
BRANCH  21  22
HETATM   22  C   UNL     1      -9.667  20.307  66.363  1.00  0.00    -0.488 C  
BRANCH  22  23
HETATM   23  C   UNL     1      -8.191  19.935  66.514  1.00  0.00    -0.364 C  
BRANCH  23  24
HETATM   24  C   UNL     1      -7.679  20.210  67.928  1.00  0.00    -0.294 C  
BRANCH  24  25
HETATM   25  C   UNL     1      -7.499  18.908  68.710  1.00  0.00    -0.360 C  
HETATM   26  C   UNL     1      -6.476  17.998  68.052  1.00  0.00    -0.188 C  
ENDBRANCH  24  25
ENDBRANCH  23  24
ENDBRANCH  22  23
ENDBRANCH  21  22
ENDBRANCH  20  21
ENDBRANCH  17  20
ENDBRANCH  15  17
ENDBRANCH   1  15
BRANCH   1  27
HETATM   27  C   UNL     1     -11.623  15.904  69.887  1.00  0.00    -0.336 C  
BRANCH  27  28
HETATM   28  N   UNL     1     -12.077  15.192  71.106  1.00  0.00    -0.304 NA 
HETATM   29  C   UNL     1     -13.559  15.149  71.128  1.00  0.00    -0.456 C  
HETATM   30  C   UNL     1     -11.672  15.879  72.334  1.00  0.00    -0.477 C  
HETATM   31  C   UNL     1     -14.014  15.406  72.558  1.00  0.00    -0.640 C  
HETATM   32  C   UNL     1     -12.746  15.583  73.361  1.00  0.00    -0.653 C  
ENDBRANCH  27  28
ENDBRANCH   1  27
TORSDOF 12
ENDMDL
MODEL       14
REMARK 921   NORMALIZED FREE ENERGY PREDICTED BY IDOCK:   -6.05 KCAL/MOL
REMARK 922        TOTAL FREE ENERGY PREDICTED BY IDOCK:  -12.35 KCAL/MOL
REMARK 923 INTER-LIGAND FREE ENERGY PREDICTED BY IDOCK:  -11.40 KCAL/MOL
REMARK 924 INTRA-LIGAND FREE ENERGY PREDICTED BY IDOCK:   -0.95 KCAL/MOL
REMARK 927      BINDING AFFINITY PREDICTED BY RF-SCORE:    0.00 PKD
ROOT
HETATM    1  C   UNL     1     -12.172  13.632  68.352  1.00  0.00    -0.132 C  
ENDROOT
BRANCH   1   2
HETATM    2  C   UNL     1     -11.417  12.351  67.866  1.00  0.00    -0.328 C  
HETATM    3  O   UNL     1     -12.104  11.718  66.778  1.00  0.00    -0.547 OA 
HETATM    4  H   UNL     1     -11.646  10.940  66.483  1.00  0.00     0.000 HD 
BRANCH   2   5
HETATM    5  C   UNL     1     -11.126  11.356  68.992  1.00  0.00    -0.300 A  
HETATM    6  C   UNL     1     -12.905   8.232  71.943  1.00  0.00    -0.344 C  
HETATM    7  C   UNL     1     -11.963   9.991  70.829  1.00  0.00    -0.335 A  
HETATM    8  C   UNL     1      -9.878  10.723  69.141  1.00  0.00    -0.194 A  
HETATM    9  C   UNL     1     -10.716   9.380  70.973  1.00  0.00    -0.337 A  
HETATM   10  C   UNL     1     -11.593   8.044  72.686  1.00  0.00    -0.387 C  
HETATM   11  C   UNL     1     -12.159  10.999  69.881  1.00  0.00    -0.435 A  
HETATM   12  O   UNL     1     -10.463   8.370  71.865  1.00  0.00    -0.246 OA 
HETATM   13  O   UNL     1     -13.058   9.605  71.560  1.00  0.00    -0.353 OA 
HETATM   14  C   UNL     1      -9.668   9.761  70.140  1.00  0.00    -0.299 A  
ENDBRANCH   2   5
ENDBRANCH   1   2
BRANCH   1  15
HETATM   15  N   UNL     1     -12.133  14.629  67.268  1.00  0.00    -0.529 NA 
HETATM   16  H   UNL     1     -12.192  15.609  67.547  1.00  0.00     0.000 HD 
BRANCH  15  17
HETATM   17  C   UNL     1     -12.033  14.398  66.021  1.00  0.00    -0.367 C  
HETATM   18  H   UNL     1     -12.886  13.650  64.324  1.00  0.00     0.000 HD 
HETATM   19  O   UNL     1     -12.961  13.823  65.256  1.00  0.00    -0.731 OA 
BRANCH  17  20
HETATM   20  C   UNL     1     -10.774  14.774  65.281  1.00  0.00    -0.406 C  
BRANCH  20  21
HETATM   21  C   UNL     1      -9.636  15.169  66.216  1.00  0.00    -0.325 C  
BRANCH  21  22
HETATM   22  C   UNL     1      -9.336  16.669  66.203  1.00  0.00    -0.318 C  
BRANCH  22  23
HETATM   23  C   UNL     1      -9.577  17.285  67.582  1.00  0.00    -0.256 C  
BRANCH  23  24
HETATM   24  C   UNL     1     -10.660  18.363  67.540  1.00  0.00    -0.447 C  
BRANCH  24  25
HETATM   25  C   UNL     1     -10.279  19.487  66.576  1.00  0.00    -0.568 C  
HETATM   26  C   UNL     1      -9.037  20.228  67.042  1.00  0.00    -0.481 C  
ENDBRANCH  24  25
ENDBRANCH  23  24
ENDBRANCH  22  23
ENDBRANCH  21  22
ENDBRANCH  20  21
ENDBRANCH  17  20
ENDBRANCH  15  17
ENDBRANCH   1  15
BRANCH   1  27
HETATM   27  C   UNL     1     -11.561  14.395  69.579  1.00  0.00    -0.304 C  
BRANCH  27  28
HETATM   28  N   UNL     1     -12.355  15.338  70.405  1.00  0.00    -0.356 NA 
HETATM   29  C   UNL     1     -11.451  16.078  71.315  1.00  0.00    -0.417 C  
HETATM   30  C   UNL     1     -13.320  14.647  71.262  1.00  0.00    -0.383 C  
HETATM   31  C   UNL     1     -12.137  16.189  72.670  1.00  0.00    -0.652 C  
HETATM   32  C   UNL     1     -13.472  15.502  72.505  1.00  0.00    -0.622 C  
ENDBRANCH  27  28
ENDBRANCH   1  27
TORSDOF 12
ENDMDL
MODEL       15
REMARK 921   NORMALIZED FREE ENERGY PREDICTED BY IDOCK:   -6.04 KCAL/MOL
REMARK 922        TOTAL FREE ENERGY PREDICTED BY IDOCK:  -12.32 KCAL/MOL
REMARK 923 INTER-LIGAND FREE ENERGY PREDICTED BY IDOCK:  -10.40 KCAL/MOL
REMARK 924 INTRA-LIGAND FREE ENERGY PREDICTED BY IDOCK:   -1.92 KCAL/MOL
REMARK 927      BINDING AFFINITY PREDICTED BY RF-SCORE:    0.00 PKD
ROOT
HETATM    1  C   UNL     1     -11.422  12.919  69.316  1.00  0.00    -0.282 C  
ENDROOT
BRANCH   1   2
HETATM    2  C   UNL     1     -12.029  13.406  67.959  1.00  0.00    -0.322 C  
HETATM    3  O   UNL     1     -12.191  12.320  67.037  1.00  0.00    -0.522 OA 
HETATM    4  H   UNL     1     -12.559  12.615  66.212  1.00  0.00     0.000 HD 
BRANCH   2   5
HETATM    5  C   UNL     1     -11.247  14.559  67.326  1.00  0.00    -0.341 A  
HETATM    6  C   UNL     1      -9.265  18.712  68.000  1.00  0.00    -0.304 C  
HETATM    7  C   UNL     1     -10.506  16.877  67.437  1.00  0.00    -0.310 A  
HETATM    8  C   UNL     1     -10.399  14.382  66.216  1.00  0.00    -0.300 A  
HETATM    9  C   UNL     1      -9.678  16.690  66.329  1.00  0.00    -0.304 A  
HETATM   10  C   UNL     1      -8.948  18.908  66.526  1.00  0.00    -0.323 C  
HETATM   11  C   UNL     1     -11.316  15.840  67.907  1.00  0.00    -0.277 A  
HETATM   12  O   UNL     1      -8.843  17.657  65.832  1.00  0.00    -0.521 OA 
HETATM   13  O   UNL     1     -10.529  18.053  68.146  1.00  0.00    -0.376 OA 
HETATM   14  C   UNL     1      -9.640  15.445  65.707  1.00  0.00    -0.368 A  
ENDBRANCH   2   5
ENDBRANCH   1   2
BRANCH   1  15
HETATM   15  N   UNL     1     -11.296  11.452  69.264  1.00  0.00    -0.264 NA 
HETATM   16  H   UNL     1     -12.165  10.922  69.200  1.00  0.00     0.000 HD 
BRANCH  15  17
HETATM   17  C   UNL     1     -10.218  10.777  69.290  1.00  0.00    -0.194 C  
HETATM   18  H   UNL     1      -9.086   9.356  70.222  1.00  0.00     0.000 HD 
HETATM   19  O   UNL     1      -9.891   9.861  70.202  1.00  0.00    -0.247 OA 
BRANCH  17  20
HETATM   20  C   UNL     1      -9.167  10.988  68.230  1.00  0.00    -0.165 C  
BRANCH  20  21
HETATM   21  C   UNL     1      -8.876   9.724  67.428  1.00  0.00    -0.137 C  
BRANCH  21  22
HETATM   22  C   UNL     1      -9.707   9.616  66.148  1.00  0.00    -0.317 C  
BRANCH  22  23
HETATM   23  C   UNL     1      -9.500  10.843  65.258  1.00  0.00    -0.257 C  
BRANCH  23  24
HETATM   24  C   UNL     1     -10.288  10.737  63.953  1.00  0.00    -0.329 C  
BRANCH  24  25
HETATM   25  C   UNL     1     -10.760  12.113  63.482  1.00  0.00    -0.509 C  
HETATM   26  C   UNL     1     -12.276  12.210  63.470  1.00  0.00    -0.670 C  
ENDBRANCH  24  25
ENDBRANCH  23  24
ENDBRANCH  22  23
ENDBRANCH  21  22
ENDBRANCH  20  21
ENDBRANCH  17  20
ENDBRANCH  15  17
ENDBRANCH   1  15
BRANCH   1  27
HETATM   27  C   UNL     1     -12.275  13.172  70.608  1.00  0.00    -0.321 C  
BRANCH  27  28
HETATM   28  N   UNL     1     -12.763  14.520  70.988  1.00  0.00    -0.323 NA 
HETATM   29  C   UNL     1     -11.692  15.245  71.712  1.00  0.00    -0.418 C  
HETATM   30  C   UNL     1     -13.904  14.461  71.902  1.00  0.00    -0.462 C  
HETATM   31  C   UNL     1     -12.335  15.998  72.868  1.00  0.00    -0.609 C  
HETATM   32  C   UNL     1     -13.813  15.696  72.776  1.00  0.00    -0.628 C  
ENDBRANCH  27  28
ENDBRANCH   1  27
TORSDOF 12
ENDMDL
MODEL       16
REMARK 921   NORMALIZED FREE ENERGY PREDICTED BY IDOCK:   -6.03 KCAL/MOL
REMARK 922        TOTAL FREE ENERGY PREDICTED BY IDOCK:  -12.32 KCAL/MOL
REMARK 923 INTER-LIGAND FREE ENERGY PREDICTED BY IDOCK:  -11.26 KCAL/MOL
REMARK 924 INTRA-LIGAND FREE ENERGY PREDICTED BY IDOCK:   -1.06 KCAL/MOL
REMARK 927      BINDING AFFINITY PREDICTED BY RF-SCORE:    0.00 PKD
ROOT
HETATM    1  C   UNL     1     -12.187  13.793  69.066  1.00  0.00    -0.224 C  
ENDROOT
BRANCH   1   2
HETATM    2  C   UNL     1     -11.518  12.437  68.663  1.00  0.00    -0.303 C  
HETATM    3  O   UNL     1     -11.949  12.003  67.367  1.00  0.00    -0.583 OA 
HETATM    4  H   UNL     1     -11.542  11.179  67.122  1.00  0.00     0.000 HD 
BRANCH   2   5
HETATM    5  C   UNL     1     -11.707  11.335  69.709  1.00  0.00    -0.422 A  
HETATM    6  C   UNL     1      -9.630   8.125  72.357  1.00  0.00    -0.265 C  
HETATM    7  C   UNL     1     -10.810   9.382  70.857  1.00  0.00    -0.322 A  
HETATM    8  C   UNL     1     -12.782  11.327  70.617  1.00  0.00    -0.314 A  
HETATM    9  C   UNL     1     -11.888   9.380  71.744  1.00  0.00    -0.382 A  
HETATM   10  C   UNL     1     -10.945   7.545  72.853  1.00  0.00    -0.383 C  
HETATM   11  C   UNL     1     -10.737  10.319  69.823  1.00  0.00    -0.328 A  
HETATM   12  O   UNL     1     -12.009   8.504  72.792  1.00  0.00    -0.335 OA 
HETATM   13  O   UNL     1      -9.754   8.514  70.983  1.00  0.00    -0.171 OA 
HETATM   14  C   UNL     1     -12.885  10.342  71.609  1.00  0.00    -0.579 A  
ENDBRANCH   2   5
ENDBRANCH   1   2
BRANCH   1  15
HETATM   15  N   UNL     1     -12.312  14.622  67.855  1.00  0.00    -0.588 NA 
HETATM   16  H   UNL     1     -13.259  14.886  67.579  1.00  0.00     0.000 HD 
BRANCH  15  17
HETATM   17  C   UNL     1     -11.366  15.044  67.116  1.00  0.00    -0.320 C  
HETATM   18  H   UNL     1     -10.119  14.705  65.536  1.00  0.00     0.000 HD 
HETATM   19  O   UNL     1     -10.826  14.390  66.087  1.00  0.00    -0.300 OA 
BRANCH  17  20
HETATM   20  C   UNL     1     -10.745  16.392  67.380  1.00  0.00    -0.278 C  
BRANCH  20  21
HETATM   21  C   UNL     1     -10.107  17.001  66.135  1.00  0.00    -0.332 C  
BRANCH  21  22
HETATM   22  C   UNL     1     -10.301  18.515  66.036  1.00  0.00    -0.423 C  
BRANCH  22  23
HETATM   23  C   UNL     1     -10.755  19.096  67.377  1.00  0.00    -0.578 C  
BRANCH  23  24
HETATM   24  C   UNL     1      -9.767  20.133  67.909  1.00  0.00    -0.499 C  
BRANCH  24  25
HETATM   25  C   UNL     1      -8.552  19.458  68.548  1.00  0.00    -0.401 C  
HETATM   26  C   UNL     1      -7.251  19.976  67.958  1.00  0.00    -0.328 C  
ENDBRANCH  24  25
ENDBRANCH  23  24
ENDBRANCH  22  23
ENDBRANCH  21  22
ENDBRANCH  20  21
ENDBRANCH  17  20
ENDBRANCH  15  17
ENDBRANCH   1  15
BRANCH   1  27
HETATM   27  C   UNL     1     -11.395  14.709  70.062  1.00  0.00    -0.242 C  
BRANCH  27  28
HETATM   28  N   UNL     1     -12.075  15.607  71.027  1.00  0.00    -0.366 NA 
HETATM   29  C   UNL     1     -11.322  15.620  72.304  1.00  0.00    -0.244 C  
HETATM   30  C   UNL     1     -13.425  15.149  71.356  1.00  0.00    -0.481 C  
HETATM   31  C   UNL     1     -12.331  15.599  73.444  1.00  0.00    -0.633 C  
HETATM   32  C   UNL     1     -13.690  15.590  72.782  1.00  0.00    -0.642 C  
ENDBRANCH  27  28
ENDBRANCH   1  27
TORSDOF 12
ENDMDL
MODEL       17
REMARK 921   NORMALIZED FREE ENERGY PREDICTED BY IDOCK:   -6.01 KCAL/MOL
REMARK 922        TOTAL FREE ENERGY PREDICTED BY IDOCK:  -12.28 KCAL/MOL
REMARK 923 INTER-LIGAND FREE ENERGY PREDICTED BY IDOCK:  -11.04 KCAL/MOL
REMARK 924 INTRA-LIGAND FREE ENERGY PREDICTED BY IDOCK:   -1.25 KCAL/MOL
REMARK 927      BINDING AFFINITY PREDICTED BY RF-SCORE:    0.00 PKD
ROOT
HETATM    1  C   UNL     1     -10.768  14.871  65.655  1.00  0.00    -0.342 C  
ENDROOT
BRANCH   1   2
HETATM    2  C   UNL     1     -11.227  16.331  65.330  1.00  0.00    -0.033 C  
HETATM    3  O   UNL     1     -11.307  16.553  63.915  1.00  0.00    -1.557 OA 
HETATM    4  H   UNL     1     -11.585  17.440  63.717  1.00  0.00     0.000 HD 
BRANCH   2   5
HETATM    5  C   UNL     1     -10.370  17.401  66.011  1.00  0.00    -0.309 A  
HETATM    6  C   UNL     1      -6.115  18.600  67.457  1.00  0.00    -0.182 C  
HETATM    7  C   UNL     1      -8.296  17.993  67.145  1.00  0.00    -0.233 A  
HETATM    8  C   UNL     1     -10.699  18.769  65.981  1.00  0.00    -0.337 A  
HETATM    9  C   UNL     1      -8.641  19.346  67.118  1.00  0.00    -0.294 A  
HETATM   10  C   UNL     1      -6.601  19.864  68.147  1.00  0.00    -0.267 C  
HETATM   11  C   UNL     1      -9.166  17.024  66.639  1.00  0.00    -0.277 A  
HETATM   12  O   UNL     1      -7.825  20.347  67.577  1.00  0.00    -0.307 OA 
HETATM   13  O   UNL     1      -7.082  17.554  67.613  1.00  0.00    -0.164 OA 
HETATM   14  C   UNL     1      -9.853  19.730  66.552  1.00  0.00    -0.546 A  
ENDBRANCH   2   5
ENDBRANCH   1   2
BRANCH   1  15
HETATM   15  N   UNL     1     -10.722  14.111  64.394  1.00  0.00    -0.604 NA 
HETATM   16  H   UNL     1      -9.829  14.100  63.901  1.00  0.00     0.000 HD 
BRANCH  15  17
HETATM   17  C   UNL     1     -11.678  13.467  63.855  1.00  0.00    -0.368 C  
HETATM   18  H   UNL     1     -13.500  13.518  62.936  1.00  0.00     0.000 HD 
HETATM   19  O   UNL     1     -12.786  13.999  63.339  1.00  0.00    -0.796 OA 
BRANCH  17  20
HETATM   20  C   UNL     1     -11.622  11.963  63.768  1.00  0.00    -0.555 C  
BRANCH  20  21
HETATM   21  C   UNL     1     -10.219  11.411  63.999  1.00  0.00    -0.398 C  
BRANCH  21  22
HETATM   22  C   UNL     1     -10.161  10.350  65.100  1.00  0.00    -0.379 C  
BRANCH  22  23
HETATM   23  C   UNL     1      -9.049   9.336  64.823  1.00  0.00    -0.201 C  
BRANCH  23  24
HETATM   24  C   UNL     1      -8.933   8.302  65.942  1.00  0.00    -0.208 C  
BRANCH  24  25
HETATM   25  C   UNL     1     -10.249   8.171  66.709  1.00  0.00    -0.372 C  
HETATM   26  C   UNL     1     -10.042   8.332  68.206  1.00  0.00    -0.231 C  
ENDBRANCH  24  25
ENDBRANCH  23  24
ENDBRANCH  22  23
ENDBRANCH  21  22
ENDBRANCH  20  21
ENDBRANCH  17  20
ENDBRANCH  15  17
ENDBRANCH   1  15
BRANCH   1  27
HETATM   27  C   UNL     1     -11.713  14.016  66.569  1.00  0.00    -0.394 C  
BRANCH  27  28
HETATM   28  N   UNL     1     -11.256  13.423  67.850  1.00  0.00    -0.263 NA 
HETATM   29  C   UNL     1     -11.487  11.960  67.827  1.00  0.00    -0.319 C  
HETATM   30  C   UNL     1     -12.008  13.935  68.997  1.00  0.00    -0.364 C  
HETATM   31  C   UNL     1     -12.002  11.544  69.197  1.00  0.00    -0.386 C  
HETATM   32  C   UNL     1     -12.045  12.813  70.016  1.00  0.00    -0.355 C  
ENDBRANCH  27  28
ENDBRANCH   1  27
TORSDOF 12
ENDMDL
MODEL       18
REMARK 921   NORMALIZED FREE ENERGY PREDICTED BY IDOCK:   -6.01 KCAL/MOL
REMARK 922        TOTAL FREE ENERGY PREDICTED BY IDOCK:  -12.28 KCAL/MOL
REMARK 923 INTER-LIGAND FREE ENERGY PREDICTED BY IDOCK:  -10.43 KCAL/MOL
REMARK 924 INTRA-LIGAND FREE ENERGY PREDICTED BY IDOCK:   -1.86 KCAL/MOL
REMARK 927      BINDING AFFINITY PREDICTED BY RF-SCORE:    0.00 PKD
ROOT
HETATM    1  C   UNL     1     -10.689  15.381  68.759  1.00  0.00    -0.241 C  
ENDROOT
BRANCH   1   2
HETATM    2  C   UNL     1     -11.859  15.528  69.788  1.00  0.00    -0.359 C  
HETATM    3  O   UNL     1     -11.538  16.474  70.816  1.00  0.00    -0.562 OA 
HETATM    4  H   UNL     1     -12.249  16.564  71.442  1.00  0.00     0.000 HD 
BRANCH   2   5
HETATM    5  C   UNL     1     -12.311  14.193  70.385  1.00  0.00    -0.428 A  
HETATM    6  C   UNL     1     -11.382   9.660  70.856  1.00  0.00    -0.360 C  
HETATM    7  C   UNL     1     -12.154  11.761  70.398  1.00  0.00    -0.352 A  
HETATM    8  C   UNL     1     -13.096  14.110  71.551  1.00  0.00    -0.424 A  
HETATM    9  C   UNL     1     -12.943  11.693  71.547  1.00  0.00    -0.358 A  
HETATM   10  C   UNL     1     -12.701   9.363  71.550  1.00  0.00    -0.361 C  
HETATM   11  C   UNL     1     -11.875  12.990  69.794  1.00  0.00    -0.381 A  
HETATM   12  O   UNL     1     -13.236  10.524  72.201  1.00  0.00    -0.458 OA 
HETATM   13  O   UNL     1     -11.576  10.649  69.838  1.00  0.00    -0.265 OA 
HETATM   14  C   UNL     1     -13.430  12.869  72.112  1.00  0.00    -0.619 A  
ENDBRANCH   2   5
ENDBRANCH   1   2
BRANCH   1  15
HETATM   15  N   UNL     1      -9.650  16.367  69.101  1.00  0.00    -0.263 NA 
HETATM   16  H   UNL     1      -9.974  17.288  69.398  1.00  0.00     0.000 HD 
BRANCH  15  17
HETATM   17  C   UNL     1      -8.390  16.192  69.066  1.00  0.00    -0.247 C  
HETATM   18  H   UNL     1      -6.815  14.902  69.217  1.00  0.00     0.000 HD 
HETATM   19  O   UNL     1      -7.756  15.032  69.243  1.00  0.00    -0.173 OA 
BRANCH  17  20
HETATM   20  C   UNL     1      -7.470  17.361  68.817  1.00  0.00    -0.258 C  
BRANCH  20  21
HETATM   21  C   UNL     1      -7.197  17.590  67.334  1.00  0.00    -0.188 C  
BRANCH  21  22
HETATM   22  C   UNL     1      -6.840  19.041  67.003  1.00  0.00    -0.206 C  
BRANCH  22  23
HETATM   23  C   UNL     1      -8.009  19.746  66.314  1.00  0.00    -0.346 C  
BRANCH  23  24
HETATM   24  C   UNL     1      -8.937  20.422  67.322  1.00  0.00    -0.460 C  
BRANCH  24  25
HETATM   25  C   UNL     1     -10.316  19.761  67.330  1.00  0.00    -0.581 C  
HETATM   26  C   UNL     1     -10.674  19.198  65.964  1.00  0.00    -0.451 C  
ENDBRANCH  24  25
ENDBRANCH  23  24
ENDBRANCH  22  23
ENDBRANCH  21  22
ENDBRANCH  20  21
ENDBRANCH  17  20
ENDBRANCH  15  17
ENDBRANCH   1  15
BRANCH   1  27
HETATM   27  C   UNL     1     -11.019  15.695  67.258  1.00  0.00    -0.275 C  
BRANCH  27  28
HETATM   28  N   UNL     1     -10.907  14.673  66.190  1.00  0.00    -0.314 NA 
HETATM   29  C   UNL     1     -12.203  13.968  66.044  1.00  0.00    -0.458 C  
HETATM   30  C   UNL     1      -9.918  13.642  66.508  1.00  0.00    -0.288 C  
HETATM   31  C   UNL     1     -11.912  12.489  65.836  1.00  0.00    -0.472 C  
HETATM   32  C   UNL     1     -10.406  12.366  65.851  1.00  0.00    -0.282 C  
ENDBRANCH  27  28
ENDBRANCH   1  27
TORSDOF 12
ENDMDL
MODEL       19
REMARK 921   NORMALIZED FREE ENERGY PREDICTED BY IDOCK:   -6.01 KCAL/MOL
REMARK 922        TOTAL FREE ENERGY PREDICTED BY IDOCK:  -12.28 KCAL/MOL
REMARK 923 INTER-LIGAND FREE ENERGY PREDICTED BY IDOCK:  -10.66 KCAL/MOL
REMARK 924 INTRA-LIGAND FREE ENERGY PREDICTED BY IDOCK:   -1.62 KCAL/MOL
REMARK 927      BINDING AFFINITY PREDICTED BY RF-SCORE:    0.00 PKD
ROOT
HETATM    1  C   UNL     1     -11.266  14.389  65.732  1.00  0.00    -0.326 C  
ENDROOT
BRANCH   1   2
HETATM    2  C   UNL     1     -11.851  13.290  64.784  1.00  0.00    -0.371 C  
HETATM    3  O   UNL     1     -13.240  13.054  65.047  1.00  0.00    -0.739 OA 
HETATM    4  H   UNL     1     -13.596  12.387  64.471  1.00  0.00     0.000 HD 
BRANCH   2   5
HETATM    5  C   UNL     1     -11.053  11.984  64.807  1.00  0.00    -0.369 A  
HETATM    6  C   UNL     1      -7.799   9.407  62.708  1.00  0.00    -0.120 C  
HETATM    7  C   UNL     1      -9.656  10.379  63.620  1.00  0.00    -0.310 A  
HETATM    8  C   UNL     1     -10.781  11.282  65.996  1.00  0.00    -0.301 A  
HETATM    9  C   UNL     1      -9.404   9.686  64.804  1.00  0.00    -0.222 A  
HETATM   10  C   UNL     1      -8.016   8.214  63.624  1.00  0.00    -0.140 C  
HETATM   11  C   UNL     1     -10.504  11.490  63.607  1.00  0.00    -0.483 A  
HETATM   12  O   UNL     1      -8.566   8.605  64.890  1.00  0.00    -0.179 OA 
HETATM   13  O   UNL     1      -9.051  10.047  62.432  1.00  0.00    -0.248 OA 
HETATM   14  C   UNL     1      -9.985  10.128  65.990  1.00  0.00    -0.322 A  
ENDBRANCH   2   5
ENDBRANCH   1   2
BRANCH   1  15
HETATM   15  N   UNL     1     -12.176  14.537  66.880  1.00  0.00    -0.509 NA 
HETATM   16  H   UNL     1     -13.134  14.820  66.670  1.00  0.00     0.000 HD 
BRANCH  15  17
HETATM   17  C   UNL     1     -11.895  14.349  68.107  1.00  0.00    -0.327 C  
HETATM   18  H   UNL     1     -11.623  13.028  69.639  1.00  0.00     0.000 HD 
HETATM   19  O   UNL     1     -11.833  13.168  68.723  1.00  0.00    -0.303 OA 
BRANCH  17  20
HETATM   20  C   UNL     1     -11.606  15.526  69.005  1.00  0.00    -0.377 C  
BRANCH  20  21
HETATM   21  C   UNL     1     -11.173  15.105  70.406  1.00  0.00    -0.310 C  
BRANCH  21  22
HETATM   22  C   UNL     1     -11.717  16.018  71.506  1.00  0.00    -0.554 C  
BRANCH  22  23
HETATM   23  C   UNL     1     -13.063  15.507  72.023  1.00  0.00    -0.535 C  
BRANCH  23  24
HETATM   24  C   UNL     1     -12.915  14.192  72.786  1.00  0.00    -0.516 C  
BRANCH  24  25
HETATM   25  C   UNL     1     -13.882  13.134  72.253  1.00  0.00    -0.586 C  
HETATM   26  C   UNL     1     -13.154  11.859  71.859  1.00  0.00    -0.474 C  
ENDBRANCH  24  25
ENDBRANCH  23  24
ENDBRANCH  22  23
ENDBRANCH  21  22
ENDBRANCH  20  21
ENDBRANCH  17  20
ENDBRANCH  15  17
ENDBRANCH   1  15
BRANCH   1  27
HETATM   27  C   UNL     1     -11.159  15.843  65.154  1.00  0.00    -0.311 C  
BRANCH  27  28
HETATM   28  N   UNL     1      -9.981  16.711  65.400  1.00  0.00    -0.553 NA 
HETATM   29  C   UNL     1      -9.050  16.027  66.329  1.00  0.00    -0.344 C  
HETATM   30  C   UNL     1     -10.346  17.972  66.045  1.00  0.00    -0.331 C  
HETATM   31  C   UNL     1      -8.519  17.065  67.308  1.00  0.00    -0.210 C  
HETATM   32  C   UNL     1      -9.161  18.371  66.902  1.00  0.00    -0.287 C  
ENDBRANCH  27  28
ENDBRANCH   1  27
TORSDOF 12
ENDMDL
MODEL       20
REMARK 921   NORMALIZED FREE ENERGY PREDICTED BY IDOCK:   -6.01 KCAL/MOL
REMARK 922        TOTAL FREE ENERGY PREDICTED BY IDOCK:  -12.28 KCAL/MOL
REMARK 923 INTER-LIGAND FREE ENERGY PREDICTED BY IDOCK:  -10.50 KCAL/MOL
REMARK 924 INTRA-LIGAND FREE ENERGY PREDICTED BY IDOCK:   -1.77 KCAL/MOL
REMARK 927      BINDING AFFINITY PREDICTED BY RF-SCORE:    0.00 PKD
ROOT
HETATM    1  C   UNL     1     -10.718  11.837  66.875  1.00  0.00    -0.250 C  
ENDROOT
BRANCH   1   2
HETATM    2  C   UNL     1     -10.006  12.669  67.992  1.00  0.00    -0.220 C  
HETATM    3  O   UNL     1      -9.207  11.835  68.841  1.00  0.00    -0.393 OA 
HETATM    4  H   UNL     1      -8.774  12.340  69.520  1.00  0.00     0.000 HD 
BRANCH   2   5
HETATM    5  C   UNL     1     -10.969  13.532  68.811  1.00  0.00    -0.291 A  
HETATM    6  C   UNL     1     -13.536  13.850  72.676  1.00  0.00    -0.546 C  
HETATM    7  C   UNL     1     -12.635  13.679  70.583  1.00  0.00    -0.296 A  
HETATM    8  C   UNL     1     -10.973  14.938  68.743  1.00  0.00    -0.259 A  
HETATM    9  C   UNL     1     -12.637  15.072  70.497  1.00  0.00    -0.369 A  
HETATM   10  C   UNL     1     -14.186  15.157  72.252  1.00  0.00    -0.517 C  
HETATM   11  C   UNL     1     -11.845  12.911  69.723  1.00  0.00    -0.380 A  
HETATM   12  O   UNL     1     -13.369  15.884  71.324  1.00  0.00    -0.507 OA 
HETATM   13  O   UNL     1     -13.354  13.001  71.536  1.00  0.00    -0.318 OA 
HETATM   14  C   UNL     1     -11.819  15.700  69.562  1.00  0.00    -0.387 A  
ENDBRANCH   2   5
ENDBRANCH   1   2
BRANCH   1  15
HETATM   15  N   UNL     1     -12.024  12.459  66.599  1.00  0.00    -0.596 NA 
HETATM   16  H   UNL     1     -12.694  12.473  67.369  1.00  0.00     0.000 HD 
BRANCH  15  17
HETATM   17  C   UNL     1     -12.405  12.982  65.504  1.00  0.00    -0.472 C  
HETATM   18  H   UNL     1     -13.251  12.724  63.664  1.00  0.00     0.000 HD 
HETATM   19  O   UNL     1     -12.966  12.334  64.482  1.00  0.00    -0.738 OA 
BRANCH  17  20
HETATM   20  C   UNL     1     -12.227  14.461  65.269  1.00  0.00    -0.377 C  
BRANCH  20  21
HETATM   21  C   UNL     1     -10.882  14.799  64.635  1.00  0.00    -0.312 C  
BRANCH  21  22
HETATM   22  C   UNL     1      -9.992  15.662  65.531  1.00  0.00    -0.364 C  
BRANCH  22  23
HETATM   23  C   UNL     1     -10.525  17.093  65.614  1.00  0.00    -0.208 C  
BRANCH  23  24
HETATM   24  C   UNL     1     -10.161  17.758  66.940  1.00  0.00    -0.342 C  
BRANCH  24  25
HETATM   25  C   UNL     1     -10.735  19.173  67.022  1.00  0.00    -0.542 C  
HETATM   26  C   UNL     1      -9.635  20.220  67.091  1.00  0.00    -0.580 C  
ENDBRANCH  24  25
ENDBRANCH  23  24
ENDBRANCH  22  23
ENDBRANCH  21  22
ENDBRANCH  20  21
ENDBRANCH  17  20
ENDBRANCH  15  17
ENDBRANCH   1  15
BRANCH   1  27
HETATM   27  C   UNL     1     -11.081  10.350  67.219  1.00  0.00    -0.179 C  
BRANCH  27  28
HETATM   28  N   UNL     1     -10.051   9.291  67.353  1.00  0.00    -0.206 NA 
HETATM   29  C   UNL     1      -9.074   9.410  66.244  1.00  0.00    -0.163 C  
HETATM   30  C   UNL     1     -10.620   7.946  67.250  1.00  0.00    -0.295 C  
HETATM   31  C   UNL     1      -8.739   8.005  65.761  1.00  0.00    -0.175 C  
HETATM   32  C   UNL     1      -9.543   7.073  66.639  1.00  0.00    -0.220 C  
ENDBRANCH  27  28
ENDBRANCH   1  27
TORSDOF 12
ENDMDL
MODEL       21
REMARK 921   NORMALIZED FREE ENERGY PREDICTED BY IDOCK:   -5.99 KCAL/MOL
REMARK 922        TOTAL FREE ENERGY PREDICTED BY IDOCK:  -12.25 KCAL/MOL
REMARK 923 INTER-LIGAND FREE ENERGY PREDICTED BY IDOCK:  -10.84 KCAL/MOL
REMARK 924 INTRA-LIGAND FREE ENERGY PREDICTED BY IDOCK:   -1.41 KCAL/MOL
REMARK 927      BINDING AFFINITY PREDICTED BY RF-SCORE:    0.00 PKD
ROOT
HETATM    1  C   UNL     1     -11.129  13.513  68.272  1.00  0.00    -0.261 C  
ENDROOT
BRANCH   1   2
HETATM    2  C   UNL     1      -9.630  13.884  68.024  1.00  0.00    -0.219 C  
HETATM    3  O   UNL     1      -8.845  13.722  69.213  1.00  0.00    -0.260 OA 
HETATM    4  H   UNL     1      -7.934  13.948  69.063  1.00  0.00     0.000 HD 
BRANCH   2   5
HETATM    5  C   UNL     1      -9.444  15.280  67.424  1.00  0.00    -0.200 A  
HETATM    6  C   UNL     1     -10.527  19.793  67.730  1.00  0.00    -0.416 C  
HETATM    7  C   UNL     1     -10.217  17.583  67.236  1.00  0.00    -0.335 A  
HETATM    8  C   UNL     1      -8.292  15.649  66.704  1.00  0.00    -0.310 A  
HETATM    9  C   UNL     1      -9.076  17.932  66.513  1.00  0.00    -0.261 A  
HETATM   10  C   UNL     1      -9.834  20.147  66.424  1.00  0.00    -0.435 C  
HETATM   11  C   UNL     1     -10.426  16.265  67.651  1.00  0.00    -0.295 A  
HETATM   12  O   UNL     1      -8.800  19.209  66.097  1.00  0.00    -0.399 OA 
HETATM   13  O   UNL     1     -11.156  18.510  67.619  1.00  0.00    -0.260 OA 
HETATM   14  C   UNL     1      -8.122  16.958  66.231  1.00  0.00    -0.351 A  
ENDBRANCH   2   5
ENDBRANCH   1   2
BRANCH   1  15
HETATM   15  N   UNL     1     -11.279  13.122  69.685  1.00  0.00    -0.474 NA 
HETATM   16  H   UNL     1     -10.535  12.546  70.080  1.00  0.00     0.000 HD 
BRANCH  15  17
HETATM   17  C   UNL     1     -12.237  13.427  70.464  1.00  0.00    -0.352 C  
HETATM   18  H   UNL     1     -13.541  14.848  71.134  1.00  0.00     0.000 HD 
HETATM   19  O   UNL     1     -12.825  14.620  70.551  1.00  0.00    -0.353 OA 
BRANCH  17  20
HETATM   20  C   UNL     1     -12.801  12.395  71.409  1.00  0.00    -0.360 C  
BRANCH  20  21
HETATM   21  C   UNL     1     -12.547  10.966  70.941  1.00  0.00    -0.494 C  
BRANCH  21  22
HETATM   22  C   UNL     1     -13.141   9.910  71.875  1.00  0.00    -0.559 C  
BRANCH  22  23
HETATM   23  C   UNL     1     -12.230   8.683  71.960  1.00  0.00    -0.439 C  
BRANCH  23  24
HETATM   24  C   UNL     1     -12.764   7.522  71.123  1.00  0.00    -0.279 C  
BRANCH  24  25
HETATM   25  C   UNL     1     -11.704   6.432  70.955  1.00  0.00    -0.358 C  
HETATM   26  C   UNL     1     -11.158   6.398  69.538  1.00  0.00    -0.460 C  
ENDBRANCH  24  25
ENDBRANCH  23  24
ENDBRANCH  22  23
ENDBRANCH  21  22
ENDBRANCH  20  21
ENDBRANCH  17  20
ENDBRANCH  15  17
ENDBRANCH   1  15
BRANCH   1  27
HETATM   27  C   UNL     1     -11.696  12.280  67.485  1.00  0.00    -0.332 C  
BRANCH  27  28
HETATM   28  N   UNL     1     -12.112  12.368  66.064  1.00  0.00    -0.638 NA 
HETATM   29  C   UNL     1     -10.974  11.992  65.193  1.00  0.00    -0.310 C  
HETATM   30  C   UNL     1     -12.487  13.729  65.678  1.00  0.00    -0.503 C  
HETATM   31  C   UNL     1     -10.959  12.942  64.004  1.00  0.00    -0.447 C  
HETATM   32  C   UNL     1     -12.136  13.867  64.210  1.00  0.00    -0.477 C  
ENDBRANCH  27  28
ENDBRANCH   1  27
TORSDOF 12
ENDMDL
MODEL       22
REMARK 921   NORMALIZED FREE ENERGY PREDICTED BY IDOCK:   -5.98 KCAL/MOL
REMARK 922        TOTAL FREE ENERGY PREDICTED BY IDOCK:  -12.23 KCAL/MOL
REMARK 923 INTER-LIGAND FREE ENERGY PREDICTED BY IDOCK:  -10.70 KCAL/MOL
REMARK 924 INTRA-LIGAND FREE ENERGY PREDICTED BY IDOCK:   -1.53 KCAL/MOL
REMARK 927      BINDING AFFINITY PREDICTED BY RF-SCORE:    0.00 PKD
ROOT
HETATM    1  C   UNL     1     -10.949  14.971  66.284  1.00  0.00    -0.338 C  
ENDROOT
BRANCH   1   2
HETATM    2  C   UNL     1     -11.693  13.823  65.525  1.00  0.00    -0.346 C  
HETATM    3  O   UNL     1     -13.109  14.044  65.495  1.00  0.00    -0.713 OA 
HETATM    4  H   UNL     1     -13.561  13.346  65.035  1.00  0.00     0.000 HD 
BRANCH   2   5
HETATM    5  C   UNL     1     -11.361  12.428  66.063  1.00  0.00    -0.397 A  
HETATM    6  C   UNL     1      -8.569   8.724  65.730  1.00  0.00    -0.164 C  
HETATM    7  C   UNL     1     -10.229  10.294  65.748  1.00  0.00    -0.219 A  
HETATM    8  C   UNL     1     -11.659  12.033  67.381  1.00  0.00    -0.388 A  
HETATM    9  C   UNL     1     -10.542   9.909  67.053  1.00  0.00    -0.203 A  
HETATM   10  C   UNL     1      -9.381   7.902  66.718  1.00  0.00    -0.184 C  
HETATM   11  C   UNL     1     -10.669  11.519  65.239  1.00  0.00    -0.337 A  
HETATM   12  O   UNL     1     -10.123   8.734  67.621  1.00  0.00    -0.187 OA 
HETATM   13  O   UNL     1      -9.442   9.526  64.926  1.00  0.00    -0.259 OA 
HETATM   14  C   UNL     1     -11.275  10.773  67.863  1.00  0.00    -0.386 A  
ENDBRANCH   2   5
ENDBRANCH   1   2
BRANCH   1  15
HETATM   15  N   UNL     1     -11.744  15.328  67.471  1.00  0.00    -0.275 NA 
HETATM   16  H   UNL     1     -12.757  15.364  67.348  1.00  0.00     0.000 HD 
BRANCH  15  17
HETATM   17  C   UNL     1     -11.303  15.596  68.634  1.00  0.00    -0.357 C  
HETATM   18  H   UNL     1     -10.443  16.957  69.889  1.00  0.00     0.000 HD 
HETATM   19  O   UNL     1     -10.773  16.757  69.021  1.00  0.00    -0.322 OA 
BRANCH  17  20
HETATM   20  C   UNL     1     -11.343  14.549  69.718  1.00  0.00    -0.305 C  
BRANCH  20  21
HETATM   21  C   UNL     1     -12.763  14.202  70.150  1.00  0.00    -0.227 C  
BRANCH  21  22
HETATM   22  C   UNL     1     -12.816  13.202  71.307  1.00  0.00    -0.384 C  
BRANCH  22  23
HETATM   23  C   UNL     1     -13.649  13.752  72.466  1.00  0.00    -0.680 C  
BRANCH  23  24
HETATM   24  C   UNL     1     -13.919  15.248  72.310  1.00  0.00    -0.646 C  
BRANCH  24  25
HETATM   25  C   UNL     1     -12.922  16.074  73.123  1.00  0.00    -0.627 C  
HETATM   26  C   UNL     1     -12.322  15.266  74.261  1.00  0.00    -0.755 C  
ENDBRANCH  24  25
ENDBRANCH  23  24
ENDBRANCH  22  23
ENDBRANCH  21  22
ENDBRANCH  20  21
ENDBRANCH  17  20
ENDBRANCH  15  17
ENDBRANCH   1  15
BRANCH   1  27
HETATM   27  C   UNL     1     -10.783  16.334  65.525  1.00  0.00    -0.313 C  
BRANCH  27  28
HETATM   28  N   UNL     1      -9.549  17.151  65.620  1.00  0.00    -0.525 NA 
HETATM   29  C   UNL     1      -8.505  16.386  66.342  1.00  0.00    -0.329 C  
HETATM   30  C   UNL     1      -9.755  18.381  66.386  1.00  0.00    -0.339 C  
HETATM   31  C   UNL     1      -7.781  17.346  67.275  1.00  0.00    -0.221 C  
HETATM   32  C   UNL     1      -8.431  18.692  67.055  1.00  0.00    -0.275 C  
ENDBRANCH  27  28
ENDBRANCH   1  27
TORSDOF 12
ENDMDL
MODEL       23
REMARK 921   NORMALIZED FREE ENERGY PREDICTED BY IDOCK:   -5.96 KCAL/MOL
REMARK 922        TOTAL FREE ENERGY PREDICTED BY IDOCK:  -12.19 KCAL/MOL
REMARK 923 INTER-LIGAND FREE ENERGY PREDICTED BY IDOCK:  -10.10 KCAL/MOL
REMARK 924 INTRA-LIGAND FREE ENERGY PREDICTED BY IDOCK:   -2.09 KCAL/MOL
REMARK 927      BINDING AFFINITY PREDICTED BY RF-SCORE:    0.00 PKD
ROOT
HETATM    1  C   UNL     1      -9.834   9.936  69.309  1.00  0.00    -0.207 C  
ENDROOT
BRANCH   1   2
HETATM    2  C   UNL     1     -11.378  10.117  69.134  1.00  0.00    -0.143 C  
HETATM    3  O   UNL     1     -11.716  10.475  67.787  1.00  0.00    -0.687 OA 
HETATM    4  H   UNL     1     -12.654  10.585  67.680  1.00  0.00     0.000 HD 
BRANCH   2   5
HETATM    5  C   UNL     1     -11.991  11.097  70.138  1.00  0.00    -0.449 A  
HETATM    6  C   UNL     1     -13.536  15.424  70.863  1.00  0.00    -0.367 C  
HETATM    7  C   UNL     1     -12.476  13.401  70.763  1.00  0.00    -0.341 A  
HETATM    8  C   UNL     1     -12.790  10.676  71.218  1.00  0.00    -0.535 A  
HETATM    9  C   UNL     1     -13.256  12.970  71.838  1.00  0.00    -0.430 A  
HETATM   10  C   UNL     1     -13.745  15.202  72.352  1.00  0.00    -0.496 C  
HETATM   11  C   UNL     1     -11.813  12.482  69.946  1.00  0.00    -0.373 A  
HETATM   12  O   UNL     1     -13.949  13.817  72.663  1.00  0.00    -0.710 OA 
HETATM   13  O   UNL     1     -12.363  14.727  70.424  1.00  0.00    -0.306 OA 
HETATM   14  C   UNL     1     -13.395  11.605  72.075  1.00  0.00    -0.405 A  
ENDBRANCH   2   5
ENDBRANCH   1   2
BRANCH   1  15
HETATM   15  N   UNL     1      -9.179  10.337  68.052  1.00  0.00    -0.134 NA 
HETATM   16  H   UNL     1      -9.215   9.665  67.285  1.00  0.00     0.000 HD 
BRANCH  15  17
HETATM   17  C   UNL     1      -8.572  11.431  67.821  1.00  0.00    -0.129 C  
HETATM   18  H   UNL     1      -7.074  12.721  68.328  1.00  0.00     0.000 HD 
HETATM   19  O   UNL     1      -7.526  11.904  68.500  1.00  0.00    -0.106 OA 
BRANCH  17  20
HETATM   20  C   UNL     1      -9.032  12.329  66.700  1.00  0.00    -0.189 C  
BRANCH  20  21
HETATM   21  C   UNL     1      -9.470  13.705  67.190  1.00  0.00    -0.244 C  
BRANCH  21  22
HETATM   22  C   UNL     1     -10.500  14.372  66.275  1.00  0.00    -0.292 C  
BRANCH  22  23
HETATM   23  C   UNL     1     -11.898  13.802  66.521  1.00  0.00    -0.438 C  
BRANCH  23  24
HETATM   24  C   UNL     1     -12.588  13.407  65.216  1.00  0.00    -0.518 C  
BRANCH  24  25
HETATM   25  C   UNL     1     -11.564  13.160  64.107  1.00  0.00    -0.460 C  
HETATM   26  C   UNL     1     -11.347  11.675  63.868  1.00  0.00    -0.457 C  
ENDBRANCH  24  25
ENDBRANCH  23  24
ENDBRANCH  22  23
ENDBRANCH  21  22
ENDBRANCH  20  21
ENDBRANCH  17  20
ENDBRANCH  15  17
ENDBRANCH   1  15
BRANCH   1  27
HETATM   27  C   UNL     1      -9.312   8.477  69.551  1.00  0.00    -0.161 C  
BRANCH  27  28
HETATM   28  N   UNL     1      -9.691   7.686  70.747  1.00  0.00    -0.174 NA 
HETATM   29  C   UNL     1     -10.980   6.999  70.495  1.00  0.00    -0.265 C  
HETATM   30  C   UNL     1      -9.902   8.527  71.926  1.00  0.00    -0.288 C  
HETATM   31  C   UNL     1     -11.814   7.086  71.766  1.00  0.00    -0.347 C  
HETATM   32  C   UNL     1     -10.957   7.831  72.763  1.00  0.00    -0.447 C  
ENDBRANCH  27  28
ENDBRANCH   1  27
TORSDOF 12
ENDMDL
MODEL       24
REMARK 921   NORMALIZED FREE ENERGY PREDICTED BY IDOCK:   -5.95 KCAL/MOL
REMARK 922        TOTAL FREE ENERGY PREDICTED BY IDOCK:  -12.18 KCAL/MOL
REMARK 923 INTER-LIGAND FREE ENERGY PREDICTED BY IDOCK:  -11.16 KCAL/MOL
REMARK 924 INTRA-LIGAND FREE ENERGY PREDICTED BY IDOCK:   -1.02 KCAL/MOL
REMARK 927      BINDING AFFINITY PREDICTED BY RF-SCORE:    0.00 PKD
ROOT
HETATM    1  C   UNL     1     -11.567  13.722  69.362  1.00  0.00    -0.310 C  
ENDROOT
BRANCH   1   2
HETATM    2  C   UNL     1     -11.947  14.036  67.877  1.00  0.00    -0.351 C  
HETATM    3  O   UNL     1     -11.671  12.922  67.017  1.00  0.00    -0.350 OA 
HETATM    4  H   UNL     1     -11.902  13.113  66.115  1.00  0.00     0.000 HD 
BRANCH   2   5
HETATM    5  C   UNL     1     -11.303  15.319  67.346  1.00  0.00    -0.285 A  
HETATM    6  C   UNL     1      -8.947  19.186  68.409  1.00  0.00    -0.349 C  
HETATM    7  C   UNL     1     -10.412  17.541  67.800  1.00  0.00    -0.381 A  
HETATM    8  C   UNL     1     -10.816  15.435  66.030  1.00  0.00    -0.315 A  
HETATM    9  C   UNL     1      -9.945  17.647  66.489  1.00  0.00    -0.332 A  
HETATM   10  C   UNL     1      -9.048  19.750  67.001  1.00  0.00    -0.340 C  
HETATM   11  C   UNL     1     -11.122  16.412  68.217  1.00  0.00    -0.337 A  
HETATM   12  O   UNL     1      -9.224  18.716  66.023  1.00  0.00    -0.484 OA 
HETATM   13  O   UNL     1     -10.158  18.500  68.750  1.00  0.00    -0.379 OA 
HETATM   14  C   UNL     1     -10.166  16.600  65.599  1.00  0.00    -0.285 A  
ENDBRANCH   2   5
ENDBRANCH   1   2
BRANCH   1  15
HETATM   15  N   UNL     1     -11.003  12.363  69.415  1.00  0.00    -0.453 NA 
HETATM   16  H   UNL     1      -9.989  12.286  69.333  1.00  0.00     0.000 HD 
BRANCH  15  17
HETATM   17  C   UNL     1     -11.646  11.273  69.551  1.00  0.00    -0.328 C  
HETATM   18  H   UNL     1     -12.972   9.934  68.766  1.00  0.00     0.000 HD 
HETATM   19  O   UNL     1     -12.491  10.747  68.664  1.00  0.00    -0.348 OA 
BRANCH  17  20
HETATM   20  C   UNL     1     -11.494  10.458  70.811  1.00  0.00    -0.422 C  
BRANCH  20  21
HETATM   21  C   UNL     1     -12.788  10.363  71.612  1.00  0.00    -0.579 C  
BRANCH  21  22
HETATM   22  C   UNL     1     -13.078   8.951  72.126  1.00  0.00    -0.475 C  
BRANCH  22  23
HETATM   23  C   UNL     1     -11.828   8.072  72.039  1.00  0.00    -0.376 C  
BRANCH  23  24
HETATM   24  C   UNL     1     -12.184   6.590  71.934  1.00  0.00    -0.373 C  
BRANCH  24  25
HETATM   25  C   UNL     1     -11.016   5.783  71.364  1.00  0.00    -0.304 C  
HETATM   26  C   UNL     1     -10.952   5.885  69.850  1.00  0.00    -0.444 C  
ENDBRANCH  24  25
ENDBRANCH  23  24
ENDBRANCH  22  23
ENDBRANCH  21  22
ENDBRANCH  20  21
ENDBRANCH  17  20
ENDBRANCH  15  17
ENDBRANCH   1  15
BRANCH   1  27
HETATM   27  C   UNL     1     -12.740  13.677  70.402  1.00  0.00    -0.141 C  
BRANCH  27  28
HETATM   28  N   UNL     1     -12.587  14.167  71.794  1.00  0.00    -0.331 NA 
HETATM   29  C   UNL     1     -13.872  14.741  72.259  1.00  0.00    -0.485 C  
HETATM   30  C   UNL     1     -11.601  15.243  71.898  1.00  0.00    -0.437 C  
HETATM   31  C   UNL     1     -13.563  16.004  73.050  1.00  0.00    -0.530 C  
HETATM   32  C   UNL     1     -12.057  16.131  73.039  1.00  0.00    -0.636 C  
ENDBRANCH  27  28
ENDBRANCH   1  27
TORSDOF 12
ENDMDL
MODEL       25
REMARK 921   NORMALIZED FREE ENERGY PREDICTED BY IDOCK:   -5.94 KCAL/MOL
REMARK 922        TOTAL FREE ENERGY PREDICTED BY IDOCK:  -12.16 KCAL/MOL
REMARK 923 INTER-LIGAND FREE ENERGY PREDICTED BY IDOCK:  -10.57 KCAL/MOL
REMARK 924 INTRA-LIGAND FREE ENERGY PREDICTED BY IDOCK:   -1.60 KCAL/MOL
REMARK 927      BINDING AFFINITY PREDICTED BY RF-SCORE:    0.00 PKD
ROOT
HETATM    1  C   UNL     1     -10.950   8.649  70.900  1.00  0.00    -0.253 C  
ENDROOT
BRANCH   1   2
HETATM    2  C   UNL     1     -12.309   9.251  71.386  1.00  0.00    -0.343 C  
HETATM    3  O   UNL     1     -13.425   8.517  70.866  1.00  0.00    -0.510 OA 
HETATM    4  H   UNL     1     -14.251   8.883  71.161  1.00  0.00     0.000 HD 
BRANCH   2   5
HETATM    5  C   UNL     1     -12.446  10.748  71.095  1.00  0.00    -0.519 A  
HETATM    6  C   UNL     1     -13.360  14.957  72.849  1.00  0.00    -0.479 C  
HETATM    7  C   UNL     1     -13.265  12.935  71.788  1.00  0.00    -0.384 A  
HETATM    8  C   UNL     1     -11.757  11.383  70.044  1.00  0.00    -0.416 A  
HETATM    9  C   UNL     1     -12.587  13.550  70.735  1.00  0.00    -0.309 A  
HETATM   10  C   UNL     1     -13.347  15.633  71.488  1.00  0.00    -0.452 C  
HETATM   11  C   UNL     1     -13.235  11.547  71.946  1.00  0.00    -0.479 A  
HETATM   12  O   UNL     1     -12.557  14.906  70.538  1.00  0.00    -0.333 OA 
HETATM   13  O   UNL     1     -13.944  13.653  72.742  1.00  0.00    -0.725 OA 
HETATM   14  C   UNL     1     -11.848  12.768  69.851  1.00  0.00    -0.371 A  
ENDBRANCH   2   5
ENDBRANCH   1   2
BRANCH   1  15
HETATM   15  N   UNL     1     -11.217   7.797  69.728  1.00  0.00    -0.450 NA 
HETATM   16  H   UNL     1     -12.057   7.219  69.767  1.00  0.00     0.000 HD 
BRANCH  15  17
HETATM   17  C   UNL     1     -10.511   7.706  68.673  1.00  0.00    -0.177 C  
HETATM   18  H   UNL     1      -9.719   6.515  67.217  1.00  0.00     0.000 HD 
HETATM   19  O   UNL     1     -10.246   6.583  68.005  1.00  0.00    -0.141 OA 
BRANCH  17  20
HETATM   20  C   UNL     1      -9.880   8.939  68.077  1.00  0.00    -0.199 C  
BRANCH  20  21
HETATM   21  C   UNL     1     -10.401   9.249  66.677  1.00  0.00    -0.292 C  
BRANCH  21  22
HETATM   22  C   UNL     1     -10.428  10.746  66.361  1.00  0.00    -0.293 C  
BRANCH  22  23
HETATM   23  C   UNL     1     -10.380  10.985  64.851  1.00  0.00    -0.378 C  
BRANCH  23  24
HETATM   24  C   UNL     1     -11.452  11.976  64.399  1.00  0.00    -0.413 C  
BRANCH  24  25
HETATM   25  C   UNL     1     -12.091  12.679  65.598  1.00  0.00    -0.502 C  
HETATM   26  C   UNL     1     -12.189  14.179  65.379  1.00  0.00    -0.441 C  
ENDBRANCH  24  25
ENDBRANCH  23  24
ENDBRANCH  22  23
ENDBRANCH  21  22
ENDBRANCH  20  21
ENDBRANCH  17  20
ENDBRANCH  15  17
ENDBRANCH   1  15
BRANCH   1  27
HETATM   27  C   UNL     1     -10.201   7.691  71.892  1.00  0.00    -0.193 C  
BRANCH  27  28
HETATM   28  N   UNL     1     -10.922   6.817  72.849  1.00  0.00    -0.264 NA 
HETATM   29  C   UNL     1     -10.054   6.545  74.019  1.00  0.00    -0.326 C  
HETATM   30  C   UNL     1     -11.248   5.512  72.272  1.00  0.00    -0.220 C  
HETATM   31  C   UNL     1     -10.225   5.081  74.399  1.00  0.00    -0.301 C  
HETATM   32  C   UNL     1     -11.232   4.523  73.420  1.00  0.00    -0.404 C  
ENDBRANCH  27  28
ENDBRANCH   1  27
TORSDOF 12
ENDMDL
MODEL       26
REMARK 921   NORMALIZED FREE ENERGY PREDICTED BY IDOCK:   -5.94 KCAL/MOL
REMARK 922        TOTAL FREE ENERGY PREDICTED BY IDOCK:  -12.15 KCAL/MOL
REMARK 923 INTER-LIGAND FREE ENERGY PREDICTED BY IDOCK:  -10.65 KCAL/MOL
REMARK 924 INTRA-LIGAND FREE ENERGY PREDICTED BY IDOCK:   -1.50 KCAL/MOL
REMARK 927      BINDING AFFINITY PREDICTED BY RF-SCORE:    0.00 PKD
ROOT
HETATM    1  C   UNL     1     -12.038  14.054  69.238  1.00  0.00    -0.338 C  
ENDROOT
BRANCH   1   2
HETATM    2  C   UNL     1     -11.038  12.976  69.771  1.00  0.00     0.174 C  
HETATM    3  O   UNL     1     -10.047  12.647  68.788  1.00  0.00    -0.386 OA 
HETATM    4  H   UNL     1      -9.439  11.992  69.111  1.00  0.00     0.000 HD 
BRANCH   2   5
HETATM    5  C   UNL     1     -11.730  11.718  70.302  1.00  0.00    -0.317 A  
HETATM    6  C   UNL     1     -11.277   7.209  71.349  1.00  0.00    -0.251 C  
HETATM    7  C   UNL     1     -11.744   9.292  70.534  1.00  0.00    -0.176 A  
HETATM    8  C   UNL     1     -12.824  11.770  71.187  1.00  0.00    -0.365 A  
HETATM    9  C   UNL     1     -12.835   9.358  71.401  1.00  0.00    -0.345 A  
HETATM   10  C   UNL     1     -12.758   7.029  71.641  1.00  0.00    -0.377 C  
HETATM   11  C   UNL     1     -11.221  10.451  69.953  1.00  0.00    -0.371 A  
HETATM   12  O   UNL     1     -13.381   8.264  72.021  1.00  0.00    -0.330 OA 
HETATM   13  O   UNL     1     -11.101   8.112  70.251  1.00  0.00    -0.256 OA 
HETATM   14  C   UNL     1     -13.387  10.598  71.711  1.00  0.00    -0.437 A  
ENDBRANCH   2   5
ENDBRANCH   1   2
BRANCH   1  15
HETATM   15  N   UNL     1     -11.793  14.236  67.797  1.00  0.00    -0.417 NA 
HETATM   16  H   UNL     1     -11.214  15.033  67.530  1.00  0.00     0.000 HD 
BRANCH  15  17
HETATM   17  C   UNL     1     -12.228  13.507  66.850  1.00  0.00    -0.327 C  
HETATM   18  H   UNL     1     -12.531  11.629  66.109  1.00  0.00     0.000 HD 
HETATM   19  O   UNL     1     -12.207  12.174  66.817  1.00  0.00    -0.553 OA 
BRANCH  17  20
HETATM   20  C   UNL     1     -12.824  14.141  65.618  1.00  0.00    -0.402 C  
BRANCH  20  21
HETATM   21  C   UNL     1     -11.919  14.020  64.397  1.00  0.00    -0.480 C  
BRANCH  21  22
HETATM   22  C   UNL     1     -12.091  12.698  63.646  1.00  0.00    -0.632 C  
BRANCH  22  23
HETATM   23  C   UNL     1     -10.733  12.059  63.348  1.00  0.00    -0.475 C  
BRANCH  23  24
HETATM   24  C   UNL     1     -10.520  10.779  64.155  1.00  0.00    -0.309 C  
BRANCH  24  25
HETATM   25  C   UNL     1      -9.542  11.012  65.307  1.00  0.00    -0.270 C  
HETATM   26  C   UNL     1      -9.439   9.793  66.208  1.00  0.00    -0.250 C  
ENDBRANCH  24  25
ENDBRANCH  23  24
ENDBRANCH  22  23
ENDBRANCH  21  22
ENDBRANCH  20  21
ENDBRANCH  17  20
ENDBRANCH  15  17
ENDBRANCH   1  15
BRANCH   1  27
HETATM   27  C   UNL     1     -11.901  15.502  69.824  1.00  0.00    -0.359 C  
BRANCH  27  28
HETATM   28  N   UNL     1     -12.558  15.914  71.088  1.00  0.00    -0.423 NA 
HETATM   29  C   UNL     1     -11.714  15.509  72.237  1.00  0.00    -0.482 C  
HETATM   30  C   UNL     1     -13.851  15.255  71.282  1.00  0.00    -0.478 C  
HETATM   31  C   UNL     1     -12.632  14.979  73.330  1.00  0.00    -0.600 C  
HETATM   32  C   UNL     1     -14.034  15.107  72.779  1.00  0.00    -0.419 C  
ENDBRANCH  27  28
ENDBRANCH   1  27
TORSDOF 12
ENDMDL
MODEL       27
REMARK 921   NORMALIZED FREE ENERGY PREDICTED BY IDOCK:   -5.93 KCAL/MOL
REMARK 922        TOTAL FREE ENERGY PREDICTED BY IDOCK:  -12.15 KCAL/MOL
REMARK 923 INTER-LIGAND FREE ENERGY PREDICTED BY IDOCK:  -10.73 KCAL/MOL
REMARK 924 INTRA-LIGAND FREE ENERGY PREDICTED BY IDOCK:   -1.42 KCAL/MOL
REMARK 927      BINDING AFFINITY PREDICTED BY RF-SCORE:    0.00 PKD
ROOT
HETATM    1  C   UNL     1     -11.551  13.306  68.611  1.00  0.00    -0.327 C  
ENDROOT
BRANCH   1   2
HETATM    2  C   UNL     1     -12.044  14.352  67.557  1.00  0.00    -0.292 C  
HETATM    3  O   UNL     1     -12.554  13.712  66.380  1.00  0.00    -0.364 OA 
HETATM    4  H   UNL     1     -12.854  14.347  65.740  1.00  0.00     0.000 HD 
BRANCH   2   5
HETATM    5  C   UNL     1     -10.986  15.400  67.204  1.00  0.00    -0.317 A  
HETATM    6  C   UNL     1      -8.726  19.225  68.581  1.00  0.00    -0.365 C  
HETATM    7  C   UNL     1     -10.007  17.591  67.625  1.00  0.00    -0.309 A  
HETATM    8  C   UNL     1      -9.913  15.131  66.333  1.00  0.00    -0.288 A  
HETATM    9  C   UNL     1      -8.955  17.316  66.750  1.00  0.00    -0.250 A  
HETATM   10  C   UNL     1      -8.023  19.407  67.245  1.00  0.00    -0.263 C  
HETATM   11  C   UNL     1     -11.036  16.666  67.820  1.00  0.00    -0.234 A  
HETATM   12  O   UNL     1      -7.905  18.169  66.531  1.00  0.00    -0.234 OA 
HETATM   13  O   UNL     1     -10.059  18.744  68.370  1.00  0.00    -0.365 OA 
HETATM   14  C   UNL     1      -8.920  16.091  66.089  1.00  0.00    -0.381 A  
ENDBRANCH   2   5
ENDBRANCH   1   2
BRANCH   1  15
HETATM   15  N   UNL     1     -11.959  11.966  68.155  1.00  0.00    -0.528 NA 
HETATM   16  H   UNL     1     -12.940  11.718  68.289  1.00  0.00     0.000 HD 
BRANCH  15  17
HETATM   17  C   UNL     1     -11.219  11.085  67.610  1.00  0.00    -0.305 C  
HETATM   18  H   UNL     1     -10.153  10.489  65.975  1.00  0.00     0.000 HD 
HETATM   19  O   UNL     1     -10.705  11.147  66.382  1.00  0.00    -0.261 OA 
BRANCH  17  20
HETATM   20  C   UNL     1     -10.860   9.829  68.363  1.00  0.00    -0.244 C  
BRANCH  20  21
HETATM   21  C   UNL     1     -11.090   9.956  69.866  1.00  0.00    -0.318 C  
BRANCH  21  22
HETATM   22  C   UNL     1     -10.754   8.679  70.638  1.00  0.00    -0.259 C  
BRANCH  22  23
HETATM   23  C   UNL     1     -11.656   8.531  71.865  1.00  0.00    -0.410 C  
BRANCH  23  24
HETATM   24  C   UNL     1     -12.815   9.527  71.840  1.00  0.00    -0.508 C  
BRANCH  24  25
HETATM   25  C   UNL     1     -14.118   8.867  72.292  1.00  0.00    -0.512 C  
HETATM   26  C   UNL     1     -14.299   7.498  71.659  1.00  0.00    -0.621 C  
ENDBRANCH  24  25
ENDBRANCH  23  24
ENDBRANCH  22  23
ENDBRANCH  21  22
ENDBRANCH  20  21
ENDBRANCH  17  20
ENDBRANCH  15  17
ENDBRANCH   1  15
BRANCH   1  27
HETATM   27  C   UNL     1     -12.158  13.408  70.053  1.00  0.00    -0.334 C  
BRANCH  27  28
HETATM   28  N   UNL     1     -12.676  14.681  70.609  1.00  0.00    -0.349 NA 
HETATM   29  C   UNL     1     -11.580  15.399  71.302  1.00  0.00    -0.386 C  
HETATM   30  C   UNL     1     -13.718  14.465  71.614  1.00  0.00    -0.404 C  
HETATM   31  C   UNL     1     -12.146  15.998  72.582  1.00  0.00    -0.640 C  
HETATM   32  C   UNL     1     -13.607  15.614  72.596  1.00  0.00    -0.667 C  
ENDBRANCH  27  28
ENDBRANCH   1  27
TORSDOF 12
ENDMDL
MODEL       28
REMARK 921   NORMALIZED FREE ENERGY PREDICTED BY IDOCK:   -5.92 KCAL/MOL
REMARK 922        TOTAL FREE ENERGY PREDICTED BY IDOCK:  -12.13 KCAL/MOL
REMARK 923 INTER-LIGAND FREE ENERGY PREDICTED BY IDOCK:  -10.64 KCAL/MOL
REMARK 924 INTRA-LIGAND FREE ENERGY PREDICTED BY IDOCK:   -1.49 KCAL/MOL
REMARK 927      BINDING AFFINITY PREDICTED BY RF-SCORE:    0.00 PKD
ROOT
HETATM    1  C   UNL     1     -10.875  14.904  67.839  1.00  0.00    -0.276 C  
ENDROOT
BRANCH   1   2
HETATM    2  C   UNL     1     -11.374  14.300  66.485  1.00  0.00    -0.346 C  
HETATM    3  O   UNL     1     -12.806  14.292  66.411  1.00  0.00    -0.479 OA 
HETATM    4  H   UNL     1     -13.110  13.925  65.588  1.00  0.00     0.000 HD 
BRANCH   2   5
HETATM    5  C   UNL     1     -10.796  12.913  66.192  1.00  0.00    -0.300 A  
HETATM    6  C   UNL     1     -10.654   8.440  67.455  1.00  0.00    -0.215 C  
HETATM    7  C   UNL     1     -10.335  10.648  66.959  1.00  0.00    -0.231 A  
HETATM    8  C   UNL     1     -10.391  12.518  64.903  1.00  0.00    -0.323 A  
HETATM    9  C   UNL     1      -9.924  10.273  65.679  1.00  0.00    -0.280 A  
HETATM   10  C   UNL     1      -9.564   8.092  66.455  1.00  0.00    -0.234 C  
HETATM   11  C   UNL     1     -10.725  11.962  67.228  1.00  0.00    -0.276 A  
HETATM   12  O   UNL     1      -9.551   8.997  65.343  1.00  0.00    -0.191 OA 
HETATM   13  O   UNL     1     -10.427   9.749  67.993  1.00  0.00    -0.198 OA 
HETATM   14  C   UNL     1      -9.934  11.216  64.655  1.00  0.00    -0.345 A  
ENDBRANCH   2   5
ENDBRANCH   1   2
BRANCH   1  15
HETATM   15  N   UNL     1     -12.054  15.259  68.648  1.00  0.00    -0.585 NA 
HETATM   16  H   UNL     1     -12.809  15.744  68.164  1.00  0.00     0.000 HD 
BRANCH  15  17
HETATM   17  C   UNL     1     -12.230  15.023  69.886  1.00  0.00    -0.309 C  
HETATM   18  H   UNL     1     -12.581  15.761  71.757  1.00  0.00     0.000 HD 
HETATM   19  O   UNL     1     -12.449  15.937  70.832  1.00  0.00    -0.428 OA 
BRANCH  17  20
HETATM   20  C   UNL     1     -12.189  13.606  70.399  1.00  0.00    -0.434 C  
BRANCH  20  21
HETATM   21  C   UNL     1     -13.171  13.364  71.541  1.00  0.00    -0.395 C  
BRANCH  21  22
HETATM   22  C   UNL     1     -13.220  11.905  71.998  1.00  0.00    -0.461 C  
BRANCH  22  23
HETATM   23  C   UNL     1     -12.626  10.981  70.933  1.00  0.00    -0.488 C  
BRANCH  23  24
HETATM   24  C   UNL     1     -12.183   9.643  71.525  1.00  0.00    -0.483 C  
BRANCH  24  25
HETATM   25  C   UNL     1     -13.380   8.856  72.061  1.00  0.00    -0.471 C  
HETATM   26  C   UNL     1     -13.347   7.408  71.601  1.00  0.00    -0.426 C  
ENDBRANCH  24  25
ENDBRANCH  23  24
ENDBRANCH  22  23
ENDBRANCH  21  22
ENDBRANCH  20  21
ENDBRANCH  17  20
ENDBRANCH  15  17
ENDBRANCH   1  15
BRANCH   1  27
HETATM   27  C   UNL     1     -10.061  16.243  67.763  1.00  0.00    -0.252 C  
BRANCH  27  28
HETATM   28  N   UNL     1     -10.717  17.574  67.780  1.00  0.00    -0.372 NA 
HETATM   29  C   UNL     1     -10.514  18.240  66.471  1.00  0.00    -0.356 C  
HETATM   30  C   UNL     1     -10.137  18.466  68.784  1.00  0.00    -0.363 C  
HETATM   31  C   UNL     1     -10.220  19.710  66.734  1.00  0.00    -0.563 C  
HETATM   32  C   UNL     1     -10.276  19.872  68.235  1.00  0.00    -0.562 C  
ENDBRANCH  27  28
ENDBRANCH   1  27
TORSDOF 12
ENDMDL
MODEL       29
REMARK 921   NORMALIZED FREE ENERGY PREDICTED BY IDOCK:   -5.90 KCAL/MOL
REMARK 922        TOTAL FREE ENERGY PREDICTED BY IDOCK:  -12.09 KCAL/MOL
REMARK 923 INTER-LIGAND FREE ENERGY PREDICTED BY IDOCK:  -10.63 KCAL/MOL
REMARK 924 INTRA-LIGAND FREE ENERGY PREDICTED BY IDOCK:   -1.46 KCAL/MOL
REMARK 927      BINDING AFFINITY PREDICTED BY RF-SCORE:    0.00 PKD
ROOT
HETATM    1  C   UNL     1     -11.066  13.599  68.021  1.00  0.00    -0.262 C  
ENDROOT
BRANCH   1   2
HETATM    2  C   UNL     1      -9.585  13.966  67.674  1.00  0.00    -0.215 C  
HETATM    3  O   UNL     1      -8.663  13.336  68.573  1.00  0.00    -0.289 OA 
HETATM    4  H   UNL     1      -7.763  13.559  68.362  1.00  0.00     0.000 HD 
BRANCH   2   5
HETATM    5  C   UNL     1      -9.339  15.474  67.594  1.00  0.00    -0.203 A  
HETATM    6  C   UNL     1     -10.904  19.567  66.036  1.00  0.00    -0.327 C  
HETATM    7  C   UNL     1      -9.835  17.609  66.529  1.00  0.00    -0.319 A  
HETATM    8  C   UNL     1      -8.600  16.175  68.566  1.00  0.00    -0.202 A  
HETATM    9  C   UNL     1      -9.089  18.289  67.493  1.00  0.00    -0.253 A  
HETATM   10  C   UNL     1      -9.655  20.318  66.468  1.00  0.00    -0.361 C  
HETATM   11  C   UNL     1      -9.926  16.215  66.548  1.00  0.00    -0.293 A  
HETATM   12  O   UNL     1      -8.978  19.655  67.544  1.00  0.00    -0.300 OA 
HETATM   13  O   UNL     1     -10.551  18.264  65.557  1.00  0.00    -0.632 OA 
HETATM   14  C   UNL     1      -8.455  17.568  68.501  1.00  0.00    -0.280 A  
ENDBRANCH   2   5
ENDBRANCH   1   2
BRANCH   1  15
HETATM   15  N   UNL     1     -11.141  13.307  69.463  1.00  0.00    -0.464 NA 
HETATM   16  H   UNL     1     -10.340  12.827  69.874  1.00  0.00     0.000 HD 
BRANCH  15  17
HETATM   17  C   UNL     1     -12.099  13.590  70.251  1.00  0.00    -0.355 C  
HETATM   18  H   UNL     1     -13.398  14.993  70.965  1.00  0.00     0.000 HD 
HETATM   19  O   UNL     1     -12.682  14.782  70.376  1.00  0.00    -0.347 OA 
BRANCH  17  20
HETATM   20  C   UNL     1     -12.669  12.530  71.161  1.00  0.00    -0.340 C  
BRANCH  20  21
HETATM   21  C   UNL     1     -12.059  11.154  70.916  1.00  0.00    -0.427 C  
BRANCH  21  22
HETATM   22  C   UNL     1     -13.085  10.020  70.969  1.00  0.00    -0.435 C  
BRANCH  22  23
HETATM   23  C   UNL     1     -12.897   9.173  72.229  1.00  0.00    -0.472 C  
BRANCH  23  24
HETATM   24  C   UNL     1     -12.031   7.943  71.962  1.00  0.00    -0.364 C  
BRANCH  24  25
HETATM   25  C   UNL     1     -10.747   7.984  72.791  1.00  0.00    -0.431 C  
HETATM   26  C   UNL     1      -9.594   8.589  72.007  1.00  0.00    -0.371 C  
ENDBRANCH  24  25
ENDBRANCH  23  24
ENDBRANCH  22  23
ENDBRANCH  21  22
ENDBRANCH  20  21
ENDBRANCH  17  20
ENDBRANCH  15  17
ENDBRANCH   1  15
BRANCH   1  27
HETATM   27  C   UNL     1     -11.655  12.309  67.351  1.00  0.00    -0.355 C  
BRANCH  27  28
HETATM   28  N   UNL     1     -12.030  12.260  65.916  1.00  0.00    -0.597 NA 
HETATM   29  C   UNL     1     -10.868  11.801  65.119  1.00  0.00    -0.297 C  
HETATM   30  C   UNL     1     -12.389  13.578  65.391  1.00  0.00    -0.478 C  
HETATM   31  C   UNL     1     -10.816  12.632  63.844  1.00  0.00    -0.468 C  
HETATM   32  C   UNL     1     -11.995  13.573  63.927  1.00  0.00    -0.491 C  
ENDBRANCH  27  28
ENDBRANCH   1  27
TORSDOF 12
ENDMDL
MODEL       30
REMARK 921   NORMALIZED FREE ENERGY PREDICTED BY IDOCK:   -5.90 KCAL/MOL
REMARK 922        TOTAL FREE ENERGY PREDICTED BY IDOCK:  -12.09 KCAL/MOL
REMARK 923 INTER-LIGAND FREE ENERGY PREDICTED BY IDOCK:   -9.93 KCAL/MOL
REMARK 924 INTRA-LIGAND FREE ENERGY PREDICTED BY IDOCK:   -2.16 KCAL/MOL
REMARK 927      BINDING AFFINITY PREDICTED BY RF-SCORE:    0.00 PKD
ROOT
HETATM    1  C   UNL     1     -10.681  15.209  68.376  1.00  0.00    -0.248 C  
ENDROOT
BRANCH   1   2
HETATM    2  C   UNL     1     -11.138  14.234  67.240  1.00  0.00    -0.306 C  
HETATM    3  O   UNL     1     -12.565  14.219  67.104  1.00  0.00    -0.546 OA 
HETATM    4  H   UNL     1     -12.843  13.627  66.415  1.00  0.00     0.000 HD 
BRANCH   2   5
HETATM    5  C   UNL     1     -10.581  12.817  67.399  1.00  0.00    -0.241 A  
HETATM    6  C   UNL     1      -7.766  10.021  69.826  1.00  0.00    -0.168 C  
HETATM    7  C   UNL     1      -8.879  11.343  68.331  1.00  0.00    -0.167 A  
HETATM    8  C   UNL     1     -11.289  11.673  66.983  1.00  0.00    -0.373 A  
HETATM    9  C   UNL     1      -9.585  10.218  67.902  1.00  0.00    -0.145 A  
HETATM   10  C   UNL     1      -7.954   8.849  68.877  1.00  0.00    -0.104 C  
HETATM   11  C   UNL     1      -9.344  12.630  68.047  1.00  0.00    -0.209 A  
HETATM   12  O   UNL     1      -9.197   8.930  68.166  1.00  0.00    -0.139 OA 
HETATM   13  O   UNL     1      -7.738  11.249  69.088  1.00  0.00    -0.120 OA 
HETATM   14  C   UNL     1     -10.782  10.386  67.210  1.00  0.00    -0.331 A  
ENDBRANCH   2   5
ENDBRANCH   1   2
BRANCH   1  15
HETATM   15  N   UNL     1     -11.883  15.721  69.054  1.00  0.00    -0.471 NA 
HETATM   16  H   UNL     1     -12.566  16.203  68.469  1.00  0.00     0.000 HD 
BRANCH  15  17
HETATM   17  C   UNL     1     -12.161  15.626  70.292  1.00  0.00    -0.386 C  
HETATM   18  H   UNL     1     -11.816  16.268  72.199  1.00  0.00     0.000 HD 
HETATM   19  O   UNL     1     -11.609  16.339  71.274  1.00  0.00    -0.437 OA 
BRANCH  17  20
HETATM   20  C   UNL     1     -13.192  14.630  70.762  1.00  0.00    -0.333 C  
BRANCH  20  21
HETATM   21  C   UNL     1     -12.658  13.202  70.797  1.00  0.00    -0.338 C  
BRANCH  21  22
HETATM   22  C   UNL     1     -13.235  12.370  71.944  1.00  0.00    -0.486 C  
BRANCH  22  23
HETATM   23  C   UNL     1     -13.091  10.874  71.658  1.00  0.00    -0.538 C  
BRANCH  23  24
HETATM   24  C   UNL     1     -11.872  10.578  70.785  1.00  0.00    -0.465 C  
BRANCH  24  25
HETATM   25  C   UNL     1     -11.121   9.345  71.288  1.00  0.00    -0.446 C  
HETATM   26  C   UNL     1     -11.957   8.545  72.273  1.00  0.00    -0.454 C  
ENDBRANCH  24  25
ENDBRANCH  23  24
ENDBRANCH  22  23
ENDBRANCH  21  22
ENDBRANCH  20  21
ENDBRANCH  17  20
ENDBRANCH  15  17
ENDBRANCH   1  15
BRANCH   1  27
HETATM   27  C   UNL     1      -9.922  16.509  67.934  1.00  0.00    -0.245 C  
BRANCH  27  28
HETATM   28  N   UNL     1     -10.630  17.769  67.604  1.00  0.00    -0.391 NA 
HETATM   29  C   UNL     1     -10.408  18.099  66.176  1.00  0.00    -0.385 C  
HETATM   30  C   UNL     1     -10.122  18.909  68.368  1.00  0.00    -0.392 C  
HETATM   31  C   UNL     1     -10.183  19.601  66.071  1.00  0.00    -0.587 C  
HETATM   32  C   UNL     1     -10.298  20.127  67.484  1.00  0.00    -0.472 C  
ENDBRANCH  27  28
ENDBRANCH   1  27
TORSDOF 12
ENDMDL
MODEL       31
REMARK 921   NORMALIZED FREE ENERGY PREDICTED BY IDOCK:   -5.90 KCAL/MOL
REMARK 922        TOTAL FREE ENERGY PREDICTED BY IDOCK:  -12.09 KCAL/MOL
REMARK 923 INTER-LIGAND FREE ENERGY PREDICTED BY IDOCK:  -10.37 KCAL/MOL
REMARK 924 INTRA-LIGAND FREE ENERGY PREDICTED BY IDOCK:   -1.72 KCAL/MOL
REMARK 927      BINDING AFFINITY PREDICTED BY RF-SCORE:    0.00 PKD
ROOT
HETATM    1  C   UNL     1     -11.070  14.834  65.911  1.00  0.00    -0.340 C  
ENDROOT
BRANCH   1   2
HETATM    2  C   UNL     1     -11.696  13.728  64.999  1.00  0.00    -0.345 C  
HETATM    3  O   UNL     1     -13.085  13.528  65.294  1.00  0.00    -0.713 OA 
HETATM    4  H   UNL     1     -13.466  12.856  64.740  1.00  0.00     0.000 HD 
BRANCH   2   5
HETATM    5  C   UNL     1     -10.925  12.406  65.035  1.00  0.00    -0.336 A  
HETATM    6  C   UNL     1     -10.593   8.179  66.946  1.00  0.00    -0.241 C  
HETATM    7  C   UNL     1     -10.407  10.333  66.204  1.00  0.00    -0.183 A  
HETATM    8  C   UNL     1     -10.209  11.915  63.927  1.00  0.00    -0.420 A  
HETATM    9  C   UNL     1      -9.690   9.863  65.103  1.00  0.00    -0.306 A  
HETATM   10  C   UNL     1      -9.281   7.861  66.248  1.00  0.00    -0.178 C  
HETATM   11  C   UNL     1     -10.982  11.606  66.193  1.00  0.00    -0.339 A  
HETATM   12  O   UNL     1      -9.121   8.617  65.040  1.00  0.00    -0.087 OA 
HETATM   13  O   UNL     1     -10.627   9.562  67.319  1.00  0.00    -0.264 OA 
HETATM   14  C   UNL     1      -9.576  10.665  63.970  1.00  0.00    -0.351 A  
ENDBRANCH   2   5
ENDBRANCH   1   2
BRANCH   1  15
HETATM   15  N   UNL     1     -11.919  14.981  67.105  1.00  0.00    -0.295 NA 
HETATM   16  H   UNL     1     -12.928  14.951  66.954  1.00  0.00     0.000 HD 
BRANCH  15  17
HETATM   17  C   UNL     1     -11.529  15.142  68.306  1.00  0.00    -0.336 C  
HETATM   18  H   UNL     1     -10.851  16.414  69.751  1.00  0.00     0.000 HD 
HETATM   19  O   UNL     1     -11.143  16.294  68.855  1.00  0.00    -0.315 OA 
BRANCH  17  20
HETATM   20  C   UNL     1     -11.462  13.963  69.243  1.00  0.00    -0.348 C  
BRANCH  20  21
HETATM   21  C   UNL     1     -12.759  13.752  70.017  1.00  0.00    -0.079 C  
BRANCH  21  22
HETATM   22  C   UNL     1     -12.609  12.787  71.196  1.00  0.00    -0.365 C  
BRANCH  22  23
HETATM   23  C   UNL     1     -13.570  13.156  72.328  1.00  0.00    -0.677 C  
BRANCH  23  24
HETATM   24  C   UNL     1     -13.898  14.649  72.329  1.00  0.00    -0.583 C  
BRANCH  24  25
HETATM   25  C   UNL     1     -13.030  15.402  73.337  1.00  0.00    -0.662 C  
HETATM   26  C   UNL     1     -11.912  16.168  72.650  1.00  0.00    -0.653 C  
ENDBRANCH  24  25
ENDBRANCH  23  24
ENDBRANCH  22  23
ENDBRANCH  21  22
ENDBRANCH  20  21
ENDBRANCH  17  20
ENDBRANCH  15  17
ENDBRANCH   1  15
BRANCH   1  27
HETATM   27  C   UNL     1     -11.002  16.287  65.323  1.00  0.00    -0.236 C  
BRANCH  27  28
HETATM   28  N   UNL     1      -9.803  17.148  65.470  1.00  0.00    -0.514 NA 
HETATM   29  C   UNL     1      -8.730  16.388  66.153  1.00  0.00    -0.312 C  
HETATM   30  C   UNL     1     -10.063  18.323  66.303  1.00  0.00    -0.380 C  
HETATM   31  C   UNL     1      -8.049  17.323  67.142  1.00  0.00    -0.225 C  
HETATM   32  C   UNL     1      -8.755  18.652  66.995  1.00  0.00    -0.285 C  
ENDBRANCH  27  28
ENDBRANCH   1  27
TORSDOF 12
ENDMDL
MODEL       32
REMARK 921   NORMALIZED FREE ENERGY PREDICTED BY IDOCK:   -5.89 KCAL/MOL
REMARK 922        TOTAL FREE ENERGY PREDICTED BY IDOCK:  -12.08 KCAL/MOL
REMARK 923 INTER-LIGAND FREE ENERGY PREDICTED BY IDOCK:  -10.75 KCAL/MOL
REMARK 924 INTRA-LIGAND FREE ENERGY PREDICTED BY IDOCK:   -1.33 KCAL/MOL
REMARK 927      BINDING AFFINITY PREDICTED BY RF-SCORE:    0.00 PKD
ROOT
HETATM    1  C   UNL     1     -10.472  14.050  67.586  1.00  0.00    -0.245 C  
ENDROOT
BRANCH   1   2
HETATM    2  C   UNL     1     -11.775  13.583  68.315  1.00  0.00    -0.359 C  
HETATM    3  O   UNL     1     -12.359  14.647  69.079  1.00  0.00    -0.559 OA 
HETATM    4  H   UNL     1     -13.151  14.364  69.522  1.00  0.00     0.000 HD 
BRANCH   2   5
HETATM    5  C   UNL     1     -11.574  12.331  69.172  1.00  0.00    -0.373 A  
HETATM    6  C   UNL     1     -13.501   9.366  72.192  1.00  0.00    -0.471 C  
HETATM    7  C   UNL     1     -12.322  10.937  71.025  1.00  0.00    -0.393 A  
HETATM    8  C   UNL     1     -10.649  11.323  68.837  1.00  0.00    -0.239 A  
HETATM    9  C   UNL     1     -11.393   9.951  70.689  1.00  0.00    -0.339 A  
HETATM   10  C   UNL     1     -12.199   8.623  72.442  1.00  0.00    -0.349 C  
HETATM   11  C   UNL     1     -12.386  12.133  70.306  1.00  0.00    -0.269 A  
HETATM   12  O   UNL     1     -11.293   8.747  71.337  1.00  0.00    -0.255 OA 
HETATM   13  O   UNL     1     -13.243  10.766  72.029  1.00  0.00    -0.484 OA 
HETATM   14  C   UNL     1     -10.543  10.155  69.605  1.00  0.00    -0.286 A  
ENDBRANCH   2   5
ENDBRANCH   1   2
BRANCH   1  15
HETATM   15  N   UNL     1     -10.639  15.462  67.203  1.00  0.00    -0.299 NA 
HETATM   16  H   UNL     1     -11.417  15.962  67.635  1.00  0.00     0.000 HD 
BRANCH  15  17
HETATM   17  C   UNL     1      -9.917  16.125  66.393  1.00  0.00    -0.299 C  
HETATM   18  H   UNL     1      -9.739  17.029  64.571  1.00  0.00     0.000 HD 
HETATM   19  O   UNL     1     -10.279  16.534  65.176  1.00  0.00    -0.590 OA 
BRANCH  17  20
HETATM   20  C   UNL     1      -8.509  16.508  66.774  1.00  0.00    -0.273 C  
BRANCH  20  21
HETATM   21  C   UNL     1      -8.398  16.982  68.219  1.00  0.00    -0.228 C  
BRANCH  21  22
HETATM   22  C   UNL     1      -7.541  18.240  68.378  1.00  0.00    -0.302 C  
BRANCH  22  23
HETATM   23  C   UNL     1      -8.403  19.501  68.296  1.00  0.00    -0.375 C  
BRANCH  23  24
HETATM   24  C   UNL     1      -9.857  19.219  68.669  1.00  0.00    -0.500 C  
BRANCH  24  25
HETATM   25  C   UNL     1     -10.800  19.585  67.522  1.00  0.00    -0.494 C  
HETATM   26  C   UNL     1     -10.032  19.933  66.258  1.00  0.00    -0.596 C  
ENDBRANCH  24  25
ENDBRANCH  23  24
ENDBRANCH  22  23
ENDBRANCH  21  22
ENDBRANCH  20  21
ENDBRANCH  17  20
ENDBRANCH  15  17
ENDBRANCH   1  15
BRANCH   1  27
HETATM   27  C   UNL     1     -10.121  13.339  66.232  1.00  0.00    -0.294 C  
BRANCH  27  28
HETATM   28  N   UNL     1     -11.121  12.561  65.461  1.00  0.00    -0.291 NA 
HETATM   29  C   UNL     1     -10.426  11.535  64.647  1.00  0.00    -0.301 C  
HETATM   30  C   UNL     1     -11.864  13.395  64.515  1.00  0.00    -0.398 C  
HETATM   31  C   UNL     1     -11.100  11.482  63.283  1.00  0.00    -0.273 C  
HETATM   32  C   UNL     1     -12.216  12.500  63.343  1.00  0.00    -0.613 C  
ENDBRANCH  27  28
ENDBRANCH   1  27
TORSDOF 12
ENDMDL
MODEL       33
REMARK 921   NORMALIZED FREE ENERGY PREDICTED BY IDOCK:   -5.88 KCAL/MOL
REMARK 922        TOTAL FREE ENERGY PREDICTED BY IDOCK:  -12.05 KCAL/MOL
REMARK 923 INTER-LIGAND FREE ENERGY PREDICTED BY IDOCK:  -10.21 KCAL/MOL
REMARK 924 INTRA-LIGAND FREE ENERGY PREDICTED BY IDOCK:   -1.84 KCAL/MOL
REMARK 927      BINDING AFFINITY PREDICTED BY RF-SCORE:    0.00 PKD
ROOT
HETATM    1  C   UNL     1     -11.259  12.575  67.571  1.00  0.00    -0.291 C  
ENDROOT
BRANCH   1   2
HETATM    2  C   UNL     1     -11.161  13.870  68.443  1.00  0.00    -0.255 C  
HETATM    3  O   UNL     1     -12.425  14.205  69.031  1.00  0.00    -0.531 OA 
HETATM    4  H   UNL     1     -12.365  14.992  69.561  1.00  0.00     0.000 HD 
BRANCH   2   5
HETATM    5  C   UNL     1     -10.566  15.063  67.690  1.00  0.00    -0.267 A  
HETATM    6  C   UNL     1      -9.620  19.615  67.796  1.00  0.00    -0.354 C  
HETATM    7  C   UNL     1     -10.356  17.479  67.455  1.00  0.00    -0.356 A  
HETATM    8  C   UNL     1      -9.560  14.919  66.716  1.00  0.00    -0.265 A  
HETATM    9  C   UNL     1      -9.369  17.322  66.482  1.00  0.00    -0.264 A  
HETATM   10  C   UNL     1      -9.161  19.651  66.347  1.00  0.00    -0.379 C  
HETATM   11  C   UNL     1     -10.982  16.366  68.025  1.00  0.00    -0.327 A  
HETATM   12  O   UNL     1      -8.700  18.368  65.901  1.00  0.00    -0.497 OA 
HETATM   13  O   UNL     1     -10.723  18.711  67.937  1.00  0.00    -0.383 OA 
HETATM   14  C   UNL     1      -8.985  16.039  66.099  1.00  0.00    -0.381 A  
ENDBRANCH   2   5
ENDBRANCH   1   2
BRANCH   1  15
HETATM   15  N   UNL     1     -12.453  12.687  66.715  1.00  0.00    -0.190 NA 
HETATM   16  H   UNL     1     -13.348  12.454  67.147  1.00  0.00     0.000 HD 
BRANCH  15  17
HETATM   17  C   UNL     1     -12.487  13.043  65.494  1.00  0.00    -0.438 C  
HETATM   18  H   UNL     1     -12.876  14.509  64.127  1.00  0.00     0.000 HD 
HETATM   19  O   UNL     1     -12.850  14.243  65.039  1.00  0.00    -0.674 OA 
BRANCH  17  20
HETATM   20  C   UNL     1     -12.106  12.066  64.410  1.00  0.00    -0.375 C  
BRANCH  20  21
HETATM   21  C   UNL     1     -11.045  12.619  63.465  1.00  0.00    -0.449 C  
BRANCH  21  22
HETATM   22  C   UNL     1      -9.758  11.792  63.451  1.00  0.00    -0.341 C  
BRANCH  22  23
HETATM   23  C   UNL     1      -9.932  10.500  64.251  1.00  0.00    -0.398 C  
BRANCH  23  24
HETATM   24  C   UNL     1      -8.844   9.478  63.921  1.00  0.00    -0.240 C  
BRANCH  24  25
HETATM   25  C   UNL     1      -8.532   8.597  65.132  1.00  0.00    -0.197 C  
HETATM   26  C   UNL     1      -9.552   8.790  66.241  1.00  0.00    -0.328 C  
ENDBRANCH  24  25
ENDBRANCH  23  24
ENDBRANCH  22  23
ENDBRANCH  21  22
ENDBRANCH  20  21
ENDBRANCH  17  20
ENDBRANCH  15  17
ENDBRANCH   1  15
BRANCH   1  27
HETATM   27  C   UNL     1     -11.474  11.220  68.330  1.00  0.00    -0.307 C  
BRANCH  27  28
HETATM   28  N   UNL     1     -11.538  11.140  69.810  1.00  0.00    -0.303 NA 
HETATM   29  C   UNL     1     -10.693  10.016  70.280  1.00  0.00    -0.309 C  
HETATM   30  C   UNL     1     -12.891  10.860  70.293  1.00  0.00    -0.142 C  
HETATM   31  C   UNL     1     -11.437   9.309  71.404  1.00  0.00    -0.439 C  
HETATM   32  C   UNL     1     -12.731  10.070  71.576  1.00  0.00    -0.532 C  
ENDBRANCH  27  28
ENDBRANCH   1  27
TORSDOF 12
ENDMDL
MODEL       34
REMARK 921   NORMALIZED FREE ENERGY PREDICTED BY IDOCK:   -5.83 KCAL/MOL
REMARK 922        TOTAL FREE ENERGY PREDICTED BY IDOCK:  -11.98 KCAL/MOL
REMARK 923 INTER-LIGAND FREE ENERGY PREDICTED BY IDOCK:  -10.80 KCAL/MOL
REMARK 924 INTRA-LIGAND FREE ENERGY PREDICTED BY IDOCK:   -1.19 KCAL/MOL
REMARK 927      BINDING AFFINITY PREDICTED BY RF-SCORE:    0.00 PKD
ROOT
HETATM    1  C   UNL     1     -11.908  13.267  68.755  1.00  0.00    -0.334 C  
ENDROOT
BRANCH   1   2
HETATM    2  C   UNL     1     -11.747  14.542  69.648  1.00  0.00    -0.307 C  
HETATM    3  O   UNL     1     -13.015  15.147  69.933  1.00  0.00    -0.618 OA 
HETATM    4  H   UNL     1     -12.918  15.921  70.476  1.00  0.00     0.000 HD 
BRANCH   2   5
HETATM    5  C   UNL     1     -10.762  15.563  69.074  1.00  0.00    -0.243 A  
HETATM    6  C   UNL     1     -10.143  19.935  67.613  1.00  0.00    -0.427 C  
HETATM    7  C   UNL     1     -10.395  17.687  67.938  1.00  0.00    -0.371 A  
HETATM    8  C   UNL     1      -9.374  15.485  69.294  1.00  0.00    -0.266 A  
HETATM    9  C   UNL     1      -9.019  17.591  68.153  1.00  0.00    -0.266 A  
HETATM   10  C   UNL     1      -8.732  19.670  67.113  1.00  0.00    -0.312 C  
HETATM   11  C   UNL     1     -11.256  16.667  68.352  1.00  0.00    -0.239 A  
HETATM   12  O   UNL     1      -8.123  18.564  67.793  1.00  0.00    -0.245 OA 
HETATM   13  O   UNL     1     -10.973  18.793  67.366  1.00  0.00    -0.422 OA 
HETATM   14  C   UNL     1      -8.508  16.477  68.815  1.00  0.00    -0.248 A  
ENDBRANCH   2   5
ENDBRANCH   1   2
BRANCH   1  15
HETATM   15  N   UNL     1     -10.948  12.253  69.222  1.00  0.00    -0.426 NA 
HETATM   16  H   UNL     1      -9.961  12.513  69.195  1.00  0.00     0.000 HD 
BRANCH  15  17
HETATM   17  C   UNL     1     -11.217  11.088  69.657  1.00  0.00    -0.278 C  
HETATM   18  H   UNL     1     -10.557   9.207  70.095  1.00  0.00     0.000 HD 
HETATM   19  O   UNL     1     -10.356  10.077  69.770  1.00  0.00    -0.224 OA 
BRANCH  17  20
HETATM   20  C   UNL     1     -12.621  10.749  70.091  1.00  0.00    -0.309 C  
BRANCH  20  21
HETATM   21  C   UNL     1     -12.768  10.677  71.607  1.00  0.00    -0.531 C  
BRANCH  21  22
HETATM   22  C   UNL     1     -13.393   9.367  72.092  1.00  0.00    -0.545 C  
BRANCH  22  23
HETATM   23  C   UNL     1     -12.328   8.279  72.246  1.00  0.00    -0.410 C  
BRANCH  23  24
HETATM   24  C   UNL     1     -12.561   7.117  71.281  1.00  0.00    -0.421 C  
BRANCH  24  25
HETATM   25  C   UNL     1     -11.341   6.893  70.387  1.00  0.00    -0.376 C  
HETATM   26  C   UNL     1     -10.734   5.517  70.604  1.00  0.00    -0.303 C  
ENDBRANCH  24  25
ENDBRANCH  23  24
ENDBRANCH  22  23
ENDBRANCH  21  22
ENDBRANCH  20  21
ENDBRANCH  17  20
ENDBRANCH  15  17
ENDBRANCH   1  15
BRANCH   1  27
HETATM   27  C   UNL     1     -11.573  13.420  67.230  1.00  0.00    -0.360 C  
BRANCH  27  28
HETATM   28  N   UNL     1     -11.950  12.395  66.227  1.00  0.00    -0.607 NA 
HETATM   29  C   UNL     1     -10.725  11.779  65.666  1.00  0.00    -0.280 C  
HETATM   30  C   UNL     1     -12.673  12.970  65.091  1.00  0.00    -0.397 C  
HETATM   31  C   UNL     1     -10.934  11.597  64.169  1.00  0.00    -0.442 C  
HETATM   32  C   UNL     1     -12.326  12.115  63.889  1.00  0.00    -0.587 C  
ENDBRANCH  27  28
ENDBRANCH   1  27
TORSDOF 12
ENDMDL
MODEL       35
REMARK 921   NORMALIZED FREE ENERGY PREDICTED BY IDOCK:   -5.82 KCAL/MOL
REMARK 922        TOTAL FREE ENERGY PREDICTED BY IDOCK:  -11.95 KCAL/MOL
REMARK 923 INTER-LIGAND FREE ENERGY PREDICTED BY IDOCK:  -10.15 KCAL/MOL
REMARK 924 INTRA-LIGAND FREE ENERGY PREDICTED BY IDOCK:   -1.80 KCAL/MOL
REMARK 927      BINDING AFFINITY PREDICTED BY RF-SCORE:    0.00 PKD
ROOT
HETATM    1  C   UNL     1     -11.244  15.099  68.768  1.00  0.00    -0.284 C  
ENDROOT
BRANCH   1   2
HETATM    2  C   UNL     1     -11.963  13.787  68.311  1.00  0.00    -0.357 C  
HETATM    3  O   UNL     1     -11.756  12.721  69.246  1.00  0.00    -0.289 OA 
HETATM    4  H   UNL     1     -12.193  11.924  68.969  1.00  0.00     0.000 HD 
BRANCH   2   5
HETATM    5  C   UNL     1     -11.592  13.358  66.889  1.00  0.00    -0.404 A  
HETATM    6  C   UNL     1      -9.492  10.161  64.244  1.00  0.00    -0.305 C  
HETATM    7  C   UNL     1     -10.218  11.977  65.426  1.00  0.00    -0.263 A  
HETATM    8  C   UNL     1     -12.348  13.733  65.762  1.00  0.00    -0.523 A  
HETATM    9  C   UNL     1     -10.969  12.366  64.315  1.00  0.00    -0.351 A  
HETATM   10  C   UNL     1      -9.659  10.968  62.967  1.00  0.00    -0.364 C  
HETATM   11  C   UNL     1     -10.495  12.497  66.693  1.00  0.00    -0.252 A  
HETATM   12  O   UNL     1     -10.765  11.877  63.051  1.00  0.00    -0.288 OA 
HETATM   13  O   UNL     1      -9.221  11.037  65.345  1.00  0.00    -0.203 OA 
HETATM   14  C   UNL     1     -12.022  13.261  64.482  1.00  0.00    -0.449 A  
ENDBRANCH   2   5
ENDBRANCH   1   2
BRANCH   1  15
HETATM   15  N   UNL     1      -9.920  14.735  69.303  1.00  0.00    -0.364 NA 
HETATM   16  H   UNL     1      -9.908  14.062  70.070  1.00  0.00     0.000 HD 
BRANCH  15  17
HETATM   17  C   UNL     1      -8.791  15.171  68.911  1.00  0.00    -0.205 C  
HETATM   18  H   UNL     1      -6.767  15.214  69.169  1.00  0.00     0.000 HD 
HETATM   19  O   UNL     1      -7.610  14.888  69.462  1.00  0.00    -0.177 OA 
BRANCH  17  20
HETATM   20  C   UNL     1      -8.709  16.103  67.729  1.00  0.00    -0.174 C  
BRANCH  20  21
HETATM   21  C   UNL     1      -7.288  16.584  67.455  1.00  0.00    -0.167 C  
BRANCH  21  22
HETATM   22  C   UNL     1      -7.153  18.108  67.470  1.00  0.00    -0.205 C  
BRANCH  22  23
HETATM   23  C   UNL     1      -7.650  18.712  66.155  1.00  0.00    -0.276 C  
BRANCH  23  24
HETATM   24  C   UNL     1      -8.505  19.957  66.390  1.00  0.00    -0.379 C  
BRANCH  24  25
HETATM   25  C   UNL     1      -9.977  19.678  66.087  1.00  0.00    -0.554 C  
HETATM   26  C   UNL     1     -10.718  19.185  67.319  1.00  0.00    -0.585 C  
ENDBRANCH  24  25
ENDBRANCH  23  24
ENDBRANCH  22  23
ENDBRANCH  21  22
ENDBRANCH  20  21
ENDBRANCH  17  20
ENDBRANCH  15  17
ENDBRANCH   1  15
BRANCH   1  27
HETATM   27  C   UNL     1     -11.908  15.904  69.938  1.00  0.00    -0.300 C  
BRANCH  27  28
HETATM   28  N   UNL     1     -12.337  15.260  71.203  1.00  0.00    -0.327 NA 
HETATM   29  C   UNL     1     -13.818  15.233  71.266  1.00  0.00    -0.478 C  
HETATM   30  C   UNL     1     -11.894  16.003  72.383  1.00  0.00    -0.535 C  
HETATM   31  C   UNL     1     -14.233  15.567  72.692  1.00  0.00    -0.397 C  
HETATM   32  C   UNL     1     -12.944  15.771  73.452  1.00  0.00    -0.696 C  
ENDBRANCH  27  28
ENDBRANCH   1  27
TORSDOF 12
ENDMDL
MODEL       36
REMARK 921   NORMALIZED FREE ENERGY PREDICTED BY IDOCK:   -5.81 KCAL/MOL
REMARK 922        TOTAL FREE ENERGY PREDICTED BY IDOCK:  -11.94 KCAL/MOL
REMARK 923 INTER-LIGAND FREE ENERGY PREDICTED BY IDOCK:   -9.71 KCAL/MOL
REMARK 924 INTRA-LIGAND FREE ENERGY PREDICTED BY IDOCK:   -2.23 KCAL/MOL
REMARK 927      BINDING AFFINITY PREDICTED BY RF-SCORE:    0.00 PKD
ROOT
HETATM    1  C   UNL     1     -11.788   8.414  71.520  1.00  0.00    -0.297 C  
ENDROOT
BRANCH   1   2
HETATM    2  C   UNL     1     -13.094   9.265  71.654  1.00  0.00    -0.382 C  
HETATM    3  O   UNL     1     -14.178   8.682  70.918  1.00  0.00    -0.623 OA 
HETATM    4  H   UNL     1     -14.971   9.199  70.998  1.00  0.00     0.000 HD 
BRANCH   2   5
HETATM    5  C   UNL     1     -12.898  10.736  71.280  1.00  0.00    -0.540 A  
HETATM    6  C   UNL     1     -12.947  15.140  72.774  1.00  0.00    -0.427 C  
HETATM    7  C   UNL     1     -13.253  13.085  71.824  1.00  0.00    -0.392 A  
HETATM    8  C   UNL     1     -12.055  11.147  70.230  1.00  0.00    -0.462 A  
HETATM    9  C   UNL     1     -12.424  13.477  70.772  1.00  0.00    -0.353 A  
HETATM   10  C   UNL     1     -12.745  15.716  71.382  1.00  0.00    -0.471 C  
HETATM   11  C   UNL     1     -13.525  11.733  72.053  1.00  0.00    -0.319 A  
HETATM   12  O   UNL     1     -12.099  14.783  70.506  1.00  0.00    -0.275 OA 
HETATM   13  O   UNL     1     -13.793  13.985  72.709  1.00  0.00    -0.674 OA 
HETATM   14  C   UNL     1     -11.841  12.506  69.962  1.00  0.00    -0.363 A  
ENDBRANCH   2   5
ENDBRANCH   1   2
BRANCH   1  15
HETATM   15  N   UNL     1     -11.946   7.505  70.372  1.00  0.00    -0.509 NA 
HETATM   16  H   UNL     1     -12.837   7.012  70.300  1.00  0.00     0.000 HD 
BRANCH  15  17
HETATM   17  C   UNL     1     -11.091   7.270  69.460  1.00  0.00    -0.107 C  
HETATM   18  H   UNL     1     -10.348   5.966  68.076  1.00  0.00     0.000 HD 
HETATM   19  O   UNL     1     -10.988   6.142  68.757  1.00  0.00    -0.310 OA 
BRANCH  17  20
HETATM   20  C   UNL     1     -10.065   8.314  69.098  1.00  0.00    -0.205 C  
BRANCH  20  21
HETATM   21  C   UNL     1     -10.388   9.028  67.790  1.00  0.00    -0.304 C  
BRANCH  21  22
HETATM   22  C   UNL     1      -9.200   9.803  67.215  1.00  0.00    -0.153 C  
BRANCH  22  23
HETATM   23  C   UNL     1      -9.673  11.050  66.465  1.00  0.00    -0.230 C  
BRANCH  23  24
HETATM   24  C   UNL     1     -11.175  11.278  66.635  1.00  0.00    -0.247 C  
BRANCH  24  25
HETATM   25  C   UNL     1     -11.706  12.249  65.581  1.00  0.00    -0.440 C  
HETATM   26  C   UNL     1     -12.215  13.535  66.211  1.00  0.00    -0.468 C  
ENDBRANCH  24  25
ENDBRANCH  23  24
ENDBRANCH  22  23
ENDBRANCH  21  22
ENDBRANCH  20  21
ENDBRANCH  17  20
ENDBRANCH  15  17
ENDBRANCH   1  15
BRANCH   1  27
HETATM   27  C   UNL     1     -11.441   7.451  72.710  1.00  0.00    -0.265 C  
BRANCH  27  28
HETATM   28  N   UNL     1     -10.049   7.224  73.168  1.00  0.00    -0.241 NA 
HETATM   29  C   UNL     1      -9.189   8.338  72.704  1.00  0.00    -0.274 C  
HETATM   30  C   UNL     1      -9.472   6.003  72.605  1.00  0.00    -0.146 C  
HETATM   31  C   UNL     1      -7.864   7.747  72.243  1.00  0.00    -0.127 C  
HETATM   32  C   UNL     1      -7.984   6.258  72.471  1.00  0.00    -0.103 C  
ENDBRANCH  27  28
ENDBRANCH   1  27
TORSDOF 12
ENDMDL
MODEL       37
REMARK 921   NORMALIZED FREE ENERGY PREDICTED BY IDOCK:   -5.80 KCAL/MOL
REMARK 922        TOTAL FREE ENERGY PREDICTED BY IDOCK:  -11.93 KCAL/MOL
REMARK 923 INTER-LIGAND FREE ENERGY PREDICTED BY IDOCK:  -10.40 KCAL/MOL
REMARK 924 INTRA-LIGAND FREE ENERGY PREDICTED BY IDOCK:   -1.53 KCAL/MOL
REMARK 927      BINDING AFFINITY PREDICTED BY RF-SCORE:    0.00 PKD
ROOT
HETATM    1  C   UNL     1     -11.173  13.594  68.811  1.00  0.00    -0.279 C  
ENDROOT
BRANCH   1   2
HETATM    2  C   UNL     1     -12.032  13.072  70.010  1.00  0.00    -0.312 C  
HETATM    3  O   UNL     1     -11.828  13.864  71.187  1.00  0.00    -0.479 OA 
HETATM    4  H   UNL     1     -12.350  13.547  71.916  1.00  0.00     0.000 HD 
BRANCH   2   5
HETATM    5  C   UNL     1     -11.825  11.583  70.300  1.00  0.00    -0.431 A  
HETATM    6  C   UNL     1     -13.805   7.598  71.650  1.00  0.00    -0.389 C  
HETATM    7  C   UNL     1     -12.633   9.536  71.343  1.00  0.00    -0.359 A  
HETATM    8  C   UNL     1     -10.818  10.822  69.676  1.00  0.00    -0.294 A  
HETATM    9  C   UNL     1     -11.622   8.795  70.728  1.00  0.00    -0.251 A  
HETATM   10  C   UNL     1     -12.484   6.847  71.703  1.00  0.00    -0.375 C  
HETATM   11  C   UNL     1     -12.712  10.920  71.170  1.00  0.00    -0.530 A  
HETATM   12  O   UNL     1     -11.502   7.434  70.838  1.00  0.00    -0.274 OA 
HETATM   13  O   UNL     1     -13.620   8.947  72.096  1.00  0.00    -0.391 OA 
HETATM   14  C   UNL     1     -10.702   9.445  69.909  1.00  0.00    -0.258 A  
ENDBRANCH   2   5
ENDBRANCH   1   2
BRANCH   1  15
HETATM   15  N   UNL     1     -10.311  14.683  69.303  1.00  0.00    -0.343 NA 
HETATM   16  H   UNL     1     -10.668  15.228  70.089  1.00  0.00     0.000 HD 
BRANCH  15  17
HETATM   17  C   UNL     1      -9.169  15.016  68.853  1.00  0.00    -0.206 C  
HETATM   18  H   UNL     1      -7.262  14.460  68.385  1.00  0.00     0.000 HD 
HETATM   19  O   UNL     1      -8.115  14.211  68.721  1.00  0.00    -0.139 OA 
BRANCH  17  20
HETATM   20  C   UNL     1      -8.912  16.438  68.420  1.00  0.00    -0.214 C  
BRANCH  20  21
HETATM   21  C   UNL     1     -10.116  17.348  68.642  1.00  0.00    -0.355 C  
BRANCH  21  22
HETATM   22  C   UNL     1     -10.742  17.850  67.339  1.00  0.00    -0.306 C  
BRANCH  22  23
HETATM   23  C   UNL     1     -10.881  19.373  67.352  1.00  0.00    -0.555 C  
BRANCH  23  24
HETATM   24  C   UNL     1     -10.206  20.015  66.141  1.00  0.00    -0.589 C  
BRANCH  24  25
HETATM   25  C   UNL     1      -8.698  19.762  66.153  1.00  0.00    -0.368 C  
HETATM   26  C   UNL     1      -8.050  20.309  67.414  1.00  0.00    -0.377 C  
ENDBRANCH  24  25
ENDBRANCH  23  24
ENDBRANCH  22  23
ENDBRANCH  21  22
ENDBRANCH  20  21
ENDBRANCH  17  20
ENDBRANCH  15  17
ENDBRANCH   1  15
BRANCH   1  27
HETATM   27  C   UNL     1     -11.946  14.247  67.613  1.00  0.00    -0.365 C  
BRANCH  27  28
HETATM   28  N   UNL     1     -11.404  14.262  66.232  1.00  0.00    -0.338 NA 
HETATM   29  C   UNL     1     -12.519  14.145  65.263  1.00  0.00    -0.461 C  
HETATM   30  C   UNL     1     -10.518  13.127  65.971  1.00  0.00    -0.284 C  
HETATM   31  C   UNL     1     -12.074  13.211  64.147  1.00  0.00    -0.496 C  
HETATM   32  C   UNL     1     -10.661  12.806  64.496  1.00  0.00    -0.380 C  
ENDBRANCH  27  28
ENDBRANCH   1  27
TORSDOF 12
ENDMDL
MODEL       38
REMARK 921   NORMALIZED FREE ENERGY PREDICTED BY IDOCK:   -5.78 KCAL/MOL
REMARK 922        TOTAL FREE ENERGY PREDICTED BY IDOCK:  -11.88 KCAL/MOL
REMARK 923 INTER-LIGAND FREE ENERGY PREDICTED BY IDOCK:  -10.48 KCAL/MOL
REMARK 924 INTRA-LIGAND FREE ENERGY PREDICTED BY IDOCK:   -1.40 KCAL/MOL
REMARK 927      BINDING AFFINITY PREDICTED BY RF-SCORE:    0.00 PKD
ROOT
HETATM    1  C   UNL     1     -11.049  13.119  68.175  1.00  0.00    -0.255 C  
ENDROOT
BRANCH   1   2
HETATM    2  C   UNL     1     -11.250  14.366  69.098  1.00  0.00    -0.272 C  
HETATM    3  O   UNL     1     -12.628  14.758  69.158  1.00  0.00    -0.574 OA 
HETATM    4  H   UNL     1     -12.750  15.516  69.718  1.00  0.00     0.000 HD 
BRANCH   2   5
HETATM    5  C   UNL     1     -10.352  15.547  68.722  1.00  0.00    -0.217 A  
HETATM    6  C   UNL     1     -10.168  20.065  67.634  1.00  0.00    -0.408 C  
HETATM    7  C   UNL     1     -10.146  17.785  67.780  1.00  0.00    -0.345 A  
HETATM    8  C   UNL     1      -9.003  15.631  69.116  1.00  0.00    -0.257 A  
HETATM    9  C   UNL     1      -8.806  17.849  68.166  1.00  0.00    -0.265 A  
HETATM   10  C   UNL     1      -8.685  20.025  67.306  1.00  0.00    -0.343 C  
HETATM   11  C   UNL     1     -10.903  16.634  68.013  1.00  0.00    -0.337 A  
HETATM   12  O   UNL     1      -8.016  18.955  67.988  1.00  0.00    -0.271 OA 
HETATM   13  O   UNL     1     -10.797  18.850  67.209  1.00  0.00    -0.458 OA 
HETATM   14  C   UNL     1      -8.230  16.762  68.818  1.00  0.00    -0.250 A  
ENDBRANCH   2   5
ENDBRANCH   1   2
BRANCH   1  15
HETATM   15  N   UNL     1     -10.445  12.043  68.980  1.00  0.00    -0.405 NA 
HETATM   16  H   UNL     1      -9.606  12.285  69.507  1.00  0.00     0.000 HD 
BRANCH  15  17
HETATM   17  C   UNL     1     -10.859  10.845  69.087  1.00  0.00    -0.235 C  
HETATM   18  H   UNL     1     -11.382   9.103  68.160  1.00  0.00     0.000 HD 
HETATM   19  O   UNL     1     -11.072   9.998  68.079  1.00  0.00    -0.266 OA 
BRANCH  17  20
HETATM   20  C   UNL     1     -11.165  10.269  70.447  1.00  0.00    -0.407 C  
BRANCH  20  21
HETATM   21  C   UNL     1     -12.652  10.001  70.653  1.00  0.00    -0.301 C  
BRANCH  21  22
HETATM   22  C   UNL     1     -13.266  10.834  71.780  1.00  0.00    -0.523 C  
BRANCH  22  23
HETATM   23  C   UNL     1     -12.637  12.228  71.832  1.00  0.00    -0.044 C  
BRANCH  23  24
HETATM   24  C   UNL     1     -13.657  13.296  72.223  1.00  0.00    -0.703 C  
BRANCH  24  25
HETATM   25  C   UNL     1     -12.969  14.516  72.836  1.00  0.00    -0.582 C  
HETATM   26  C   UNL     1     -13.858  15.747  72.779  1.00  0.00    -0.600 C  
ENDBRANCH  24  25
ENDBRANCH  23  24
ENDBRANCH  22  23
ENDBRANCH  21  22
ENDBRANCH  20  21
ENDBRANCH  17  20
ENDBRANCH  15  17
ENDBRANCH   1  15
BRANCH   1  27
HETATM   27  C   UNL     1     -10.060  13.279  66.968  1.00  0.00    -0.242 C  
BRANCH  27  28
HETATM   28  N   UNL     1     -10.491  13.109  65.559  1.00  0.00    -0.283 NA 
HETATM   29  C   UNL     1     -10.928  14.416  65.016  1.00  0.00    -0.389 C  
HETATM   30  C   UNL     1     -11.641  12.212  65.435  1.00  0.00    -0.330 C  
HETATM   31  C   UNL     1     -12.172  14.181  64.171  1.00  0.00    -0.423 C  
HETATM   32  C   UNL     1     -12.427  12.693  64.232  1.00  0.00    -0.494 C  
ENDBRANCH  27  28
ENDBRANCH   1  27
TORSDOF 12
ENDMDL
MODEL       39
REMARK 921   NORMALIZED FREE ENERGY PREDICTED BY IDOCK:   -5.75 KCAL/MOL
REMARK 922        TOTAL FREE ENERGY PREDICTED BY IDOCK:  -11.83 KCAL/MOL
REMARK 923 INTER-LIGAND FREE ENERGY PREDICTED BY IDOCK:  -10.31 KCAL/MOL
REMARK 924 INTRA-LIGAND FREE ENERGY PREDICTED BY IDOCK:   -1.52 KCAL/MOL
REMARK 927      BINDING AFFINITY PREDICTED BY RF-SCORE:    0.00 PKD
ROOT
HETATM    1  C   UNL     1     -11.703  14.516  69.508  1.00  0.00    -0.314 C  
ENDROOT
BRANCH   1   2
HETATM    2  C   UNL     1     -10.845  15.673  70.118  1.00  0.00    -0.343 C  
HETATM    3  O   UNL     1     -11.615  16.477  71.023  1.00  0.00    -0.598 OA 
HETATM    4  H   UNL     1     -11.094  17.180  71.394  1.00  0.00     0.000 HD 
BRANCH   2   5
HETATM    5  C   UNL     1     -10.154  16.537  69.060  1.00  0.00    -0.279 A  
HETATM    6  C   UNL     1      -6.334  17.175  66.486  1.00  0.00    -0.218 C  
HETATM    7  C   UNL     1      -8.096  17.206  67.940  1.00  0.00    -0.201 A  
HETATM    8  C   UNL     1     -10.871  17.285  68.106  1.00  0.00    -0.294 A  
HETATM    9  C   UNL     1      -8.818  17.953  67.008  1.00  0.00    -0.250 A  
HETATM   10  C   UNL     1      -6.813  18.507  65.931  1.00  0.00    -0.283 C  
HETATM   11  C   UNL     1      -8.748  16.539  68.982  1.00  0.00    -0.215 A  
HETATM   12  O   UNL     1      -8.244  18.610  65.951  1.00  0.00    -0.488 OA 
HETATM   13  O   UNL     1      -6.736  17.043  67.855  1.00  0.00    -0.142 OA 
HETATM   14  C   UNL     1     -10.206  18.008  67.105  1.00  0.00    -0.366 A  
ENDBRANCH   2   5
ENDBRANCH   1   2
BRANCH   1  15
HETATM   15  N   UNL     1     -11.959  13.525  70.568  1.00  0.00    -0.497 NA 
HETATM   16  H   UNL     1     -11.252  12.801  70.696  1.00  0.00     0.000 HD 
BRANCH  15  17
HETATM   17  C   UNL     1     -12.968  13.478  71.341  1.00  0.00    -0.339 C  
HETATM   18  H   UNL     1     -14.570  14.442  72.160  1.00  0.00     0.000 HD 
HETATM   19  O   UNL     1     -13.817  14.478  71.582  1.00  0.00    -0.381 OA 
BRANCH  17  20
HETATM   20  C   UNL     1     -13.286  12.209  72.093  1.00  0.00    -0.438 C  
BRANCH  20  21
HETATM   21  C   UNL     1     -12.802  10.958  71.368  1.00  0.00    -0.554 C  
BRANCH  21  22
HETATM   22  C   UNL     1     -13.356   9.662  71.963  1.00  0.00    -0.547 C  
BRANCH  22  23
HETATM   23  C   UNL     1     -12.249   8.620  72.126  1.00  0.00    -0.453 C  
BRANCH  23  24
HETATM   24  C   UNL     1     -11.056   8.913  71.217  1.00  0.00    -0.367 C  
BRANCH  24  25
HETATM   25  C   UNL     1     -10.879   7.812  70.170  1.00  0.00    -0.248 C  
HETATM   26  C   UNL     1     -11.743   6.601  70.481  1.00  0.00    -0.453 C  
ENDBRANCH  24  25
ENDBRANCH  23  24
ENDBRANCH  22  23
ENDBRANCH  21  22
ENDBRANCH  20  21
ENDBRANCH  17  20
ENDBRANCH  15  17
ENDBRANCH   1  15
BRANCH   1  27
HETATM   27  C   UNL     1     -11.045  13.671  68.363  1.00  0.00    -0.264 C  
BRANCH  27  28
HETATM   28  N   UNL     1     -11.459  13.796  66.944  1.00  0.00    -0.331 NA 
HETATM   29  C   UNL     1     -11.820  12.460  66.415  1.00  0.00    -0.354 C  
HETATM   30  C   UNL     1     -10.377  14.292  66.091  1.00  0.00    -0.299 C  
HETATM   31  C   UNL     1     -11.271  12.351  65.000  1.00  0.00    -0.354 C  
HETATM   32  C   UNL     1     -10.596  13.675  64.724  1.00  0.00    -0.436 C  
ENDBRANCH  27  28
ENDBRANCH   1  27
TORSDOF 12
ENDMDL
MODEL       40
REMARK 921   NORMALIZED FREE ENERGY PREDICTED BY IDOCK:   -5.74 KCAL/MOL
REMARK 922        TOTAL FREE ENERGY PREDICTED BY IDOCK:  -11.83 KCAL/MOL
REMARK 923 INTER-LIGAND FREE ENERGY PREDICTED BY IDOCK:  -10.56 KCAL/MOL
REMARK 924 INTRA-LIGAND FREE ENERGY PREDICTED BY IDOCK:   -1.26 KCAL/MOL
REMARK 927      BINDING AFFINITY PREDICTED BY RF-SCORE:    0.00 PKD
ROOT
HETATM    1  C   UNL     1     -11.172  14.098  68.922  1.00  0.00    -0.267 C  
ENDROOT
BRANCH   1   2
HETATM    2  C   UNL     1      -9.790  14.249  68.204  1.00  0.00    -0.226 C  
HETATM    3  O   UNL     1      -8.746  13.588  68.931  1.00  0.00    -0.373 OA 
HETATM    4  H   UNL     1      -7.906  13.680  68.495  1.00  0.00     0.000 HD 
BRANCH   2   5
HETATM    5  C   UNL     1      -9.420  15.704  67.903  1.00  0.00    -0.204 A  
HETATM    6  C   UNL     1     -10.718  19.676  65.861  1.00  0.00    -0.413 C  
HETATM    7  C   UNL     1      -9.793  17.711  66.574  1.00  0.00    -0.319 A  
HETATM    8  C   UNL     1      -8.570  16.458  68.733  1.00  0.00    -0.250 A  
HETATM    9  C   UNL     1      -8.938  18.444  67.398  1.00  0.00    -0.261 A  
HETATM   10  C   UNL     1      -9.386  20.359  66.127  1.00  0.00    -0.100 C  
HETATM   11  C   UNL     1     -10.001  16.347  66.792  1.00  0.00    -0.277 A  
HETATM   12  O   UNL     1      -8.708  19.788  67.253  1.00  0.00    -0.299 OA 
HETATM   13  O   UNL     1     -10.505  18.292  65.554  1.00  0.00    -0.616 OA 
HETATM   14  C   UNL     1      -8.311  17.810  68.468  1.00  0.00    -0.298 A  
ENDBRANCH   2   5
ENDBRANCH   1   2
BRANCH   1  15
HETATM   15  N   UNL     1     -12.204  13.887  67.892  1.00  0.00    -0.483 NA 
HETATM   16  H   UNL     1     -13.014  14.507  67.924  1.00  0.00     0.000 HD 
BRANCH  15  17
HETATM   17  C   UNL     1     -12.193  13.013  66.967  1.00  0.00    -0.153 C  
HETATM   18  H   UNL     1     -11.882  11.070  66.422  1.00  0.00     0.000 HD 
HETATM   19  O   UNL     1     -11.891  11.723  67.114  1.00  0.00    -0.599 OA 
BRANCH  17  20
HETATM   20  C   UNL     1     -12.533  13.406  65.551  1.00  0.00    -0.534 C  
BRANCH  20  21
HETATM   21  C   UNL     1     -11.297  13.564  64.671  1.00  0.00    -0.375 C  
BRANCH  21  22
HETATM   22  C   UNL     1     -11.290  12.620  63.466  1.00  0.00    -0.527 C  
BRANCH  22  23
HETATM   23  C   UNL     1     -10.008  11.785  63.436  1.00  0.00    -0.446 C  
BRANCH  23  24
HETATM   24  C   UNL     1     -10.158  10.487  64.229  1.00  0.00    -0.380 C  
BRANCH  24  25
HETATM   25  C   UNL     1      -8.823   9.748  64.331  1.00  0.00    -0.258 C  
HETATM   26  C   UNL     1      -7.960   9.980  63.102  1.00  0.00    -0.148 C  
ENDBRANCH  24  25
ENDBRANCH  23  24
ENDBRANCH  22  23
ENDBRANCH  21  22
ENDBRANCH  20  21
ENDBRANCH  17  20
ENDBRANCH  15  17
ENDBRANCH   1  15
BRANCH   1  27
HETATM   27  C   UNL     1     -11.697  15.340  69.723  1.00  0.00    -0.323 C  
BRANCH  27  28
HETATM   28  N   UNL     1     -12.795  15.239  70.716  1.00  0.00    -0.422 NA 
HETATM   29  C   UNL     1     -12.378  15.891  71.980  1.00  0.00    -0.475 C  
HETATM   30  C   UNL     1     -13.107  13.850  71.058  1.00  0.00    -0.243 C  
HETATM   31  C   UNL     1     -12.864  15.027  73.135  1.00  0.00    -0.615 C  
HETATM   32  C   UNL     1     -13.587  13.864  72.496  1.00  0.00    -0.680 C  
ENDBRANCH  27  28
ENDBRANCH   1  27
TORSDOF 12
ENDMDL
MODEL       41
REMARK 921   NORMALIZED FREE ENERGY PREDICTED BY IDOCK:   -5.74 KCAL/MOL
REMARK 922        TOTAL FREE ENERGY PREDICTED BY IDOCK:  -11.82 KCAL/MOL
REMARK 923 INTER-LIGAND FREE ENERGY PREDICTED BY IDOCK:  -10.31 KCAL/MOL
REMARK 924 INTRA-LIGAND FREE ENERGY PREDICTED BY IDOCK:   -1.52 KCAL/MOL
REMARK 927      BINDING AFFINITY PREDICTED BY RF-SCORE:    0.00 PKD
ROOT
HETATM    1  C   UNL     1     -11.536  11.976  66.428  1.00  0.00    -0.353 C  
ENDROOT
BRANCH   1   2
HETATM    2  C   UNL     1     -12.388  13.287  66.462  1.00  0.00    -0.248 C  
HETATM    3  O   UNL     1     -12.919  13.602  65.168  1.00  0.00    -0.734 OA 
HETATM    4  H   UNL     1     -13.438  14.399  65.188  1.00  0.00     0.000 HD 
BRANCH   2   5
HETATM    5  C   UNL     1     -11.639  14.481  67.059  1.00  0.00    -0.402 A  
HETATM    6  C   UNL     1      -9.582  18.566  66.215  1.00  0.00    -0.273 C  
HETATM    7  C   UNL     1     -10.215  16.427  66.712  1.00  0.00    -0.285 A  
HETATM    8  C   UNL     1     -11.805  14.889  68.396  1.00  0.00    -0.309 A  
HETATM    9  C   UNL     1     -10.379  16.814  68.043  1.00  0.00    -0.317 A  
HETATM   10  C   UNL     1      -9.059  18.705  67.635  1.00  0.00    -0.278 C  
HETATM   11  C   UNL     1     -10.799  15.252  66.232  1.00  0.00    -0.312 A  
HETATM   12  O   UNL     1      -9.852  17.964  68.572  1.00  0.00    -0.329 OA 
HETATM   13  O   UNL     1      -9.526  17.194  65.805  1.00  0.00    -0.525 OA 
HETATM   14  C   UNL     1     -11.160  16.031  68.890  1.00  0.00    -0.331 A  
ENDBRANCH   2   5
ENDBRANCH   1   2
BRANCH   1  15
HETATM   15  N   UNL     1     -10.889  11.814  67.741  1.00  0.00    -0.203 NA 
HETATM   16  H   UNL     1     -10.376  12.620  68.100  1.00  0.00     0.000 HD 
BRANCH  15  17
HETATM   17  C   UNL     1     -10.902  10.775  68.476  1.00  0.00    -0.228 C  
HETATM   18  H   UNL     1     -10.741   8.744  68.608  1.00  0.00     0.000 HD 
HETATM   19  O   UNL     1     -10.731   9.520  68.059  1.00  0.00    -0.239 OA 
BRANCH  17  20
HETATM   20  C   UNL     1     -11.138  10.902  69.960  1.00  0.00    -0.285 C  
BRANCH  20  21
HETATM   21  C   UNL     1     -12.619  10.906  70.323  1.00  0.00    -0.342 C  
BRANCH  21  22
HETATM   22  C   UNL     1     -12.911  11.590  71.660  1.00  0.00    -0.499 C  
BRANCH  22  23
HETATM   23  C   UNL     1     -12.682  13.100  71.562  1.00  0.00    -0.366 C  
BRANCH  23  24
HETATM   24  C   UNL     1     -13.738  13.886  72.337  1.00  0.00    -0.678 C  
BRANCH  24  25
HETATM   25  C   UNL     1     -13.162  15.195  72.878  1.00  0.00    -0.600 C  
HETATM   26  C   UNL     1     -11.694  15.350  72.520  1.00  0.00    -0.564 C  
ENDBRANCH  24  25
ENDBRANCH  23  24
ENDBRANCH  22  23
ENDBRANCH  21  22
ENDBRANCH  20  21
ENDBRANCH  17  20
ENDBRANCH  15  17
ENDBRANCH   1  15
BRANCH   1  27
HETATM   27  C   UNL     1     -10.337  11.933  65.417  1.00  0.00    -0.267 C  
BRANCH  27  28
HETATM   28  N   UNL     1     -10.173  10.843  64.425  1.00  0.00    -0.337 NA 
HETATM   29  C   UNL     1      -8.980  10.036  64.772  1.00  0.00    -0.212 C  
HETATM   30  C   UNL     1      -9.939  11.353  63.073  1.00  0.00    -0.322 C  
HETATM   31  C   UNL     1      -8.248   9.700  63.480  1.00  0.00    -0.158 C  
HETATM   32  C   UNL     1      -9.067  10.328  62.376  1.00  0.00    -0.311 C  
ENDBRANCH  27  28
ENDBRANCH   1  27
TORSDOF 12
ENDMDL
MODEL       42
REMARK 921   NORMALIZED FREE ENERGY PREDICTED BY IDOCK:   -5.72 KCAL/MOL
REMARK 922        TOTAL FREE ENERGY PREDICTED BY IDOCK:  -11.79 KCAL/MOL
REMARK 923 INTER-LIGAND FREE ENERGY PREDICTED BY IDOCK:   -9.55 KCAL/MOL
REMARK 924 INTRA-LIGAND FREE ENERGY PREDICTED BY IDOCK:   -2.23 KCAL/MOL
REMARK 927      BINDING AFFINITY PREDICTED BY RF-SCORE:    0.00 PKD
ROOT
HETATM    1  C   UNL     1     -10.254   9.880  68.624  1.00  0.00    -0.178 C  
ENDROOT
BRANCH   1   2
HETATM    2  C   UNL     1     -11.133  11.117  69.003  1.00  0.00    -0.242 C  
HETATM    3  O   UNL     1     -12.526  10.860  68.779  1.00  0.00    -0.767 OA 
HETATM    4  H   UNL     1     -13.060  11.612  69.009  1.00  0.00     0.000 HD 
BRANCH   2   5
HETATM    5  C   UNL     1     -10.690  12.409  68.312  1.00  0.00    -0.250 A  
HETATM    6  C   UNL     1     -10.803  17.058  68.374  1.00  0.00    -0.333 C  
HETATM    7  C   UNL     1     -10.978  14.809  68.008  1.00  0.00    -0.271 A  
HETATM    8  C   UNL     1      -9.519  12.490  67.534  1.00  0.00    -0.185 A  
HETATM    9  C   UNL     1      -9.822  14.873  67.228  1.00  0.00    -0.229 A  
HETATM   10  C   UNL     1     -10.110  17.189  67.027  1.00  0.00    -0.297 C  
HETATM   11  C   UNL     1     -11.436  13.588  68.509  1.00  0.00    -0.345 A  
HETATM   12  O   UNL     1      -9.307  16.040  66.726  1.00  0.00    -0.217 OA 
HETATM   13  O   UNL     1     -11.687  15.930  68.362  1.00  0.00    -0.358 OA 
HETATM   14  C   UNL     1      -9.103  13.707  66.976  1.00  0.00    -0.254 A  
ENDBRANCH   2   5
ENDBRANCH   1   2
BRANCH   1  15
HETATM   15  N   UNL     1     -10.884   9.201  67.479  1.00  0.00    -0.454 NA 
HETATM   16  H   UNL     1     -11.808   9.535  67.203  1.00  0.00     0.000 HD 
BRANCH  15  17
HETATM   17  C   UNL     1     -10.399   8.241  66.798  1.00  0.00    -0.290 C  
HETATM   18  H   UNL     1     -10.436   6.253  66.337  1.00  0.00     0.000 HD 
HETATM   19  O   UNL     1     -10.798   6.970  66.845  1.00  0.00    -0.354 OA 
BRANCH  17  20
HETATM   20  C   UNL     1      -9.263   8.493  65.840  1.00  0.00    -0.245 C  
BRANCH  20  21
HETATM   21  C   UNL     1      -9.364   9.849  65.149  1.00  0.00    -0.317 C  
BRANCH  21  22
HETATM   22  C   UNL     1      -9.251   9.760  63.625  1.00  0.00    -0.229 C  
BRANCH  22  23
HETATM   23  C   UNL     1      -9.928  10.959  62.958  1.00  0.00    -0.317 C  
BRANCH  23  24
HETATM   24  C   UNL     1     -10.442  11.965  63.986  1.00  0.00    -0.417 C  
BRANCH  24  25
HETATM   25  C   UNL     1     -11.955  12.150  63.866  1.00  0.00    -0.581 C  
HETATM   26  C   UNL     1     -12.531  12.849  65.086  1.00  0.00    -0.561 C  
ENDBRANCH  24  25
ENDBRANCH  23  24
ENDBRANCH  22  23
ENDBRANCH  21  22
ENDBRANCH  20  21
ENDBRANCH  17  20
ENDBRANCH  15  17
ENDBRANCH   1  15
BRANCH   1  27
HETATM   27  C   UNL     1     -10.120   8.746  69.700  1.00  0.00    -0.204 C  
BRANCH  27  28
HETATM   28  N   UNL     1     -11.259   8.316  70.547  1.00  0.00    -0.255 NA 
HETATM   29  C   UNL     1     -10.982   8.665  71.960  1.00  0.00    -0.362 C  
HETATM   30  C   UNL     1     -11.455   6.866  70.518  1.00  0.00    -0.342 C  
HETATM   31  C   UNL     1     -11.448   7.506  72.830  1.00  0.00    -0.311 C  
HETATM   32  C   UNL     1     -12.018   6.485  71.873  1.00  0.00    -0.389 C  
ENDBRANCH  27  28
ENDBRANCH   1  27
TORSDOF 12
ENDMDL
MODEL       43
REMARK 921   NORMALIZED FREE ENERGY PREDICTED BY IDOCK:   -5.71 KCAL/MOL
REMARK 922        TOTAL FREE ENERGY PREDICTED BY IDOCK:  -11.78 KCAL/MOL
REMARK 923 INTER-LIGAND FREE ENERGY PREDICTED BY IDOCK:  -10.18 KCAL/MOL
REMARK 924 INTRA-LIGAND FREE ENERGY PREDICTED BY IDOCK:   -1.60 KCAL/MOL
REMARK 927      BINDING AFFINITY PREDICTED BY RF-SCORE:    0.00 PKD
ROOT
HETATM    1  C   UNL     1     -10.889   9.140  69.250  1.00  0.00    -0.132 C  
ENDROOT
BRANCH   1   2
HETATM    2  C   UNL     1      -9.870  10.144  68.617  1.00  0.00    -0.162 C  
HETATM    3  O   UNL     1      -9.101  10.816  69.623  1.00  0.00    -0.399 OA 
HETATM    4  H   UNL     1      -8.482  11.427  69.239  1.00  0.00     0.000 HD 
BRANCH   2   5
HETATM    5  C   UNL     1     -10.522  11.144  67.657  1.00  0.00    -0.230 A  
HETATM    6  C   UNL     1     -12.187  11.865  63.375  1.00  0.00    -0.450 C  
HETATM    7  C   UNL     1     -11.074  11.772  65.369  1.00  0.00    -0.279 A  
HETATM    8  C   UNL     1     -11.324  12.211  68.103  1.00  0.00    -0.349 A  
HETATM    9  C   UNL     1     -11.857  12.834  65.825  1.00  0.00    -0.434 A  
HETATM   10  C   UNL     1     -12.411  13.350  63.608  1.00  0.00    -0.351 C  
HETATM   11  C   UNL     1     -10.377  10.961  66.268  1.00  0.00    -0.306 A  
HETATM   12  O   UNL     1     -12.584  13.652  65.000  1.00  0.00    -0.551 OA 
HETATM   13  O   UNL     1     -10.990  11.440  64.040  1.00  0.00    -0.364 OA 
HETATM   14  C   UNL     1     -11.965  13.064  67.194  1.00  0.00    -0.389 A  
ENDBRANCH   2   5
ENDBRANCH   1   2
BRANCH   1  15
HETATM   15  N   UNL     1     -11.231   9.621  70.599  1.00  0.00    -0.294 NA 
HETATM   16  H   UNL     1     -10.511   9.520  71.315  1.00  0.00     0.000 HD 
BRANCH  15  17
HETATM   17  C   UNL     1     -12.329  10.150  70.967  1.00  0.00    -0.373 C  
HETATM   18  H   UNL     1     -14.280   9.891  71.510  1.00  0.00     0.000 HD 
HETATM   19  O   UNL     1     -13.460   9.496  71.235  1.00  0.00    -0.370 OA 
BRANCH  17  20
HETATM   20  C   UNL     1     -12.433  11.646  71.124  1.00  0.00    -0.412 C  
BRANCH  20  21
HETATM   21  C   UNL     1     -13.479  12.059  72.154  1.00  0.00    -0.338 C  
BRANCH  21  22
HETATM   22  C   UNL     1     -13.923  13.516  72.012  1.00  0.00    -0.465 C  
BRANCH  22  23
HETATM   23  C   UNL     1     -13.024  14.443  72.833  1.00  0.00    -0.575 C  
BRANCH  23  24
HETATM   24  C   UNL     1     -12.802  15.784  72.133  1.00  0.00    -0.510 C  
BRANCH  24  25
HETATM   25  C   UNL     1     -12.450  15.583  70.659  1.00  0.00    -0.483 C  
HETATM   26  C   UNL     1     -10.948  15.502  70.448  1.00  0.00    -0.360 C  
ENDBRANCH  24  25
ENDBRANCH  23  24
ENDBRANCH  22  23
ENDBRANCH  21  22
ENDBRANCH  20  21
ENDBRANCH  17  20
ENDBRANCH  15  17
ENDBRANCH   1  15
BRANCH   1  27
HETATM   27  C   UNL     1     -10.386   7.675  69.495  1.00  0.00    -0.217 C  
BRANCH  27  28
HETATM   28  N   UNL     1     -10.900   6.519  68.721  1.00  0.00    -0.279 NA 
HETATM   29  C   UNL     1     -10.025   5.344  68.950  1.00  0.00    -0.180 C  
HETATM   30  C   UNL     1     -10.883   6.764  67.278  1.00  0.00    -0.373 C  
HETATM   31  C   UNL     1      -9.846   4.627  67.619  1.00  0.00    -0.194 C  
HETATM   32  C   UNL     1     -10.659   5.417  66.620  1.00  0.00    -0.359 C  
ENDBRANCH  27  28
ENDBRANCH   1  27
TORSDOF 12
ENDMDL
MODEL       44
REMARK 921   NORMALIZED FREE ENERGY PREDICTED BY IDOCK:   -5.71 KCAL/MOL
REMARK 922        TOTAL FREE ENERGY PREDICTED BY IDOCK:  -11.78 KCAL/MOL
REMARK 923 INTER-LIGAND FREE ENERGY PREDICTED BY IDOCK:  -10.33 KCAL/MOL
REMARK 924 INTRA-LIGAND FREE ENERGY PREDICTED BY IDOCK:   -1.45 KCAL/MOL
REMARK 927      BINDING AFFINITY PREDICTED BY RF-SCORE:    0.00 PKD
ROOT
HETATM    1  C   UNL     1     -11.225  13.460  68.275  1.00  0.00    -0.279 C  
ENDROOT
BRANCH   1   2
HETATM    2  C   UNL     1     -11.918  13.479  69.677  1.00  0.00    -0.337 C  
HETATM    3  O   UNL     1     -11.217  14.325  70.598  1.00  0.00    -0.509 OA 
HETATM    4  H   UNL     1     -11.638  14.337  71.450  1.00  0.00     0.000 HD 
BRANCH   2   5
HETATM    5  C   UNL     1     -12.135  12.081  70.264  1.00  0.00    -0.395 A  
HETATM    6  C   UNL     1     -10.388   7.806  70.808  1.00  0.00    -0.203 C  
HETATM    7  C   UNL     1     -11.523   9.723  70.301  1.00  0.00    -0.255 A  
HETATM    8  C   UNL     1     -12.940  11.850  71.395  1.00  0.00    -0.385 A  
HETATM    9  C   UNL     1     -12.334   9.506  71.416  1.00  0.00    -0.364 A  
HETATM   10  C   UNL     1     -11.656   7.264  71.446  1.00  0.00    -0.276 C  
HETATM   11  C   UNL     1     -11.454  10.984  69.701  1.00  0.00    -0.375 A  
HETATM   12  O   UNL     1     -12.428   8.302  72.064  1.00  0.00    -0.318 OA 
HETATM   13  O   UNL     1     -10.720   8.741  69.775  1.00  0.00    -0.228 OA 
HETATM   14  C   UNL     1     -13.058  10.568  71.950  1.00  0.00    -0.567 A  
ENDBRANCH   2   5
ENDBRANCH   1   2
BRANCH   1  15
HETATM   15  N   UNL     1     -10.321  14.620  68.193  1.00  0.00    -0.227 NA 
HETATM   16  H   UNL     1     -10.424  15.331  68.918  1.00  0.00     0.000 HD 
BRANCH  15  17
HETATM   17  C   UNL     1      -9.426  14.831  67.314  1.00  0.00    -0.214 C  
HETATM   18  H   UNL     1      -7.730  14.184  66.379  1.00  0.00     0.000 HD 
HETATM   19  O   UNL     1      -8.399  14.027  67.036  1.00  0.00    -0.184 OA 
BRANCH  17  20
HETATM   20  C   UNL     1      -9.463  16.088  66.482  1.00  0.00    -0.297 C  
BRANCH  20  21
HETATM   21  C   UNL     1     -10.657  16.978  66.812  1.00  0.00    -0.191 C  
BRANCH  21  22
HETATM   22  C   UNL     1     -10.295  18.168  67.703  1.00  0.00    -0.411 C  
BRANCH  22  23
HETATM   23  C   UNL     1     -10.245  19.463  66.890  1.00  0.00    -0.514 C  
BRANCH  23  24
HETATM   24  C   UNL     1      -8.936  20.221  67.110  1.00  0.00    -0.469 C  
BRANCH  24  25
HETATM   25  C   UNL     1      -7.891  19.330  67.782  1.00  0.00    -0.310 C  
HETATM   26  C   UNL     1      -6.669  20.126  68.208  1.00  0.00    -0.336 C  
ENDBRANCH  24  25
ENDBRANCH  23  24
ENDBRANCH  22  23
ENDBRANCH  21  22
ENDBRANCH  20  21
ENDBRANCH  17  20
ENDBRANCH  15  17
ENDBRANCH   1  15
BRANCH   1  27
HETATM   27  C   UNL     1     -12.152  13.622  67.020  1.00  0.00    -0.380 C  
BRANCH  27  28
HETATM   28  N   UNL     1     -12.239  12.592  65.957  1.00  0.00    -0.620 NA 
HETATM   29  C   UNL     1     -11.034  11.729  66.007  1.00  0.00    -0.306 C  
HETATM   30  C   UNL     1     -12.263  13.178  64.616  1.00  0.00    -0.414 C  
HETATM   31  C   UNL     1     -10.595  11.454  64.576  1.00  0.00    -0.390 C  
HETATM   32  C   UNL     1     -11.594  12.173  63.700  1.00  0.00    -0.575 C  
ENDBRANCH  27  28
ENDBRANCH   1  27
TORSDOF 12
ENDMDL
MODEL       45
REMARK 921   NORMALIZED FREE ENERGY PREDICTED BY IDOCK:   -5.70 KCAL/MOL
REMARK 922        TOTAL FREE ENERGY PREDICTED BY IDOCK:  -11.75 KCAL/MOL
REMARK 923 INTER-LIGAND FREE ENERGY PREDICTED BY IDOCK:  -10.37 KCAL/MOL
REMARK 924 INTRA-LIGAND FREE ENERGY PREDICTED BY IDOCK:   -1.38 KCAL/MOL
REMARK 927      BINDING AFFINITY PREDICTED BY RF-SCORE:    0.00 PKD
ROOT
HETATM    1  C   UNL     1     -11.733  13.180  67.506  1.00  0.00    -0.366 C  
ENDROOT
BRANCH   1   2
HETATM    2  C   UNL     1     -11.622  12.149  68.676  1.00  0.00    -0.321 C  
HETATM    3  O   UNL     1     -12.376  10.961  68.403  1.00  0.00    -0.803 OA 
HETATM    4  H   UNL     1     -12.309  10.333  69.114  1.00  0.00     0.000 HD 
BRANCH   2   5
HETATM    5  C   UNL     1     -11.992  12.739  70.040  1.00  0.00    -0.371 A  
HETATM    6  C   UNL     1     -12.258  16.584  72.642  1.00  0.00    -0.248 C  
HETATM    7  C   UNL     1     -11.828  14.586  71.620  1.00  0.00    -0.169 A  
HETATM    8  C   UNL     1     -12.953  12.152  70.885  1.00  0.00    -0.074 A  
HETATM    9  C   UNL     1     -12.774  13.987  72.454  1.00  0.00    -0.244 A  
HETATM   10  C   UNL     1     -12.627  15.821  73.903  1.00  0.00    -0.627 C  
HETATM   11  C   UNL     1     -11.406  13.953  70.448  1.00  0.00     0.058 A  
HETATM   12  O   UNL     1     -13.247  14.563  73.604  1.00  0.00    -0.406 OA 
HETATM   13  O   UNL     1     -11.310  15.832  71.874  1.00  0.00    -0.380 OA 
HETATM   14  C   UNL     1     -13.321  12.758  72.094  1.00  0.00    -0.593 A  
ENDBRANCH   2   5
ENDBRANCH   1   2
BRANCH   1  15
HETATM   15  N   UNL     1     -12.251  12.477  66.320  1.00  0.00    -0.584 NA 
HETATM   16  H   UNL     1     -12.428  11.477  66.424  1.00  0.00     0.000 HD 
BRANCH  15  17
HETATM   17  C   UNL     1     -12.503  12.983  65.180  1.00  0.00    -0.496 C  
HETATM   18  H   UNL     1     -13.400  14.468  64.104  1.00  0.00     0.000 HD 
HETATM   19  O   UNL     1     -13.211  14.090  64.956  1.00  0.00    -0.720 OA 
BRANCH  17  20
HETATM   20  C   UNL     1     -11.993  12.317  63.927  1.00  0.00    -0.582 C  
BRANCH  20  21
HETATM   21  C   UNL     1     -10.483  12.448  63.763  1.00  0.00    -0.475 C  
BRANCH  21  22
HETATM   22  C   UNL     1      -9.822  11.182  63.213  1.00  0.00    -0.415 C  
BRANCH  22  23
HETATM   23  C   UNL     1      -8.983  10.493  64.290  1.00  0.00    -0.237 C  
BRANCH  23  24
HETATM   24  C   UNL     1      -9.858   9.852  65.367  1.00  0.00    -0.384 C  
BRANCH  24  25
HETATM   25  C   UNL     1      -9.028   9.463  66.591  1.00  0.00    -0.170 C  
HETATM   26  C   UNL     1      -8.648  10.679  67.419  1.00  0.00    -0.122 C  
ENDBRANCH  24  25
ENDBRANCH  23  24
ENDBRANCH  22  23
ENDBRANCH  21  22
ENDBRANCH  20  21
ENDBRANCH  17  20
ENDBRANCH  15  17
ENDBRANCH   1  15
BRANCH   1  27
HETATM   27  C   UNL     1     -10.396  13.826  66.998  1.00  0.00    -0.260 C  
BRANCH  27  28
HETATM   28  N   UNL     1     -10.263  15.282  66.746  1.00  0.00    -0.266 NA 
HETATM   29  C   UNL     1      -8.868  15.588  66.350  1.00  0.00    -0.324 C  
HETATM   30  C   UNL     1     -10.530  16.080  67.944  1.00  0.00    -0.292 C  
HETATM   31  C   UNL     1      -8.459  16.884  67.037  1.00  0.00    -0.228 C  
HETATM   32  C   UNL     1      -9.670  17.322  67.829  1.00  0.00    -0.270 C  
ENDBRANCH  27  28
ENDBRANCH   1  27
TORSDOF 12
ENDMDL
MODEL       46
REMARK 921   NORMALIZED FREE ENERGY PREDICTED BY IDOCK:   -5.68 KCAL/MOL
REMARK 922        TOTAL FREE ENERGY PREDICTED BY IDOCK:  -11.72 KCAL/MOL
REMARK 923 INTER-LIGAND FREE ENERGY PREDICTED BY IDOCK:  -10.15 KCAL/MOL
REMARK 924 INTRA-LIGAND FREE ENERGY PREDICTED BY IDOCK:   -1.57 KCAL/MOL
REMARK 927      BINDING AFFINITY PREDICTED BY RF-SCORE:    0.00 PKD
ROOT
HETATM    1  C   UNL     1      -9.698  12.403  67.617  1.00  0.00    -0.195 C  
ENDROOT
BRANCH   1   2
HETATM    2  C   UNL     1      -8.748  13.646  67.617  1.00  0.00    -0.182 C  
HETATM    3  O   UNL     1      -8.194  13.883  68.918  1.00  0.00    -0.312 OA 
HETATM    4  H   UNL     1      -7.616  14.638  68.918  1.00  0.00     0.000 HD 
BRANCH   2   5
HETATM    5  C   UNL     1      -9.405  14.909  67.055  1.00  0.00    -0.240 A  
HETATM    6  C   UNL     1      -9.219  19.546  66.740  1.00  0.00    -0.349 C  
HETATM    7  C   UNL     1      -9.645  17.333  67.121  1.00  0.00    -0.257 A  
HETATM    8  C   UNL     1     -10.180  14.903  65.880  1.00  0.00    -0.333 A  
HETATM    9  C   UNL     1     -10.422  17.311  65.962  1.00  0.00    -0.282 A  
HETATM   10  C   UNL     1     -10.562  19.648  66.036  1.00  0.00    -0.483 C  
HETATM   11  C   UNL     1      -9.176  16.146  67.690  1.00  0.00    -0.205 A  
HETATM   12  O   UNL     1     -10.894  18.438  65.341  1.00  0.00    -0.577 OA 
HETATM   13  O   UNL     1      -9.260  18.505  67.724  1.00  0.00    -0.275 OA 
HETATM   14  C   UNL     1     -10.706  16.091  65.353  1.00  0.00    -0.399 A  
ENDBRANCH   2   5
ENDBRANCH   1   2
BRANCH   1  15
HETATM   15  N   UNL     1      -9.533  11.698  68.900  1.00  0.00    -0.407 NA 
HETATM   16  H   UNL     1      -8.746  11.986  69.481  1.00  0.00     0.000 HD 
BRANCH  15  17
HETATM   17  C   UNL     1     -10.269  10.767  69.360  1.00  0.00    -0.160 C  
HETATM   18  H   UNL     1     -10.392   8.901  70.178  1.00  0.00     0.000 HD 
HETATM   19  O   UNL     1      -9.843   9.596  69.834  1.00  0.00    -0.208 OA 
BRANCH  17  20
HETATM   20  C   UNL     1     -11.767  10.933  69.393  1.00  0.00    -0.397 C  
BRANCH  20  21
HETATM   21  C   UNL     1     -12.275  11.439  70.739  1.00  0.00    -0.475 C  
BRANCH  21  22
HETATM   22  C   UNL     1     -12.654  12.921  70.724  1.00  0.00    -0.314 C  
BRANCH  22  23
HETATM   23  C   UNL     1     -13.148  13.371  72.100  1.00  0.00    -0.487 C  
BRANCH  23  24
HETATM   24  C   UNL     1     -14.183  14.491  71.993  1.00  0.00    -0.630 C  
BRANCH  24  25
HETATM   25  C   UNL     1     -13.769  15.704  72.827  1.00  0.00    -0.662 C  
HETATM   26  C   UNL     1     -12.305  16.053  72.618  1.00  0.00    -0.594 C  
ENDBRANCH  24  25
ENDBRANCH  23  24
ENDBRANCH  22  23
ENDBRANCH  21  22
ENDBRANCH  20  21
ENDBRANCH  17  20
ENDBRANCH  15  17
ENDBRANCH   1  15
BRANCH   1  27
HETATM   27  C   UNL     1      -9.418  11.293  66.545  1.00  0.00    -0.193 C  
BRANCH  27  28
HETATM   28  N   UNL     1     -10.335  11.038  65.407  1.00  0.00    -0.270 NA 
HETATM   29  C   UNL     1      -9.679  11.453  64.144  1.00  0.00    -0.235 C  
HETATM   30  C   UNL     1     -11.568  11.821  65.500  1.00  0.00    -0.126 C  
HETATM   31  C   UNL     1     -10.724  12.142  63.277  1.00  0.00    -0.373 C  
HETATM   32  C   UNL     1     -12.006  12.098  64.076  1.00  0.00    -0.533 C  
ENDBRANCH  27  28
ENDBRANCH   1  27
TORSDOF 12
ENDMDL
MODEL       47
REMARK 921   NORMALIZED FREE ENERGY PREDICTED BY IDOCK:   -5.66 KCAL/MOL
REMARK 922        TOTAL FREE ENERGY PREDICTED BY IDOCK:  -11.68 KCAL/MOL
REMARK 923 INTER-LIGAND FREE ENERGY PREDICTED BY IDOCK:   -9.33 KCAL/MOL
REMARK 924 INTRA-LIGAND FREE ENERGY PREDICTED BY IDOCK:   -2.35 KCAL/MOL
REMARK 927      BINDING AFFINITY PREDICTED BY RF-SCORE:    0.00 PKD
ROOT
HETATM    1  C   UNL     1     -11.260  13.931  67.280  1.00  0.00    -0.312 C  
ENDROOT
BRANCH   1   2
HETATM    2  C   UNL     1      -9.766  13.485  67.408  1.00  0.00    -0.229 C  
HETATM    3  O   UNL     1      -9.125  13.420  66.128  1.00  0.00    -0.468 OA 
HETATM    4  H   UNL     1      -8.217  13.148  66.206  1.00  0.00     0.000 HD 
BRANCH   2   5
HETATM    5  C   UNL     1      -9.591  12.176  68.183  1.00  0.00    -0.208 A  
HETATM    6  C   UNL     1      -6.697   9.517  70.671  1.00  0.00    -0.110 C  
HETATM    7  C   UNL     1      -8.092  10.527  69.168  1.00  0.00    -0.152 A  
HETATM    8  C   UNL     1     -10.666  11.511  68.802  1.00  0.00    -0.247 A  
HETATM    9  C   UNL     1      -9.168   9.871  69.766  1.00  0.00    -0.227 A  
HETATM   10  C   UNL     1      -7.674   8.355  70.744  1.00  0.00    -0.083 C  
HETATM   11  C   UNL     1      -8.298  11.641  68.349  1.00  0.00    -0.157 A  
HETATM   12  O   UNL     1      -9.033   8.789  70.597  1.00  0.00    -0.154 OA 
HETATM   13  O   UNL     1      -6.789  10.154  69.390  1.00  0.00    -0.056 OA 
HETATM   14  C   UNL     1     -10.459  10.354  69.566  1.00  0.00    -0.274 A  
ENDBRANCH   2   5
ENDBRANCH   1   2
BRANCH   1  15
HETATM   15  N   UNL     1     -11.428  14.606  65.981  1.00  0.00    -0.342 NA 
HETATM   16  H   UNL     1     -10.958  15.505  65.870  1.00  0.00     0.000 HD 
BRANCH  15  17
HETATM   17  C   UNL     1     -12.097  14.186  64.983  1.00  0.00    -0.421 C  
HETATM   18  H   UNL     1     -13.008  14.611  63.206  1.00  0.00     0.000 HD 
HETATM   19  O   UNL     1     -12.508  14.924  63.952  1.00  0.00    -0.806 OA 
BRANCH  17  20
HETATM   20  C   UNL     1     -12.503  12.736  64.900  1.00  0.00    -0.563 C  
BRANCH  20  21
HETATM   21  C   UNL     1     -12.051  12.071  63.604  1.00  0.00    -0.627 C  
BRANCH  21  22
HETATM   22  C   UNL     1     -10.591  11.613  63.638  1.00  0.00    -0.493 C  
BRANCH  22  23
HETATM   23  C   UNL     1     -10.383  10.532  64.700  1.00  0.00    -0.290 C  
BRANCH  23  24
HETATM   24  C   UNL     1      -8.933  10.052  64.744  1.00  0.00    -0.247 C  
BRANCH  24  25
HETATM   25  C   UNL     1      -8.738   8.989  65.826  1.00  0.00    -0.197 C  
HETATM   26  C   UNL     1     -10.055   8.613  66.483  1.00  0.00    -0.339 C  
ENDBRANCH  24  25
ENDBRANCH  23  24
ENDBRANCH  22  23
ENDBRANCH  21  22
ENDBRANCH  20  21
ENDBRANCH  17  20
ENDBRANCH  15  17
ENDBRANCH   1  15
BRANCH   1  27
HETATM   27  C   UNL     1     -11.778  14.989  68.316  1.00  0.00    -0.314 C  
BRANCH  27  28
HETATM   28  N   UNL     1     -11.510  14.874  69.770  1.00  0.00    -0.278 NA 
HETATM   29  C   UNL     1     -12.645  14.184  70.428  1.00  0.00    -0.332 C  
HETATM   30  C   UNL     1     -11.397  16.181  70.419  1.00  0.00    -0.363 C  
HETATM   31  C   UNL     1     -12.919  14.888  71.750  1.00  0.00    -0.417 C  
HETATM   32  C   UNL     1     -11.895  15.996  71.838  1.00  0.00    -0.619 C  
ENDBRANCH  27  28
ENDBRANCH   1  27
TORSDOF 12
ENDMDL
MODEL       48
REMARK 921   NORMALIZED FREE ENERGY PREDICTED BY IDOCK:   -5.66 KCAL/MOL
REMARK 922        TOTAL FREE ENERGY PREDICTED BY IDOCK:  -11.68 KCAL/MOL
REMARK 923 INTER-LIGAND FREE ENERGY PREDICTED BY IDOCK:  -10.09 KCAL/MOL
REMARK 924 INTRA-LIGAND FREE ENERGY PREDICTED BY IDOCK:   -1.59 KCAL/MOL
REMARK 927      BINDING AFFINITY PREDICTED BY RF-SCORE:    0.00 PKD
ROOT
HETATM    1  C   UNL     1     -11.992  13.353  67.707  1.00  0.00    -0.324 C  
ENDROOT
BRANCH   1   2
HETATM    2  C   UNL     1     -11.020  12.988  68.878  1.00  0.00    -0.230 C  
HETATM    3  O   UNL     1      -9.701  12.701  68.395  1.00  0.00    -0.228 OA 
HETATM    4  H   UNL     1      -9.110  12.479  69.106  1.00  0.00     0.000 HD 
BRANCH   2   5
HETATM    5  C   UNL     1     -11.543  11.857  69.767  1.00  0.00    -0.359 A  
HETATM    6  C   UNL     1     -10.526   7.885  71.963  1.00  0.00    -0.231 C  
HETATM    7  C   UNL     1     -11.260   9.602  70.645  1.00  0.00    -0.320 A  
HETATM    8  C   UNL     1     -12.611  12.032  70.668  1.00  0.00    -0.255 A  
HETATM    9  C   UNL     1     -12.328   9.785  71.525  1.00  0.00    -0.405 A  
HETATM   10  C   UNL     1     -11.966   7.634  72.379  1.00  0.00    -0.253 C  
HETATM   11  C   UNL     1     -10.895  10.606  69.744  1.00  0.00    -0.317 A  
HETATM   12  O   UNL     1     -12.722   8.851  72.447  1.00  0.00    -0.388 OA 
HETATM   13  O   UNL     1     -10.489   8.465  70.653  1.00  0.00    -0.194 OA 
HETATM   14  C   UNL     1     -13.016  10.996  71.521  1.00  0.00    -0.553 A  
ENDBRANCH   2   5
ENDBRANCH   1   2
BRANCH   1  15
HETATM   15  N   UNL     1     -11.925  12.278  66.702  1.00  0.00    -0.622 NA 
HETATM   16  H   UNL     1     -11.803  11.329  67.057  1.00  0.00     0.000 HD 
BRANCH  15  17
HETATM   17  C   UNL     1     -12.004  12.407  65.439  1.00  0.00    -0.398 C  
HETATM   18  H   UNL     1     -13.188  12.640  63.792  1.00  0.00     0.000 HD 
HETATM   19  O   UNL     1     -13.129  12.543  64.736  1.00  0.00    -0.853 OA 
BRANCH  17  20
HETATM   20  C   UNL     1     -10.752  12.404  64.598  1.00  0.00    -0.339 C  
BRANCH  20  21
HETATM   21  C   UNL     1     -10.522  11.074  63.889  1.00  0.00    -0.422 C  
BRANCH  21  22
HETATM   22  C   UNL     1      -9.084  10.566  64.008  1.00  0.00    -0.256 C  
BRANCH  22  23
HETATM   23  C   UNL     1      -8.746  10.223  65.460  1.00  0.00    -0.176 C  
BRANCH  23  24
HETATM   24  C   UNL     1      -9.185   8.805  65.824  1.00  0.00    -0.269 C  
BRANCH  24  25
HETATM   25  C   UNL     1     -10.215   8.821  66.954  1.00  0.00    -0.357 C  
HETATM   26  C   UNL     1     -10.614   7.414  67.367  1.00  0.00    -0.371 C  
ENDBRANCH  24  25
ENDBRANCH  23  24
ENDBRANCH  22  23
ENDBRANCH  21  22
ENDBRANCH  20  21
ENDBRANCH  17  20
ENDBRANCH  15  17
ENDBRANCH   1  15
BRANCH   1  27
HETATM   27  C   UNL     1     -11.662  14.648  66.887  1.00  0.00    -0.350 C  
BRANCH  27  28
HETATM   28  N   UNL     1     -10.493  15.508  67.195  1.00  0.00    -0.281 NA 
HETATM   29  C   UNL     1     -10.906  16.585  68.126  1.00  0.00    -0.345 C  
HETATM   30  C   UNL     1      -9.968  16.179  66.005  1.00  0.00    -0.348 C  
HETATM   31  C   UNL     1     -10.224  17.873  67.684  1.00  0.00    -0.369 C  
HETATM   32  C   UNL     1      -9.394  17.499  66.478  1.00  0.00    -0.281 C  
ENDBRANCH  27  28
ENDBRANCH   1  27
TORSDOF 12
ENDMDL
MODEL       49
REMARK 921   NORMALIZED FREE ENERGY PREDICTED BY IDOCK:   -5.65 KCAL/MOL
REMARK 922        TOTAL FREE ENERGY PREDICTED BY IDOCK:  -11.66 KCAL/MOL
REMARK 923 INTER-LIGAND FREE ENERGY PREDICTED BY IDOCK:   -9.90 KCAL/MOL
REMARK 924 INTRA-LIGAND FREE ENERGY PREDICTED BY IDOCK:   -1.77 KCAL/MOL
REMARK 927      BINDING AFFINITY PREDICTED BY RF-SCORE:    0.00 PKD
ROOT
HETATM    1  C   UNL     1     -11.070  14.670  65.553  1.00  0.00    -0.345 C  
ENDROOT
BRANCH   1   2
HETATM    2  C   UNL     1     -11.584  13.628  64.506  1.00  0.00    -0.390 C  
HETATM    3  O   UNL     1     -12.959  13.289  64.734  1.00  0.00    -0.710 OA 
HETATM    4  H   UNL     1     -13.272  12.656  64.097  1.00  0.00     0.000 HD 
BRANCH   2   5
HETATM    5  C   UNL     1     -10.711  12.374  64.422  1.00  0.00    -0.371 A  
HETATM    6  C   UNL     1      -9.654   8.267  66.331  1.00  0.00    -0.230 C  
HETATM    7  C   UNL     1      -9.799  10.397  65.516  1.00  0.00    -0.269 A  
HETATM    8  C   UNL     1     -10.184  11.897  63.206  1.00  0.00    -0.428 A  
HETATM    9  C   UNL     1      -9.272   9.942  64.306  1.00  0.00    -0.265 A  
HETATM   10  C   UNL     1      -8.479   8.026  65.397  1.00  0.00    -0.139 C  
HETATM   11  C   UNL     1     -10.473  11.619  65.587  1.00  0.00    -0.314 A  
HETATM   12  O   UNL     1      -8.622   8.743  64.163  1.00  0.00    -0.158 OA 
HETATM   13  O   UNL     1      -9.733   9.656  66.670  1.00  0.00    -0.182 OA 
HETATM   14  C   UNL     1      -9.449  10.704  63.154  1.00  0.00    -0.360 A  
ENDBRANCH   2   5
ENDBRANCH   1   2
BRANCH   1  15
HETATM   15  N   UNL     1     -12.056  14.751  66.644  1.00  0.00    -0.275 NA 
HETATM   16  H   UNL     1     -13.022  14.941  66.373  1.00  0.00     0.000 HD 
BRANCH  15  17
HETATM   17  C   UNL     1     -11.832  14.609  67.889  1.00  0.00    -0.320 C  
HETATM   18  H   UNL     1     -11.381  15.481  69.678  1.00  0.00     0.000 HD 
HETATM   19  O   UNL     1     -11.548  15.587  68.749  1.00  0.00    -0.342 OA 
BRANCH  17  20
HETATM   20  C   UNL     1     -11.865  13.236  68.511  1.00  0.00    -0.384 C  
BRANCH  20  21
HETATM   21  C   UNL     1     -12.066  13.279  70.023  1.00  0.00    -0.385 C  
BRANCH  21  22
HETATM   22  C   UNL     1     -12.355  11.905  70.633  1.00  0.00    -0.405 C  
BRANCH  22  23
HETATM   23  C   UNL     1     -11.845  10.786  69.722  1.00  0.00    -0.409 C  
BRANCH  23  24
HETATM   24  C   UNL     1     -10.864   9.867  70.449  1.00  0.00    -0.380 C  
BRANCH  24  25
HETATM   25  C   UNL     1     -11.467   9.337  71.750  1.00  0.00    -0.448 C  
HETATM   26  C   UNL     1     -12.289   8.081  71.515  1.00  0.00    -0.335 C  
ENDBRANCH  24  25
ENDBRANCH  23  24
ENDBRANCH  22  23
ENDBRANCH  21  22
ENDBRANCH  20  21
ENDBRANCH  17  20
ENDBRANCH  15  17
ENDBRANCH   1  15
BRANCH   1  27
HETATM   27  C   UNL     1     -10.931  16.156  65.069  1.00  0.00    -0.344 C  
BRANCH  27  28
HETATM   28  N   UNL     1      -9.831  17.040  65.525  1.00  0.00    -0.544 NA 
HETATM   29  C   UNL     1      -8.808  16.232  66.231  1.00  0.00    -0.331 C  
HETATM   30  C   UNL     1     -10.289  18.045  66.486  1.00  0.00    -0.373 C  
HETATM   31  C   UNL     1      -8.341  17.023  67.445  1.00  0.00    -0.206 C  
HETATM   32  C   UNL     1      -9.116  18.319  67.406  1.00  0.00    -0.253 C  
ENDBRANCH  27  28
ENDBRANCH   1  27
TORSDOF 12
ENDMDL
MODEL       50
REMARK 921   NORMALIZED FREE ENERGY PREDICTED BY IDOCK:   -5.62 KCAL/MOL
REMARK 922        TOTAL FREE ENERGY PREDICTED BY IDOCK:  -11.62 KCAL/MOL
REMARK 923 INTER-LIGAND FREE ENERGY PREDICTED BY IDOCK:  -10.04 KCAL/MOL
REMARK 924 INTRA-LIGAND FREE ENERGY PREDICTED BY IDOCK:   -1.58 KCAL/MOL
REMARK 927      BINDING AFFINITY PREDICTED BY RF-SCORE:    0.00 PKD
ROOT
HETATM    1  C   UNL     1     -10.808   9.905  69.433  1.00  0.00    -0.237 C  
ENDROOT
BRANCH   1   2
HETATM    2  C   UNL     1      -9.520  10.416  68.708  1.00  0.00    -0.175 C  
HETATM    3  O   UNL     1      -8.491  10.762  69.645  1.00  0.00    -0.383 OA 
HETATM    4  H   UNL     1      -7.708  11.073  69.205  1.00  0.00     0.000 HD 
BRANCH   2   5
HETATM    5  C   UNL     1      -9.790  11.565  67.733  1.00  0.00    -0.186 A  
HETATM    6  C   UNL     1     -12.984  13.838  65.230  1.00  0.00    -0.278 C  
HETATM    7  C   UNL     1     -11.270  12.600  66.097  1.00  0.00    -0.309 A  
HETATM    8  C   UNL     1      -8.990  12.723  67.684  1.00  0.00    -0.191 A  
HETATM    9  C   UNL     1     -10.461  13.737  66.050  1.00  0.00    -0.297 A  
HETATM   10  C   UNL     1     -11.955  14.711  64.532  1.00  0.00    -0.460 C  
HETATM   11  C   UNL     1     -10.920  11.507  66.894  1.00  0.00    -0.350 A  
HETATM   12  O   UNL     1     -10.757  14.851  65.308  1.00  0.00    -0.336 OA 
HETATM   13  O   UNL     1     -12.460  12.517  65.417  1.00  0.00    -0.630 OA 
HETATM   14  C   UNL     1      -9.309  13.788  66.830  1.00  0.00    -0.267 A  
ENDBRANCH   2   5
ENDBRANCH   1   2
BRANCH   1  15
HETATM   15  N   UNL     1     -11.130  10.847  70.519  1.00  0.00    -0.402 NA 
HETATM   16  H   UNL     1     -10.339  11.301  70.978  1.00  0.00     0.000 HD 
BRANCH  15  17
HETATM   17  C   UNL     1     -12.289  11.156  70.944  1.00  0.00    -0.399 C  
HETATM   18  H   UNL     1     -14.075  10.533  71.711  1.00  0.00     0.000 HD 
HETATM   19  O   UNL     1     -13.209  10.302  71.393  1.00  0.00    -0.376 OA 
BRANCH  17  20
HETATM   20  C   UNL     1     -12.729  12.598  70.960  1.00  0.00    -0.316 C  
BRANCH  20  21
HETATM   21  C   UNL     1     -13.513  12.961  72.217  1.00  0.00    -0.631 C  
BRANCH  21  22
HETATM   22  C   UNL     1     -13.749  14.465  72.369  1.00  0.00    -0.590 C  
BRANCH  22  23
HETATM   23  C   UNL     1     -13.215  15.226  71.153  1.00  0.00    -0.567 C  
BRANCH  23  24
HETATM   24  C   UNL     1     -11.930  15.986  71.480  1.00  0.00    -0.539 C  
BRANCH  24  25
HETATM   25  C   UNL     1     -11.133  16.288  70.210  1.00  0.00    -0.340 C  
HETATM   26  C   UNL     1     -11.793  15.690  68.980  1.00  0.00    -0.379 C  
ENDBRANCH  24  25
ENDBRANCH  23  24
ENDBRANCH  22  23
ENDBRANCH  21  22
ENDBRANCH  20  21
ENDBRANCH  17  20
ENDBRANCH  15  17
ENDBRANCH   1  15
BRANCH   1  27
HETATM   27  C   UNL     1     -10.712   8.519  70.162  1.00  0.00    -0.235 C  
BRANCH  27  28
HETATM   28  N   UNL     1     -10.395   7.262  69.440  1.00  0.00    -0.202 NA 
HETATM   29  C   UNL     1     -11.049   6.122  70.126  1.00  0.00    -0.378 C  
HETATM   30  C   UNL     1      -8.961   6.968  69.440  1.00  0.00    -0.139 C  
HETATM   31  C   UNL     1     -10.069   4.957  70.136  1.00  0.00    -0.332 C  
HETATM   32  C   UNL     1      -8.836   5.458  69.420  1.00  0.00    -0.117 C  
ENDBRANCH  27  28
ENDBRANCH   1  27
TORSDOF 12
ENDMDL
MODEL       51
REMARK 921   NORMALIZED FREE ENERGY PREDICTED BY IDOCK:   -5.62 KCAL/MOL
REMARK 922        TOTAL FREE ENERGY PREDICTED BY IDOCK:  -11.62 KCAL/MOL
REMARK 923 INTER-LIGAND FREE ENERGY PREDICTED BY IDOCK:  -10.65 KCAL/MOL
REMARK 924 INTRA-LIGAND FREE ENERGY PREDICTED BY IDOCK:   -0.97 KCAL/MOL
REMARK 927      BINDING AFFINITY PREDICTED BY RF-SCORE:    0.00 PKD
ROOT
HETATM    1  C   UNL     1     -11.782  12.269  68.475  1.00  0.00    -0.331 C  
ENDROOT
BRANCH   1   2
HETATM    2  C   UNL     1     -10.606  11.278  68.759  1.00  0.00    -0.203 C  
HETATM    3  O   UNL     1     -10.198  10.592  67.567  1.00  0.00    -0.187 OA 
HETATM    4  H   UNL     1      -9.483   9.989  67.740  1.00  0.00     0.000 HD 
BRANCH   2   5
HETATM    5  C   UNL     1     -10.905  10.292  69.891  1.00  0.00    -0.355 A  
HETATM    6  C   UNL     1      -9.148   7.749  73.366  1.00  0.00    -0.276 C  
HETATM    7  C   UNL     1     -10.084   8.638  71.480  1.00  0.00    -0.274 A  
HETATM    8  C   UNL     1     -12.154  10.239  70.540  1.00  0.00    -0.401 A  
HETATM    9  C   UNL     1     -11.330   8.587  72.107  1.00  0.00    -0.372 A  
HETATM   10  C   UNL     1     -10.467   7.050  73.650  1.00  0.00    -0.376 C  
HETATM   11  C   UNL     1      -9.881   9.446  70.358  1.00  0.00    -0.313 A  
HETATM   12  O   UNL     1     -11.590   7.834  73.223  1.00  0.00    -0.248 OA 
HETATM   13  O   UNL     1      -8.995   7.950  71.955  1.00  0.00    -0.123 OA 
HETATM   14  C   UNL     1     -12.371   9.375  71.622  1.00  0.00    -0.465 A  
ENDBRANCH   2   5
ENDBRANCH   1   2
BRANCH   1  15
HETATM   15  N   UNL     1     -12.024  12.291  67.022  1.00  0.00    -0.590 NA 
HETATM   16  H   UNL     1     -12.374  11.428  66.605  1.00  0.00     0.000 HD 
BRANCH  15  17
HETATM   17  C   UNL     1     -11.844  13.272  66.232  1.00  0.00    -0.395 C  
HETATM   18  H   UNL     1     -12.662  14.796  65.147  1.00  0.00     0.000 HD 
HETATM   19  O   UNL     1     -12.797  14.063  65.737  1.00  0.00    -0.516 OA 
BRANCH  17  20
HETATM   20  C   UNL     1     -10.453  13.621  65.764  1.00  0.00    -0.296 C  
BRANCH  20  21
HETATM   21  C   UNL     1     -10.359  15.034  65.198  1.00  0.00    -0.422 C  
BRANCH  21  22
HETATM   22  C   UNL     1      -9.586  15.997  66.103  1.00  0.00    -0.366 C  
BRANCH  22  23
HETATM   23  C   UNL     1     -10.535  16.744  67.042  1.00  0.00    -0.285 C  
BRANCH  23  24
HETATM   24  C   UNL     1      -9.882  17.993  67.631  1.00  0.00    -0.305 C  
BRANCH  24  25
HETATM   25  C   UNL     1     -10.680  19.249  67.278  1.00  0.00    -0.594 C  
HETATM   26  C   UNL     1      -9.777  20.462  67.131  1.00  0.00    -0.601 C  
ENDBRANCH  24  25
ENDBRANCH  23  24
ENDBRANCH  22  23
ENDBRANCH  21  22
ENDBRANCH  20  21
ENDBRANCH  17  20
ENDBRANCH  15  17
ENDBRANCH   1  15
BRANCH   1  27
HETATM   27  C   UNL     1     -11.543  13.777  68.833  1.00  0.00    -0.319 C  
BRANCH  27  28
HETATM   28  N   UNL     1     -12.345  14.487  69.859  1.00  0.00    -0.317 NA 
HETATM   29  C   UNL     1     -11.671  15.756  70.222  1.00  0.00    -0.358 C  
HETATM   30  C   UNL     1     -12.463  13.720  71.100  1.00  0.00    -0.370 C  
HETATM   31  C   UNL     1     -11.788  15.935  71.730  1.00  0.00    -0.579 C  
HETATM   32  C   UNL     1     -12.565  14.735  72.221  1.00  0.00    -0.414 C  
ENDBRANCH  27  28
ENDBRANCH   1  27
TORSDOF 12
ENDMDL
MODEL       52
REMARK 921   NORMALIZED FREE ENERGY PREDICTED BY IDOCK:   -5.61 KCAL/MOL
REMARK 922        TOTAL FREE ENERGY PREDICTED BY IDOCK:  -11.60 KCAL/MOL
REMARK 923 INTER-LIGAND FREE ENERGY PREDICTED BY IDOCK:   -9.61 KCAL/MOL
REMARK 924 INTRA-LIGAND FREE ENERGY PREDICTED BY IDOCK:   -2.00 KCAL/MOL
REMARK 927      BINDING AFFINITY PREDICTED BY RF-SCORE:    0.00 PKD
ROOT
HETATM    1  C   UNL     1     -10.738   9.804  69.517  1.00  0.00    -0.233 C  
ENDROOT
BRANCH   1   2
HETATM    2  C   UNL     1      -9.461  10.315  68.772  1.00  0.00    -0.176 C  
HETATM    3  O   UNL     1      -8.432  10.697  69.694  1.00  0.00    -0.375 OA 
HETATM    4  H   UNL     1      -7.656  11.007  69.241  1.00  0.00     0.000 HD 
BRANCH   2   5
HETATM    5  C   UNL     1      -9.753  11.436  67.771  1.00  0.00    -0.184 A  
HETATM    6  C   UNL     1     -12.980  13.563  65.184  1.00  0.00    -0.201 C  
HETATM    7  C   UNL     1     -11.241  12.394  66.097  1.00  0.00    -0.322 A  
HETATM    8  C   UNL     1      -8.986  12.615  67.707  1.00  0.00    -0.189 A  
HETATM    9  C   UNL     1     -10.465  13.552  66.036  1.00  0.00    -0.299 A  
HETATM   10  C   UNL     1     -11.968  14.452  64.480  1.00  0.00    -0.472 C  
HETATM   11  C   UNL     1     -10.870  11.327  66.920  1.00  0.00    -0.333 A  
HETATM   12  O   UNL     1     -10.785  14.642  65.268  1.00  0.00    -0.329 OA 
HETATM   13  O   UNL     1     -12.420  12.263  65.404  1.00  0.00    -0.596 OA 
HETATM   14  C   UNL     1      -9.325  13.653  66.828  1.00  0.00    -0.269 A  
ENDBRANCH   2   5
ENDBRANCH   1   2
BRANCH   1  15
HETATM   15  N   UNL     1     -11.115  10.810  70.525  1.00  0.00    -0.433 NA 
HETATM   16  H   UNL     1     -10.354  11.220  71.067  1.00  0.00     0.000 HD 
BRANCH  15  17
HETATM   17  C   UNL     1     -12.289  11.222  70.792  1.00  0.00    -0.398 C  
HETATM   18  H   UNL     1     -14.243  10.763  71.166  1.00  0.00     0.000 HD 
HETATM   19  O   UNL     1     -13.366  10.455  70.967  1.00  0.00    -0.342 OA 
BRANCH  17  20
HETATM   20  C   UNL     1     -12.561  12.700  70.924  1.00  0.00    -0.338 C  
BRANCH  20  21
HETATM   21  C   UNL     1     -12.116  13.493  69.700  1.00  0.00    -0.365 C  
BRANCH  21  22
HETATM   22  C   UNL     1     -11.982  14.993  69.968  1.00  0.00    -0.375 C  
BRANCH  22  23
HETATM   23  C   UNL     1     -11.630  15.747  68.684  1.00  0.00    -0.392 C  
BRANCH  23  24
HETATM   24  C   UNL     1     -10.664  16.901  68.951  1.00  0.00    -0.321 C  
BRANCH  24  25
HETATM   25  C   UNL     1     -10.534  17.804  67.724  1.00  0.00    -0.402 C  
HETATM   26  C   UNL     1     -10.160  19.224  68.112  1.00  0.00    -0.507 C  
ENDBRANCH  24  25
ENDBRANCH  23  24
ENDBRANCH  22  23
ENDBRANCH  21  22
ENDBRANCH  20  21
ENDBRANCH  17  20
ENDBRANCH  15  17
ENDBRANCH   1  15
BRANCH   1  27
HETATM   27  C   UNL     1     -10.596   8.482  70.349  1.00  0.00    -0.223 C  
BRANCH  27  28
HETATM   28  N   UNL     1     -10.605   8.470  71.832  1.00  0.00    -0.295 NA 
HETATM   29  C   UNL     1      -9.211   8.423  72.333  1.00  0.00    -0.275 C  
HETATM   30  C   UNL     1     -11.272   7.286  72.374  1.00  0.00    -0.281 C  
HETATM   31  C   UNL     1      -9.170   7.468  73.518  1.00  0.00    -0.301 C  
HETATM   32  C   UNL     1     -10.590   6.979  73.692  1.00  0.00    -0.383 C  
ENDBRANCH  27  28
ENDBRANCH   1  27
TORSDOF 12
ENDMDL
MODEL       53
REMARK 921   NORMALIZED FREE ENERGY PREDICTED BY IDOCK:   -5.59 KCAL/MOL
REMARK 922        TOTAL FREE ENERGY PREDICTED BY IDOCK:  -11.57 KCAL/MOL
REMARK 923 INTER-LIGAND FREE ENERGY PREDICTED BY IDOCK:  -10.04 KCAL/MOL
REMARK 924 INTRA-LIGAND FREE ENERGY PREDICTED BY IDOCK:   -1.53 KCAL/MOL
REMARK 927      BINDING AFFINITY PREDICTED BY RF-SCORE:    0.00 PKD
ROOT
HETATM    1  C   UNL     1     -10.997   9.490  69.402  1.00  0.00    -0.170 C  
ENDROOT
BRANCH   1   2
HETATM    2  C   UNL     1      -9.825  10.077  68.548  1.00  0.00    -0.156 C  
HETATM    3  O   UNL     1      -9.133  11.117  69.251  1.00  0.00    -0.391 OA 
HETATM    4  H   UNL     1      -8.421  11.474  68.732  1.00  0.00     0.000 HD 
BRANCH   2   5
HETATM    5  C   UNL     1     -10.264  10.544  67.158  1.00  0.00    -0.270 A  
HETATM    6  C   UNL     1     -12.028  14.027  64.631  1.00  0.00    -0.430 C  
HETATM    7  C   UNL     1     -11.517  12.129  65.796  1.00  0.00    -0.361 A  
HETATM    8  C   UNL     1      -9.716  10.018  65.973  1.00  0.00    -0.301 A  
HETATM    9  C   UNL     1     -10.974  11.590  64.628  1.00  0.00    -0.288 A  
HETATM   10  C   UNL     1     -12.148  13.182  63.373  1.00  0.00    -0.486 C  
HETATM   11  C   UNL     1     -11.203  11.588  67.046  1.00  0.00    -0.365 A  
HETATM   12  O   UNL     1     -11.222  12.087  63.375  1.00  0.00    -0.413 OA 
HETATM   13  O   UNL     1     -12.331  13.234  65.785  1.00  0.00    -0.438 OA 
HETATM   14  C   UNL     1     -10.088  10.520  64.718  1.00  0.00    -0.406 A  
ENDBRANCH   2   5
ENDBRANCH   1   2
BRANCH   1  15
HETATM   15  N   UNL     1     -11.153  10.326  70.605  1.00  0.00    -0.364 NA 
HETATM   16  H   UNL     1     -10.299  10.552  71.117  1.00  0.00     0.000 HD 
BRANCH  15  17
HETATM   17  C   UNL     1     -12.238  10.797  71.073  1.00  0.00    -0.380 C  
HETATM   18  H   UNL     1     -14.106  10.436  71.813  1.00  0.00     0.000 HD 
HETATM   19  O   UNL     1     -13.295  10.084  71.463  1.00  0.00    -0.378 OA 
BRANCH  17  20
HETATM   20  C   UNL     1     -12.416  12.287  71.217  1.00  0.00    -0.281 C  
BRANCH  20  21
HETATM   21  C   UNL     1     -13.586  12.656  72.124  1.00  0.00    -0.510 C  
BRANCH  21  22
HETATM   22  C   UNL     1     -13.736  14.164  72.333  1.00  0.00    -0.645 C  
BRANCH  22  23
HETATM   23  C   UNL     1     -12.402  14.794  72.739  1.00  0.00    -0.372 C  
BRANCH  23  24
HETATM   24  C   UNL     1     -12.105  16.060  71.936  1.00  0.00    -0.590 C  
BRANCH  24  25
HETATM   25  C   UNL     1     -11.068  15.789  70.846  1.00  0.00    -0.354 C  
HETATM   26  C   UNL     1     -11.724  15.573  69.492  1.00  0.00    -0.380 C  
ENDBRANCH  24  25
ENDBRANCH  23  24
ENDBRANCH  22  23
ENDBRANCH  21  22
ENDBRANCH  20  21
ENDBRANCH  17  20
ENDBRANCH  15  17
ENDBRANCH   1  15
BRANCH   1  27
HETATM   27  C   UNL     1     -10.803   8.044  69.978  1.00  0.00    -0.235 C  
BRANCH  27  28
HETATM   28  N   UNL     1     -10.548   7.790  71.417  1.00  0.00    -0.213 NA 
HETATM   29  C   UNL     1      -9.333   6.953  71.562  1.00  0.00    -0.155 C  
HETATM   30  C   UNL     1     -11.634   7.041  72.050  1.00  0.00    -0.285 C  
HETATM   31  C   UNL     1      -9.597   5.928  72.656  1.00  0.00    -0.162 C  
HETATM   32  C   UNL     1     -10.998   6.211  73.147  1.00  0.00    -0.258 C  
ENDBRANCH  27  28
ENDBRANCH   1  27
TORSDOF 12
ENDMDL
MODEL       54
REMARK 921   NORMALIZED FREE ENERGY PREDICTED BY IDOCK:   -5.57 KCAL/MOL
REMARK 922        TOTAL FREE ENERGY PREDICTED BY IDOCK:  -11.53 KCAL/MOL
REMARK 923 INTER-LIGAND FREE ENERGY PREDICTED BY IDOCK:  -10.04 KCAL/MOL
REMARK 924 INTRA-LIGAND FREE ENERGY PREDICTED BY IDOCK:   -1.49 KCAL/MOL
REMARK 927      BINDING AFFINITY PREDICTED BY RF-SCORE:    0.00 PKD
ROOT
HETATM    1  C   UNL     1     -11.444  13.638  69.626  1.00  0.00    -0.221 C  
ENDROOT
BRANCH   1   2
HETATM    2  C   UNL     1     -10.481  13.686  68.395  1.00  0.00    -0.246 C  
HETATM    3  O   UNL     1      -9.402  12.752  68.535  1.00  0.00    -0.339 OA 
HETATM    4  H   UNL     1      -8.816  12.781  67.787  1.00  0.00     0.000 HD 
BRANCH   2   5
HETATM    5  C   UNL     1      -9.960  15.093  68.089  1.00  0.00    -0.221 A  
HETATM    6  C   UNL     1     -10.760  19.118  65.901  1.00  0.00    -0.351 C  
HETATM    7  C   UNL     1     -10.065  17.094  66.704  1.00  0.00    -0.306 A  
HETATM    8  C   UNL     1      -9.091  15.785  68.955  1.00  0.00    -0.225 A  
HETATM    9  C   UNL     1      -9.194  17.764  67.564  1.00  0.00    -0.244 A  
HETATM   10  C   UNL     1      -9.388  19.682  66.232  1.00  0.00    -0.383 C  
HETATM   11  C   UNL     1     -10.413  15.760  66.934  1.00  0.00    -0.315 A  
HETATM   12  O   UNL     1      -8.832  19.077  67.408  1.00  0.00    -0.283 OA 
HETATM   13  O   UNL     1     -10.661  17.714  65.633  1.00  0.00    -0.565 OA 
HETATM   14  C   UNL     1      -8.692  17.100  68.680  1.00  0.00    -0.266 A  
ENDBRANCH   2   5
ENDBRANCH   1   2
BRANCH   1  15
HETATM   15  N   UNL     1     -12.119  12.328  69.631  1.00  0.00    -0.253 NA 
HETATM   16  H   UNL     1     -12.427  11.971  68.726  1.00  0.00     0.000 HD 
BRANCH  15  17
HETATM   17  C   UNL     1     -12.359  11.596  70.644  1.00  0.00    -0.344 C  
HETATM   18  H   UNL     1     -13.222  11.414  72.484  1.00  0.00     0.000 HD 
HETATM   19  O   UNL     1     -13.043  11.961  71.728  1.00  0.00    -0.451 OA 
BRANCH  17  20
HETATM   20  C   UNL     1     -11.843  10.180  70.692  1.00  0.00    -0.431 C  
BRANCH  20  21
HETATM   21  C   UNL     1     -12.419   9.382  71.857  1.00  0.00    -0.468 C  
BRANCH  21  22
HETATM   22  C   UNL     1     -13.012   8.037  71.433  1.00  0.00    -0.277 C  
BRANCH  22  23
HETATM   23  C   UNL     1     -11.906   7.034  71.098  1.00  0.00    -0.380 C  
BRANCH  23  24
HETATM   24  C   UNL     1     -11.403   6.308  72.345  1.00  0.00    -0.333 C  
BRANCH  24  25
HETATM   25  C   UNL     1      -9.913   6.569  72.570  1.00  0.00    -0.184 C  
HETATM   26  C   UNL     1      -9.676   7.421  73.806  1.00  0.00    -0.330 C  
ENDBRANCH  24  25
ENDBRANCH  23  24
ENDBRANCH  22  23
ENDBRANCH  21  22
ENDBRANCH  20  21
ENDBRANCH  17  20
ENDBRANCH  15  17
ENDBRANCH   1  15
BRANCH   1  27
HETATM   27  C   UNL     1     -12.629  14.665  69.644  1.00  0.00    -0.068 C  
BRANCH  27  28
HETATM   28  N   UNL     1     -12.869  15.583  70.784  1.00  0.00    -0.478 NA 
HETATM   29  C   UNL     1     -11.782  15.425  71.780  1.00  0.00    -0.416 C  
HETATM   30  C   UNL     1     -14.114  15.278  71.490  1.00  0.00    -0.524 C  
HETATM   31  C   UNL     1     -12.409  15.464  73.167  1.00  0.00    -0.562 C  
HETATM   32  C   UNL     1     -13.889  15.664  72.938  1.00  0.00    -0.571 C  
ENDBRANCH  27  28
ENDBRANCH   1  27
TORSDOF 12
ENDMDL
MODEL       55
REMARK 921   NORMALIZED FREE ENERGY PREDICTED BY IDOCK:   -5.54 KCAL/MOL
REMARK 922        TOTAL FREE ENERGY PREDICTED BY IDOCK:  -11.49 KCAL/MOL
REMARK 923 INTER-LIGAND FREE ENERGY PREDICTED BY IDOCK:   -9.68 KCAL/MOL
REMARK 924 INTRA-LIGAND FREE ENERGY PREDICTED BY IDOCK:   -1.81 KCAL/MOL
REMARK 927      BINDING AFFINITY PREDICTED BY RF-SCORE:    0.00 PKD
ROOT
HETATM    1  C   UNL     1     -10.721  11.572  68.815  1.00  0.00    -0.211 C  
ENDROOT
BRANCH   1   2
HETATM    2  C   UNL     1     -11.954  12.510  68.600  1.00  0.00    -0.224 C  
HETATM    3  O   UNL     1     -12.021  12.989  67.251  1.00  0.00    -0.366 OA 
HETATM    4  H   UNL     1     -12.770  13.559  67.120  1.00  0.00     0.000 HD 
BRANCH   2   5
HETATM    5  C   UNL     1     -12.018  13.665  69.603  1.00  0.00    -0.402 A  
HETATM    6  C   UNL     1     -12.506  14.885  74.064  1.00  0.00    -0.376 C  
HETATM    7  C   UNL     1     -12.632  14.461  71.822  1.00  0.00    -0.351 A  
HETATM    8  C   UNL     1     -11.380  14.900  69.379  1.00  0.00    -0.312 A  
HETATM    9  C   UNL     1     -12.006  15.685  71.582  1.00  0.00    -0.430 A  
HETATM   10  C   UNL     1     -12.564  16.372  73.751  1.00  0.00    -0.450 C  
HETATM   11  C   UNL     1     -12.679  13.475  70.832  1.00  0.00    -0.366 A  
HETATM   12  O   UNL     1     -11.905  16.683  72.516  1.00  0.00    -0.506 OA 
HETATM   13  O   UNL     1     -13.180  14.143  73.040  1.00  0.00    -0.583 OA 
HETATM   14  C   UNL     1     -11.397  15.910  70.351  1.00  0.00    -0.399 A  
ENDBRANCH   2   5
ENDBRANCH   1   2
BRANCH   1  15
HETATM   15  N   UNL     1     -10.194  11.194  67.492  1.00  0.00    -0.182 NA 
HETATM   16  H   UNL     1     -10.861  10.788  66.835  1.00  0.00     0.000 HD 
BRANCH  15  17
HETATM   17  C   UNL     1      -8.997  11.321  67.081  1.00  0.00    -0.155 C  
HETATM   18  H   UNL     1      -7.364  10.461  66.208  1.00  0.00     0.000 HD 
HETATM   19  O   UNL     1      -8.259  10.366  66.514  1.00  0.00    -0.124 OA 
BRANCH  17  20
HETATM   20  C   UNL     1      -8.283  12.642  67.228  1.00  0.00    -0.184 C  
BRANCH  20  21
HETATM   21  C   UNL     1      -8.984  13.776  66.488  1.00  0.00    -0.080 C  
BRANCH  21  22
HETATM   22  C   UNL     1      -8.560  15.165  66.970  1.00  0.00    -0.265 C  
BRANCH  22  23
HETATM   23  C   UNL     1      -9.240  16.259  66.145  1.00  0.00    -0.376 C  
BRANCH  23  24
HETATM   24  C   UNL     1      -8.694  17.646  66.483  1.00  0.00    -0.289 C  
BRANCH  24  25
HETATM   25  C   UNL     1      -9.332  18.192  67.761  1.00  0.00    -0.268 C  
HETATM   26  C   UNL     1     -10.603  18.969  67.462  1.00  0.00    -0.546 C  
ENDBRANCH  24  25
ENDBRANCH  23  24
ENDBRANCH  22  23
ENDBRANCH  21  22
ENDBRANCH  20  21
ENDBRANCH  17  20
ENDBRANCH  15  17
ENDBRANCH   1  15
BRANCH   1  27
HETATM   27  C   UNL     1     -10.988  10.193  69.514  1.00  0.00    -0.256 C  
BRANCH  27  28
HETATM   28  N   UNL     1     -11.420  10.091  70.930  1.00  0.00    -0.347 NA 
HETATM   29  C   UNL     1     -10.784   8.907  71.555  1.00  0.00    -0.328 C  
HETATM   30  C   UNL     1     -12.864   9.890  71.056  1.00  0.00    -0.331 C  
HETATM   31  C   UNL     1     -11.821   8.229  72.438  1.00  0.00    -0.461 C  
HETATM   32  C   UNL     1     -13.071   9.069  72.313  1.00  0.00    -0.508 C  
ENDBRANCH  27  28
ENDBRANCH   1  27
TORSDOF 12
ENDMDL
MODEL       56
REMARK 921   NORMALIZED FREE ENERGY PREDICTED BY IDOCK:   -5.51 KCAL/MOL
REMARK 922        TOTAL FREE ENERGY PREDICTED BY IDOCK:  -11.44 KCAL/MOL
REMARK 923 INTER-LIGAND FREE ENERGY PREDICTED BY IDOCK:   -9.36 KCAL/MOL
REMARK 924 INTRA-LIGAND FREE ENERGY PREDICTED BY IDOCK:   -2.08 KCAL/MOL
REMARK 927      BINDING AFFINITY PREDICTED BY RF-SCORE:    0.00 PKD
ROOT
HETATM    1  C   UNL     1      -8.525  16.093  67.930  1.00  0.00    -0.163 C  
ENDROOT
BRANCH   1   2
HETATM    2  C   UNL     1      -8.940  14.606  68.184  1.00  0.00    -0.179 C  
HETATM    3  O   UNL     1      -7.809  13.727  68.121  1.00  0.00    -0.125 OA 
HETATM    4  H   UNL     1      -8.060  12.824  68.275  1.00  0.00     0.000 HD 
BRANCH   2   5
HETATM    5  C   UNL     1     -10.066  14.127  67.265  1.00  0.00    -0.256 A  
HETATM    6  C   UNL     1     -11.183  11.653  63.489  1.00  0.00    -0.373 C  
HETATM    7  C   UNL     1     -10.745  13.192  65.120  1.00  0.00    -0.315 A  
HETATM    8  C   UNL     1     -11.392  13.965  67.711  1.00  0.00    -0.335 A  
HETATM    9  C   UNL     1     -12.057  13.048  65.571  1.00  0.00    -0.452 A  
HETATM   10  C   UNL     1     -12.638  12.091  63.514  1.00  0.00    -0.507 C  
HETATM   11  C   UNL     1      -9.766  13.765  65.937  1.00  0.00    -0.217 A  
HETATM   12  O   UNL     1     -13.058  12.475  64.830  1.00  0.00    -0.853 OA 
HETATM   13  O   UNL     1     -10.337  12.738  63.890  1.00  0.00    -0.420 OA 
HETATM   14  C   UNL     1     -12.384  13.454  66.863  1.00  0.00    -0.262 A  
ENDBRANCH   2   5
ENDBRANCH   1   2
BRANCH   1  15
HETATM   15  N   UNL     1      -7.154  16.281  68.435  1.00  0.00    -0.132 NA 
HETATM   16  H   UNL     1      -6.951  15.897  69.358  1.00  0.00     0.000 HD 
BRANCH  15  17
HETATM   17  C   UNL     1      -6.195  16.871  67.841  1.00  0.00    -0.134 C  
HETATM   18  H   UNL     1      -5.211  17.249  66.093  1.00  0.00     0.000 HD 
HETATM   19  O   UNL     1      -5.927  16.809  66.537  1.00  0.00    -0.304 OA 
BRANCH  17  20
HETATM   20  C   UNL     1      -5.232  17.726  68.626  1.00  0.00    -0.152 C  
BRANCH  20  21
HETATM   21  C   UNL     1      -5.887  18.405  69.824  1.00  0.00    -0.252 C  
BRANCH  21  22
HETATM   22  C   UNL     1      -6.496  19.768  69.487  1.00  0.00    -0.383 C  
BRANCH  22  23
HETATM   23  C   UNL     1      -5.412  20.756  69.053  1.00  0.00    -0.398 C  
BRANCH  23  24
HETATM   24  C   UNL     1      -5.697  21.338  67.669  1.00  0.00    -0.414 C  
BRANCH  24  25
HETATM   25  C   UNL     1      -7.064  20.886  67.153  1.00  0.00    -0.413 C  
HETATM   26  C   UNL     1      -6.948  20.166  65.820  1.00  0.00    -0.310 C  
ENDBRANCH  24  25
ENDBRANCH  23  24
ENDBRANCH  22  23
ENDBRANCH  21  22
ENDBRANCH  20  21
ENDBRANCH  17  20
ENDBRANCH  15  17
ENDBRANCH   1  15
BRANCH   1  27
HETATM   27  C   UNL     1      -9.349  17.199  68.676  1.00  0.00    -0.269 C  
BRANCH  27  28
HETATM   28  N   UNL     1     -10.407  17.992  68.003  1.00  0.00    -0.374 NA 
HETATM   29  C   UNL     1     -10.309  17.800  66.537  1.00  0.00    -0.345 C  
HETATM   30  C   UNL     1     -10.257  19.429  68.236  1.00  0.00    -0.433 C  
HETATM   31  C   UNL     1     -10.545  19.149  65.871  1.00  0.00    -0.495 C  
HETATM   32  C   UNL     1     -10.799  20.120  67.001  1.00  0.00    -0.096 C  
ENDBRANCH  27  28
ENDBRANCH   1  27
TORSDOF 12
ENDMDL
MODEL       57
REMARK 921   NORMALIZED FREE ENERGY PREDICTED BY IDOCK:   -5.51 KCAL/MOL
REMARK 922        TOTAL FREE ENERGY PREDICTED BY IDOCK:  -11.44 KCAL/MOL
REMARK 923 INTER-LIGAND FREE ENERGY PREDICTED BY IDOCK:   -9.88 KCAL/MOL
REMARK 924 INTRA-LIGAND FREE ENERGY PREDICTED BY IDOCK:   -1.56 KCAL/MOL
REMARK 927      BINDING AFFINITY PREDICTED BY RF-SCORE:    0.00 PKD
ROOT
HETATM    1  C   UNL     1     -11.010  15.030  67.524  1.00  0.00    -0.307 C  
ENDROOT
BRANCH   1   2
HETATM    2  C   UNL     1     -11.577  14.108  66.395  1.00  0.00    -0.369 C  
HETATM    3  O   UNL     1     -12.958  14.390  66.131  1.00  0.00    -0.409 OA 
HETATM    4  H   UNL     1     -13.303  13.830  65.445  1.00  0.00     0.000 HD 
BRANCH   2   5
HETATM    5  C   UNL     1     -11.358  12.617  66.665  1.00  0.00    -0.379 A  
HETATM    6  C   UNL     1      -8.796   8.855  65.709  1.00  0.00    -0.186 C  
HETATM    7  C   UNL     1     -10.353  10.506  65.980  1.00  0.00    -0.211 A  
HETATM    8  C   UNL     1     -11.736  12.001  67.873  1.00  0.00    -0.393 A  
HETATM    9  C   UNL     1     -10.744   9.905  67.177  1.00  0.00    -0.207 A  
HETATM   10  C   UNL     1      -9.700   7.921  66.497  1.00  0.00    -0.209 C  
HETATM   11  C   UNL     1     -10.691  11.833  65.703  1.00  0.00    -0.328 A  
HETATM   12  O   UNL     1     -10.425   8.616  67.520  1.00  0.00    -0.255 OA 
HETATM   13  O   UNL     1      -9.581   9.855  65.049  1.00  0.00    -0.271 OA 
HETATM   14  C   UNL     1     -11.454  10.649  68.115  1.00  0.00    -0.303 A  
ENDBRANCH   2   5
ENDBRANCH   1   2
BRANCH   1  15
HETATM   15  N   UNL     1     -12.096  15.311  68.479  1.00  0.00    -0.572 NA 
HETATM   16  H   UNL     1     -13.026  15.452  68.083  1.00  0.00     0.000 HD 
BRANCH  15  17
HETATM   17  C   UNL     1     -11.999  15.396  69.745  1.00  0.00    -0.358 C  
HETATM   18  H   UNL     1     -10.909  16.003  71.361  1.00  0.00     0.000 HD 
HETATM   19  O   UNL     1     -10.983  15.939  70.415  1.00  0.00    -0.321 OA 
BRANCH  17  20
HETATM   20  C   UNL     1     -13.090  14.843  70.626  1.00  0.00    -0.363 C  
BRANCH  20  21
HETATM   21  C   UNL     1     -12.546  14.132  71.862  1.00  0.00    -0.371 C  
BRANCH  21  22
HETATM   22  C   UNL     1     -13.338  12.877  72.234  1.00  0.00    -0.597 C  
BRANCH  22  23
HETATM   23  C   UNL     1     -12.849  11.667  71.435  1.00  0.00    -0.461 C  
BRANCH  23  24
HETATM   24  C   UNL     1     -13.384  10.356  72.008  1.00  0.00    -0.440 C  
BRANCH  24  25
HETATM   25  C   UNL     1     -12.675   9.153  71.384  1.00  0.00    -0.383 C  
HETATM   26  C   UNL     1     -11.165   9.287  71.474  1.00  0.00    -0.457 C  
ENDBRANCH  24  25
ENDBRANCH  23  24
ENDBRANCH  22  23
ENDBRANCH  21  22
ENDBRANCH  20  21
ENDBRANCH  17  20
ENDBRANCH  15  17
ENDBRANCH   1  15
BRANCH   1  27
HETATM   27  C   UNL     1     -10.515  16.456  67.097  1.00  0.00    -0.297 C  
BRANCH  27  28
HETATM   28  N   UNL     1      -9.121  16.913  67.318  1.00  0.00    -0.216 NA 
HETATM   29  C   UNL     1      -9.083  18.394  67.322  1.00  0.00    -0.266 C  
HETATM   30  C   UNL     1      -8.220  16.486  66.247  1.00  0.00    -0.325 C  
HETATM   31  C   UNL     1      -7.838  18.833  66.564  1.00  0.00    -0.286 C  
HETATM   32  C   UNL     1      -7.153  17.556  66.136  1.00  0.00    -0.341 C  
ENDBRANCH  27  28
ENDBRANCH   1  27
TORSDOF 12
ENDMDL
MODEL       58
REMARK 921   NORMALIZED FREE ENERGY PREDICTED BY IDOCK:   -5.51 KCAL/MOL
REMARK 922        TOTAL FREE ENERGY PREDICTED BY IDOCK:  -11.43 KCAL/MOL
REMARK 923 INTER-LIGAND FREE ENERGY PREDICTED BY IDOCK:   -9.68 KCAL/MOL
REMARK 924 INTRA-LIGAND FREE ENERGY PREDICTED BY IDOCK:   -1.75 KCAL/MOL
REMARK 927      BINDING AFFINITY PREDICTED BY RF-SCORE:    0.00 PKD
ROOT
HETATM    1  C   UNL     1     -10.062  14.720  66.955  1.00  0.00    -0.246 C  
ENDROOT
BRANCH   1   2
HETATM    2  C   UNL     1     -10.847  13.373  66.829  1.00  0.00    -0.282 C  
HETATM    3  O   UNL     1     -11.812  13.425  65.770  1.00  0.00    -0.342 OA 
HETATM    4  H   UNL     1     -12.290  12.606  65.693  1.00  0.00     0.000 HD 
BRANCH   2   5
HETATM    5  C   UNL     1     -11.491  12.923  68.143  1.00  0.00    -0.354 A  
HETATM    6  C   UNL     1     -11.862   9.527  71.299  1.00  0.00    -0.373 C  
HETATM    7  C   UNL     1     -12.069  11.107  69.661  1.00  0.00    -0.336 A  
HETATM    8  C   UNL     1     -11.906  13.832  69.135  1.00  0.00    -0.398 A  
HETATM    9  C   UNL     1     -12.488  12.019  70.630  1.00  0.00    -0.247 A  
HETATM   10  C   UNL     1     -12.961  10.236  72.074  1.00  0.00    -0.402 C  
HETATM   11  C   UNL     1     -11.616  11.546  68.414  1.00  0.00    -0.375 A  
HETATM   12  O   UNL     1     -12.921  11.656  71.880  1.00  0.00    -0.427 OA 
HETATM   13  O   UNL     1     -12.029   9.754  69.894  1.00  0.00    -0.049 OA 
HETATM   14  C   UNL     1     -12.424  13.383  70.358  1.00  0.00    -0.322 A  
ENDBRANCH   2   5
ENDBRANCH   1   2
BRANCH   1  15
HETATM   15  N   UNL     1     -10.099  15.398  65.648  1.00  0.00    -0.352 NA 
HETATM   16  H   UNL     1      -9.686  14.895  64.862  1.00  0.00     0.000 HD 
BRANCH  15  17
HETATM   17  C   UNL     1     -10.591  16.544  65.395  1.00  0.00    -0.276 C  
HETATM   18  H   UNL     1     -11.647  17.731  64.113  1.00  0.00     0.000 HD 
HETATM   19  O   UNL     1     -11.279  16.875  64.302  1.00  0.00    -1.204 OA 
BRANCH  17  20
HETATM   20  C   UNL     1     -10.407  17.678  66.371  1.00  0.00    -0.345 C  
BRANCH  20  21
HETATM   21  C   UNL     1     -10.698  19.041  65.752  1.00  0.00    -0.350 C  
BRANCH  21  22
HETATM   22  C   UNL     1      -9.999  20.195  66.474  1.00  0.00    -0.586 C  
BRANCH  22  23
HETATM   23  C   UNL     1      -8.870  19.674  67.367  1.00  0.00    -0.376 C  
BRANCH  23  24
HETATM   24  C   UNL     1      -7.573  20.454  67.153  1.00  0.00    -0.367 C  
BRANCH  24  25
HETATM   25  C   UNL     1      -6.955  20.130  65.792  1.00  0.00    -0.310 C  
HETATM   26  C   UNL     1      -6.629  18.652  65.664  1.00  0.00    -0.309 C  
ENDBRANCH  24  25
ENDBRANCH  23  24
ENDBRANCH  22  23
ENDBRANCH  21  22
ENDBRANCH  20  21
ENDBRANCH  17  20
ENDBRANCH  15  17
ENDBRANCH   1  15
BRANCH   1  27
HETATM   27  C   UNL     1      -8.530  14.623  67.279  1.00  0.00    -0.215 C  
BRANCH  27  28
HETATM   28  N   UNL     1      -7.697  15.820  67.548  1.00  0.00    -0.147 NA 
HETATM   29  C   UNL     1      -6.269  15.428  67.594  1.00  0.00    -0.142 C  
HETATM   30  C   UNL     1      -7.995  16.422  68.849  1.00  0.00    -0.236 C  
HETATM   31  C   UNL     1      -5.609  16.188  68.736  1.00  0.00    -0.108 C  
HETATM   32  C   UNL     1      -6.701  17.043  69.337  1.00  0.00    -0.208 C  
ENDBRANCH  27  28
ENDBRANCH   1  27
TORSDOF 12
ENDMDL
MODEL       59
REMARK 921   NORMALIZED FREE ENERGY PREDICTED BY IDOCK:   -5.51 KCAL/MOL
REMARK 922        TOTAL FREE ENERGY PREDICTED BY IDOCK:  -11.43 KCAL/MOL
REMARK 923 INTER-LIGAND FREE ENERGY PREDICTED BY IDOCK:  -10.39 KCAL/MOL
REMARK 924 INTRA-LIGAND FREE ENERGY PREDICTED BY IDOCK:   -1.04 KCAL/MOL
REMARK 927      BINDING AFFINITY PREDICTED BY RF-SCORE:    0.00 PKD
ROOT
HETATM    1  C   UNL     1     -11.468  14.582  66.081  1.00  0.00    -0.357 C  
ENDROOT
BRANCH   1   2
HETATM    2  C   UNL     1     -11.057  13.765  67.349  1.00  0.00    -0.296 C  
HETATM    3  O   UNL     1     -11.614  12.444  67.327  1.00  0.00    -0.330 OA 
HETATM    4  H   UNL     1     -11.364  11.947  68.098  1.00  0.00     0.000 HD 
BRANCH   2   5
HETATM    5  C   UNL     1     -11.381  14.482  68.663  1.00  0.00    -0.300 A  
HETATM    6  C   UNL     1     -13.193  14.096  72.929  1.00  0.00    -0.452 C  
HETATM    7  C   UNL     1     -12.627  14.523  70.756  1.00  0.00    -0.351 A  
HETATM    8  C   UNL     1     -10.652  15.596  69.119  1.00  0.00    -0.237 A  
HETATM    9  C   UNL     1     -11.904  15.635  71.191  1.00  0.00    -0.408 A  
HETATM   10  C   UNL     1     -13.084  15.585  73.214  1.00  0.00    -0.543 C  
HETATM   11  C   UNL     1     -12.403  13.976  69.490  1.00  0.00    -0.275 A  
HETATM   12  O   UNL     1     -12.058  16.206  72.428  1.00  0.00    -0.481 OA 
HETATM   13  O   UNL     1     -13.543  13.885  71.555  1.00  0.00    -0.334 OA 
HETATM   14  C   UNL     1     -10.929  16.183  70.362  1.00  0.00    -0.320 A  
ENDBRANCH   2   5
ENDBRANCH   1   2
BRANCH   1  15
HETATM   15  N   UNL     1     -12.164  13.673  65.154  1.00  0.00    -0.407 NA 
HETATM   16  H   UNL     1     -13.062  13.303  65.466  1.00  0.00     0.000 HD 
BRANCH  15  17
HETATM   17  C   UNL     1     -11.765  13.302  64.004  1.00  0.00    -0.430 C  
HETATM   18  H   UNL     1     -12.084  13.263  61.988  1.00  0.00     0.000 HD 
HETATM   19  O   UNL     1     -12.382  13.541  62.847  1.00  0.00    -0.542 OA 
BRANCH  17  20
HETATM   20  C   UNL     1     -10.490  12.507  63.866  1.00  0.00    -0.464 C  
BRANCH  20  21
HETATM   21  C   UNL     1     -10.649  11.057  64.310  1.00  0.00    -0.402 C  
BRANCH  21  22
HETATM   22  C   UNL     1      -9.443  10.183  63.962  1.00  0.00    -0.341 C  
BRANCH  22  23
HETATM   23  C   UNL     1      -8.883   9.503  65.213  1.00  0.00    -0.220 C  
BRANCH  23  24
HETATM   24  C   UNL     1      -9.996   9.022  66.143  1.00  0.00    -0.311 C  
BRANCH  24  25
HETATM   25  C   UNL     1      -9.672   7.645  66.724  1.00  0.00    -0.290 C  
HETATM   26  C   UNL     1     -10.932   6.836  66.981  1.00  0.00    -0.439 C  
ENDBRANCH  24  25
ENDBRANCH  23  24
ENDBRANCH  22  23
ENDBRANCH  21  22
ENDBRANCH  20  21
ENDBRANCH  17  20
ENDBRANCH  15  17
ENDBRANCH   1  15
BRANCH   1  27
HETATM   27  C   UNL     1     -10.307  15.180  65.212  1.00  0.00    -0.396 C  
BRANCH  27  28
HETATM   28  N   UNL     1      -9.861  16.589  65.343  1.00  0.00    -0.503 NA 
HETATM   29  C   UNL     1      -8.677  16.650  66.233  1.00  0.00    -0.324 C  
HETATM   30  C   UNL     1     -10.879  17.439  65.963  1.00  0.00     0.016 C  
HETATM   31  C   UNL     1      -8.829  17.869  67.132  1.00  0.00    -0.250 C  
HETATM   32  C   UNL     1     -10.131  18.517  66.720  1.00  0.00    -0.406 C  
ENDBRANCH  27  28
ENDBRANCH   1  27
TORSDOF 12
ENDMDL
MODEL       60
REMARK 921   NORMALIZED FREE ENERGY PREDICTED BY IDOCK:   -5.46 KCAL/MOL
REMARK 922        TOTAL FREE ENERGY PREDICTED BY IDOCK:  -11.35 KCAL/MOL
REMARK 923 INTER-LIGAND FREE ENERGY PREDICTED BY IDOCK:  -10.02 KCAL/MOL
REMARK 924 INTRA-LIGAND FREE ENERGY PREDICTED BY IDOCK:   -1.32 KCAL/MOL
REMARK 927      BINDING AFFINITY PREDICTED BY RF-SCORE:    0.00 PKD
ROOT
HETATM    1  C   UNL     1     -10.948  11.233  68.819  1.00  0.00    -0.220 C  
ENDROOT
BRANCH   1   2
HETATM    2  C   UNL     1     -12.109  12.265  68.627  1.00  0.00    -0.088 C  
HETATM    3  O   UNL     1     -12.196  12.711  67.268  1.00  0.00    -0.425 OA 
HETATM    4  H   UNL     1     -12.901  13.338  67.151  1.00  0.00     0.000 HD 
BRANCH   2   5
HETATM    5  C   UNL     1     -12.032  13.449  69.595  1.00  0.00    -0.386 A  
HETATM    6  C   UNL     1     -12.479  14.873  74.000  1.00  0.00    -0.376 C  
HETATM    7  C   UNL     1     -12.593  14.399  71.767  1.00  0.00    -0.351 A  
HETATM    8  C   UNL     1     -11.210  14.568  69.361  1.00  0.00    -0.312 A  
HETATM    9  C   UNL     1     -11.784  15.508  71.517  1.00  0.00    -0.412 A  
HETATM   10  C   UNL     1     -12.304  16.340  73.645  1.00  0.00    -0.535 C  
HETATM   11  C   UNL     1     -12.754  13.399  70.804  1.00  0.00    -0.301 A  
HETATM   12  O   UNL     1     -11.566  16.511  72.427  1.00  0.00    -0.423 OA 
HETATM   13  O   UNL     1     -13.222  14.205  72.973  1.00  0.00    -0.583 OA 
HETATM   14  C   UNL     1     -11.108  15.600  70.304  1.00  0.00    -0.361 A  
ENDBRANCH   2   5
ENDBRANCH   1   2
BRANCH   1  15
HETATM   15  N   UNL     1     -11.180  10.104  67.902  1.00  0.00    -0.485 NA 
HETATM   16  H   UNL     1     -12.144   9.781  67.812  1.00  0.00     0.000 HD 
BRANCH  15  17
HETATM   17  C   UNL     1     -10.307   9.490  67.210  1.00  0.00    -0.255 C  
HETATM   18  H   UNL     1      -8.783   8.133  67.152  1.00  0.00     0.000 HD 
HETATM   19  O   UNL     1      -9.436   8.592  67.669  1.00  0.00    -0.141 OA 
BRANCH  17  20
HETATM   20  C   UNL     1     -10.184   9.764  65.731  1.00  0.00    -0.222 C  
BRANCH  20  21
HETATM   21  C   UNL     1      -9.710  11.182  65.432  1.00  0.00    -0.275 C  
BRANCH  21  22
HETATM   22  C   UNL     1     -10.213  11.716  64.089  1.00  0.00    -0.372 C  
BRANCH  22  23
HETATM   23  C   UNL     1     -10.978  13.027  64.277  1.00  0.00    -0.427 C  
BRANCH  23  24
HETATM   24  C   UNL     1     -10.173  14.043  65.086  1.00  0.00    -0.396 C  
BRANCH  24  25
HETATM   25  C   UNL     1     -10.757  15.449  64.942  1.00  0.00    -0.416 C  
HETATM   26  C   UNL     1     -10.464  16.304  66.163  1.00  0.00    -0.330 C  
ENDBRANCH  24  25
ENDBRANCH  23  24
ENDBRANCH  22  23
ENDBRANCH  21  22
ENDBRANCH  20  21
ENDBRANCH  17  20
ENDBRANCH  15  17
ENDBRANCH   1  15
BRANCH   1  27
HETATM   27  C   UNL     1     -10.829  10.550  70.226  1.00  0.00    -0.174 C  
BRANCH  27  28
HETATM   28  N   UNL     1     -11.671   9.395  70.622  1.00  0.00    -0.262 NA 
HETATM   29  C   UNL     1     -12.912   9.886  71.266  1.00  0.00    -0.395 C  
HETATM   30  C   UNL     1     -11.012   8.540  71.610  1.00  0.00    -0.292 C  
HETATM   31  C   UNL     1     -13.214   8.983  72.453  1.00  0.00    -0.507 C  
HETATM   32  C   UNL     1     -12.115   7.946  72.463  1.00  0.00    -0.298 C  
ENDBRANCH  27  28
ENDBRANCH   1  27
TORSDOF 12
ENDMDL
MODEL       61
REMARK 921   NORMALIZED FREE ENERGY PREDICTED BY IDOCK:   -5.46 KCAL/MOL
REMARK 922        TOTAL FREE ENERGY PREDICTED BY IDOCK:  -11.34 KCAL/MOL
REMARK 923 INTER-LIGAND FREE ENERGY PREDICTED BY IDOCK:   -9.72 KCAL/MOL
REMARK 924 INTRA-LIGAND FREE ENERGY PREDICTED BY IDOCK:   -1.62 KCAL/MOL
REMARK 927      BINDING AFFINITY PREDICTED BY RF-SCORE:    0.00 PKD
ROOT
HETATM    1  C   UNL     1      -9.899  12.587  66.808  1.00  0.00    -0.229 C  
ENDROOT
BRANCH   1   2
HETATM    2  C   UNL     1     -11.330  12.034  67.118  1.00  0.00    -0.333 C  
HETATM    3  O   UNL     1     -12.303  12.551  66.201  1.00  0.00    -0.596 OA 
HETATM    4  H   UNL     1     -13.172  12.215  66.389  1.00  0.00     0.000 HD 
BRANCH   2   5
HETATM    5  C   UNL     1     -11.763  12.255  68.569  1.00  0.00    -0.381 A  
HETATM    6  C   UNL     1     -13.859  15.111  71.583  1.00  0.00    -0.503 C  
HETATM    7  C   UNL     1     -12.489  13.797  70.311  1.00  0.00    -0.289 A  
HETATM    8  C   UNL     1     -12.043  11.191  69.448  1.00  0.00    -0.396 A  
HETATM    9  C   UNL     1     -12.751  12.733  71.176  1.00  0.00    -0.263 A  
HETATM   10  C   UNL     1     -13.503  14.257  72.788  1.00  0.00    -0.491 C  
HETATM   11  C   UNL     1     -11.960  13.569  69.038  1.00  0.00    -0.376 A  
HETATM   12  O   UNL     1     -13.290  12.885  72.427  1.00  0.00    -0.528 OA 
HETATM   13  O   UNL     1     -12.782  15.098  70.638  1.00  0.00    -0.361 OA 
HETATM   14  C   UNL     1     -12.508  11.430  70.749  1.00  0.00    -0.460 A  
ENDBRANCH   2   5
ENDBRANCH   1   2
BRANCH   1  15
HETATM   15  N   UNL     1     -10.044  13.811  66.002  1.00  0.00    -0.303 NA 
HETATM   16  H   UNL     1     -10.431  13.697  65.065  1.00  0.00     0.000 HD 
BRANCH  15  17
HETATM   17  C   UNL     1      -9.738  14.996  66.350  1.00  0.00    -0.283 C  
HETATM   18  H   UNL     1      -8.279  16.395  66.636  1.00  0.00     0.000 HD 
HETATM   19  O   UNL     1      -8.508  15.510  66.376  1.00  0.00    -0.282 OA 
BRANCH  17  20
HETATM   20  C   UNL     1     -10.813  15.955  66.795  1.00  0.00    -0.228 C  
BRANCH  20  21
HETATM   21  C   UNL     1     -10.461  16.673  68.094  1.00  0.00    -0.321 C  
BRANCH  21  22
HETATM   22  C   UNL     1     -10.702  18.183  68.034  1.00  0.00    -0.297 C  
BRANCH  22  23
HETATM   23  C   UNL     1     -10.524  18.707  66.608  1.00  0.00    -0.459 C  
BRANCH  23  24
HETATM   24  C   UNL     1      -9.428  19.769  66.526  1.00  0.00    -0.500 C  
BRANCH  24  25
HETATM   25  C   UNL     1      -8.050  19.126  66.367  1.00  0.00    -0.319 C  
HETATM   26  C   UNL     1      -7.212  19.280  67.625  1.00  0.00    -0.254 C  
ENDBRANCH  24  25
ENDBRANCH  23  24
ENDBRANCH  22  23
ENDBRANCH  21  22
ENDBRANCH  20  21
ENDBRANCH  17  20
ENDBRANCH  15  17
ENDBRANCH   1  15
BRANCH   1  27
HETATM   27  C   UNL     1      -8.959  11.680  65.940  1.00  0.00    -0.108 C  
BRANCH  27  28
HETATM   28  N   UNL     1      -9.484  10.685  64.974  1.00  0.00    -0.223 NA 
HETATM   29  C   UNL     1      -8.550   9.537  64.892  1.00  0.00    -0.172 C  
HETATM   30  C   UNL     1      -9.584  11.226  63.618  1.00  0.00    -0.274 C  
HETATM   31  C   UNL     1      -8.444   9.123  63.431  1.00  0.00    -0.195 C  
HETATM   32  C   UNL     1      -9.359  10.060  62.677  1.00  0.00    -0.296 C  
ENDBRANCH  27  28
ENDBRANCH   1  27
TORSDOF 12
ENDMDL
MODEL       62
REMARK 921   NORMALIZED FREE ENERGY PREDICTED BY IDOCK:   -5.45 KCAL/MOL
REMARK 922        TOTAL FREE ENERGY PREDICTED BY IDOCK:  -11.33 KCAL/MOL
REMARK 923 INTER-LIGAND FREE ENERGY PREDICTED BY IDOCK:   -9.92 KCAL/MOL
REMARK 924 INTRA-LIGAND FREE ENERGY PREDICTED BY IDOCK:   -1.41 KCAL/MOL
REMARK 927      BINDING AFFINITY PREDICTED BY RF-SCORE:    0.00 PKD
ROOT
HETATM    1  C   UNL     1     -11.418  12.993  68.450  1.00  0.00    -0.310 C  
ENDROOT
BRANCH   1   2
HETATM    2  C   UNL     1     -11.455  14.240  69.394  1.00  0.00    -0.292 C  
HETATM    3  O   UNL     1     -12.796  14.701  69.603  1.00  0.00    -0.564 OA 
HETATM    4  H   UNL     1     -12.819  15.459  70.177  1.00  0.00     0.000 HD 
BRANCH   2   5
HETATM    5  C   UNL     1     -10.544  15.379  68.928  1.00  0.00    -0.244 A  
HETATM    6  C   UNL     1     -10.268  19.869  67.749  1.00  0.00    -0.429 C  
HETATM    7  C   UNL     1     -10.325  17.592  67.933  1.00  0.00    -0.371 A  
HETATM    8  C   UNL     1      -9.166  15.412  69.212  1.00  0.00    -0.259 A  
HETATM    9  C   UNL     1      -8.957  17.607  68.211  1.00  0.00    -0.276 A  
HETATM   10  C   UNL     1      -8.818  19.763  67.305  1.00  0.00    -0.326 C  
HETATM   11  C   UNL     1     -11.106  16.476  68.246  1.00  0.00    -0.321 A  
HETATM   12  O   UNL     1      -8.140  18.677  67.951  1.00  0.00    -0.255 OA 
HETATM   13  O   UNL     1     -10.977  18.675  67.396  1.00  0.00    -0.399 OA 
HETATM   14  C   UNL     1      -8.375  16.506  68.834  1.00  0.00    -0.241 A  
ENDBRANCH   2   5
ENDBRANCH   1   2
BRANCH   1  15
HETATM   15  N   UNL     1     -10.340  12.100  68.909  1.00  0.00    -0.400 NA 
HETATM   16  H   UNL     1      -9.436  12.536  69.097  1.00  0.00     0.000 HD 
BRANCH  15  17
HETATM   17  C   UNL     1     -10.416  10.844  69.097  1.00  0.00    -0.221 C  
HETATM   18  H   UNL     1     -11.269   9.292  70.112  1.00  0.00     0.000 HD 
HETATM   19  O   UNL     1     -11.213  10.231  69.972  1.00  0.00    -0.266 OA 
BRANCH  17  20
HETATM   20  C   UNL     1      -9.546   9.906  68.297  1.00  0.00    -0.151 C  
BRANCH  20  21
HETATM   21  C   UNL     1     -10.330   9.129  67.245  1.00  0.00    -0.338 C  
BRANCH  21  22
HETATM   22  C   UNL     1      -9.766   7.730  66.983  1.00  0.00    -0.259 C  
BRANCH  22  23
HETATM   23  C   UNL     1     -10.865   6.671  67.086  1.00  0.00    -0.471 C  
BRANCH  23  24
HETATM   24  C   UNL     1     -10.664   5.762  68.297  1.00  0.00    -0.285 C  
BRANCH  24  25
HETATM   25  C   UNL     1     -11.161   6.433  69.578  1.00  0.00    -0.477 C  
HETATM   26  C   UNL     1     -10.033   6.642  70.574  1.00  0.00    -0.197 C  
ENDBRANCH  24  25
ENDBRANCH  23  24
ENDBRANCH  22  23
ENDBRANCH  21  22
ENDBRANCH  20  21
ENDBRANCH  17  20
ENDBRANCH  15  17
ENDBRANCH   1  15
BRANCH   1  27
HETATM   27  C   UNL     1     -11.069  13.251  66.943  1.00  0.00    -0.289 C  
BRANCH  27  28
HETATM   28  N   UNL     1     -11.512  12.342  65.858  1.00  0.00    -0.356 NA 
HETATM   29  C   UNL     1     -10.382  12.093  64.932  1.00  0.00    -0.289 C  
HETATM   30  C   UNL     1     -12.581  12.925  65.046  1.00  0.00    -0.472 C  
HETATM   31  C   UNL     1     -10.927  12.111  63.511  1.00  0.00    -0.521 C  
HETATM   32  C   UNL     1     -12.410  12.363  63.649  1.00  0.00    -0.647 C  
ENDBRANCH  27  28
ENDBRANCH   1  27
TORSDOF 12
ENDMDL
MODEL       63
REMARK 921   NORMALIZED FREE ENERGY PREDICTED BY IDOCK:   -5.45 KCAL/MOL
REMARK 922        TOTAL FREE ENERGY PREDICTED BY IDOCK:  -11.33 KCAL/MOL
REMARK 923 INTER-LIGAND FREE ENERGY PREDICTED BY IDOCK:  -10.25 KCAL/MOL
REMARK 924 INTRA-LIGAND FREE ENERGY PREDICTED BY IDOCK:   -1.08 KCAL/MOL
REMARK 927      BINDING AFFINITY PREDICTED BY RF-SCORE:    0.00 PKD
ROOT
HETATM    1  C   UNL     1     -11.647   9.120  71.378  1.00  0.00    -0.341 C  
ENDROOT
BRANCH   1   2
HETATM    2  C   UNL     1     -12.989   9.910  71.533  1.00  0.00    -0.422 C  
HETATM    3  O   UNL     1     -13.998   9.412  70.644  1.00  0.00    -0.509 OA 
HETATM    4  H   UNL     1     -14.813   9.891  70.738  1.00  0.00     0.000 HD 
BRANCH   2   5
HETATM    5  C   UNL     1     -12.820  11.424  71.387  1.00  0.00    -0.502 A  
HETATM    6  C   UNL     1     -11.729  14.932  68.534  1.00  0.00    -0.310 C  
HETATM    7  C   UNL     1     -11.917  13.304  70.127  1.00  0.00    -0.318 A  
HETATM    8  C   UNL     1     -13.526  12.347  72.182  1.00  0.00    -0.481 A  
HETATM    9  C   UNL     1     -12.613  14.208  70.931  1.00  0.00    -0.363 A  
HETATM   10  C   UNL     1     -11.770  15.972  69.642  1.00  0.00    -0.276 C  
HETATM   11  C   UNL     1     -11.981  11.930  70.375  1.00  0.00    -0.400 A  
HETATM   12  O   UNL     1     -12.611  15.564  70.728  1.00  0.00    -0.409 OA 
HETATM   13  O   UNL     1     -11.186  13.704  69.035  1.00  0.00    -0.253 OA 
HETATM   14  C   UNL     1     -13.403  13.728  71.972  1.00  0.00    -0.536 A  
ENDBRANCH   2   5
ENDBRANCH   1   2
BRANCH   1  15
HETATM   15  N   UNL     1     -11.488   8.758  69.959  1.00  0.00    -0.455 NA 
HETATM   16  H   UNL     1     -12.222   8.178  69.552  1.00  0.00     0.000 HD 
BRANCH  15  17
HETATM   17  C   UNL     1     -10.533   9.092  69.188  1.00  0.00    -0.225 C  
HETATM   18  H   UNL     1      -8.573   9.626  68.989  1.00  0.00     0.000 HD 
HETATM   19  O   UNL     1      -9.286   9.377  69.565  1.00  0.00    -0.161 OA 
BRANCH  17  20
HETATM   20  C   UNL     1     -10.765   9.205  67.702  1.00  0.00    -0.257 C  
BRANCH  20  21
HETATM   21  C   UNL     1     -10.205  10.497  67.115  1.00  0.00    -0.270 C  
BRANCH  21  22
HETATM   22  C   UNL     1     -10.137  10.486  65.587  1.00  0.00    -0.333 C  
BRANCH  22  23
HETATM   23  C   UNL     1     -10.584  11.831  65.011  1.00  0.00    -0.338 C  
BRANCH  23  24
HETATM   24  C   UNL     1     -11.311  11.664  63.677  1.00  0.00    -0.485 C  
BRANCH  24  25
HETATM   25  C   UNL     1     -12.161  12.894  63.356  1.00  0.00    -0.610 C  
HETATM   26  C   UNL     1     -11.849  14.048  64.293  1.00  0.00    -0.435 C  
ENDBRANCH  24  25
ENDBRANCH  23  24
ENDBRANCH  22  23
ENDBRANCH  21  22
ENDBRANCH  20  21
ENDBRANCH  17  20
ENDBRANCH  15  17
ENDBRANCH   1  15
BRANCH   1  27
HETATM   27  C   UNL     1     -11.540   7.746  72.126  1.00  0.00    -0.317 C  
BRANCH  27  28
HETATM   28  N   UNL     1     -10.702   7.563  73.336  1.00  0.00    -0.382 NA 
HETATM   29  C   UNL     1      -9.341   8.089  73.077  1.00  0.00    -0.275 C  
HETATM   30  C   UNL     1     -10.532   6.151  73.685  1.00  0.00    -0.276 C  
HETATM   31  C   UNL     1      -8.339   7.125  73.697  1.00  0.00    -0.161 C  
HETATM   32  C   UNL     1      -9.168   6.035  74.336  1.00  0.00    -0.148 C  
ENDBRANCH  27  28
ENDBRANCH   1  27
TORSDOF 12
ENDMDL
MODEL       64
REMARK 921   NORMALIZED FREE ENERGY PREDICTED BY IDOCK:   -5.45 KCAL/MOL
REMARK 922        TOTAL FREE ENERGY PREDICTED BY IDOCK:  -11.33 KCAL/MOL
REMARK 923 INTER-LIGAND FREE ENERGY PREDICTED BY IDOCK:   -9.01 KCAL/MOL
REMARK 924 INTRA-LIGAND FREE ENERGY PREDICTED BY IDOCK:   -2.32 KCAL/MOL
REMARK 927      BINDING AFFINITY PREDICTED BY RF-SCORE:    0.00 PKD
ROOT
HETATM    1  C   UNL     1     -11.069  15.565  68.111  1.00  0.00    -0.325 C  
ENDROOT
BRANCH   1   2
HETATM    2  C   UNL     1     -11.396  14.571  66.948  1.00  0.00    -0.348 C  
HETATM    3  O   UNL     1     -12.780  14.197  66.952  1.00  0.00    -0.496 OA 
HETATM    4  H   UNL     1     -12.980  13.593  66.245  1.00  0.00     0.000 HD 
BRANCH   2   5
HETATM    5  C   UNL     1     -10.489  13.339  66.931  1.00  0.00    -0.261 A  
HETATM    6  C   UNL     1      -8.920   9.729  64.453  1.00  0.00    -0.245 C  
HETATM    7  C   UNL     1      -9.879  11.219  65.897  1.00  0.00    -0.232 A  
HETATM    8  C   UNL     1      -9.336  13.235  67.733  1.00  0.00    -0.209 A  
HETATM    9  C   UNL     1      -8.746  11.123  66.706  1.00  0.00    -0.157 A  
HETATM   10  C   UNL     1      -8.171   9.124  65.629  1.00  0.00    -0.120 C  
HETATM   11  C   UNL     1     -10.767  12.289  66.034  1.00  0.00    -0.296 A  
HETATM   12  O   UNL     1      -7.825  10.112  66.608  1.00  0.00    -0.107 OA 
HETATM   13  O   UNL     1     -10.150  10.311  64.903  1.00  0.00    -0.334 OA 
HETATM   14  C   UNL     1      -8.487  12.123  67.639  1.00  0.00    -0.163 A  
ENDBRANCH   2   5
ENDBRANCH   1   2
BRANCH   1  15
HETATM   15  N   UNL     1     -12.203  15.564  69.050  1.00  0.00    -0.611 NA 
HETATM   16  H   UNL     1     -13.132  15.681  68.644  1.00  0.00     0.000 HD 
BRANCH  15  17
HETATM   17  C   UNL     1     -12.148  15.433  70.315  1.00  0.00    -0.369 C  
HETATM   18  H   UNL     1     -11.463  16.143  72.102  1.00  0.00     0.000 HD 
HETATM   19  O   UNL     1     -11.504  16.241  71.157  1.00  0.00    -0.420 OA 
BRANCH  17  20
HETATM   20  C   UNL     1     -12.844  14.276  70.986  1.00  0.00    -0.427 C  
BRANCH  20  21
HETATM   21  C   UNL     1     -12.305  12.922  70.534  1.00  0.00    -0.362 C  
BRANCH  21  22
HETATM   22  C   UNL     1     -12.852  11.751  71.353  1.00  0.00    -0.440 C  
BRANCH  22  23
HETATM   23  C   UNL     1     -12.361  10.416  70.789  1.00  0.00    -0.463 C  
BRANCH  23  24
HETATM   24  C   UNL     1     -11.586  10.602  69.485  1.00  0.00    -0.360 C  
BRANCH  24  25
HETATM   25  C   UNL     1     -10.481   9.553  69.348  1.00  0.00    -0.231 C  
HETATM   26  C   UNL     1      -9.528   9.588  70.530  1.00  0.00    -0.306 C  
ENDBRANCH  24  25
ENDBRANCH  23  24
ENDBRANCH  22  23
ENDBRANCH  21  22
ENDBRANCH  20  21
ENDBRANCH  17  20
ENDBRANCH  15  17
ENDBRANCH   1  15
BRANCH   1  27
HETATM   27  C   UNL     1     -10.904  17.078  67.729  1.00  0.00    -0.269 C  
BRANCH  27  28
HETATM   28  N   UNL     1      -9.578  17.700  67.501  1.00  0.00    -0.263 NA 
HETATM   29  C   UNL     1      -8.524  16.850  68.103  1.00  0.00    -0.217 C  
HETATM   30  C   UNL     1      -9.461  19.009  68.145  1.00  0.00    -0.335 C  
HETATM   31  C   UNL     1      -7.507  17.765  68.770  1.00  0.00    -0.263 C  
HETATM   32  C   UNL     1      -8.001  19.171  68.519  1.00  0.00    -0.386 C  
ENDBRANCH  27  28
ENDBRANCH   1  27
TORSDOF 12
ENDMDL
MODEL       65
REMARK 921   NORMALIZED FREE ENERGY PREDICTED BY IDOCK:   -5.45 KCAL/MOL
REMARK 922        TOTAL FREE ENERGY PREDICTED BY IDOCK:  -11.33 KCAL/MOL
REMARK 923 INTER-LIGAND FREE ENERGY PREDICTED BY IDOCK:   -8.94 KCAL/MOL
REMARK 924 INTRA-LIGAND FREE ENERGY PREDICTED BY IDOCK:   -2.39 KCAL/MOL
REMARK 927      BINDING AFFINITY PREDICTED BY RF-SCORE:    0.00 PKD
ROOT
HETATM    1  C   UNL     1     -11.788  11.543  70.221  1.00  0.00    -0.342 C  
ENDROOT
BRANCH   1   2
HETATM    2  C   UNL     1     -12.217  11.703  68.726  1.00  0.00     0.015 C  
HETATM    3  O   UNL     1     -12.030  10.486  67.992  1.00  0.00    -0.758 OA 
HETATM    4  H   UNL     1     -12.291  10.583  67.083  1.00  0.00     0.000 HD 
BRANCH   2   5
HETATM    5  C   UNL     1     -11.539  12.883  68.025  1.00  0.00    -0.385 A  
HETATM    6  C   UNL     1      -7.558  15.173  67.294  1.00  0.00    -0.203 C  
HETATM    7  C   UNL     1      -9.626  14.383  67.858  1.00  0.00    -0.219 A  
HETATM    8  C   UNL     1     -12.027  13.435  66.825  1.00  0.00    -0.447 A  
HETATM    9  C   UNL     1     -10.128  14.929  66.676  1.00  0.00    -0.258 A  
HETATM   10  C   UNL     1      -8.234  16.299  66.530  1.00  0.00    -0.309 C  
HETATM   11  C   UNL     1     -10.341  13.403  68.552  1.00  0.00    -0.240 A  
HETATM   12  O   UNL     1      -9.468  15.876  65.936  1.00  0.00    -0.328 OA 
HETATM   13  O   UNL     1      -8.400  14.734  68.367  1.00  0.00    -0.141 OA 
HETATM   14  C   UNL     1     -11.340  14.467  66.171  1.00  0.00    -0.348 A  
ENDBRANCH   2   5
ENDBRANCH   1   2
BRANCH   1  15
HETATM   15  N   UNL     1     -11.876  10.116  70.575  1.00  0.00    -0.301 NA 
HETATM   16  H   UNL     1     -12.767   9.654  70.387  1.00  0.00     0.000 HD 
BRANCH  15  17
HETATM   17  C   UNL     1     -10.960   9.397  71.089  1.00  0.00    -0.360 C  
HETATM   18  H   UNL     1     -10.412   8.058  72.528  1.00  0.00     0.000 HD 
HETATM   19  O   UNL     1     -11.096   8.594  72.144  1.00  0.00    -0.340 OA 
BRANCH  17  20
HETATM   20  C   UNL     1      -9.569   9.416  70.507  1.00  0.00    -0.330 C  
BRANCH  20  21
HETATM   21  C   UNL     1      -9.442   8.555  69.254  1.00  0.00    -0.158 C  
BRANCH  21  22
HETATM   22  C   UNL     1      -8.314   9.005  68.324  1.00  0.00    -0.121 C  
BRANCH  22  23
HETATM   23  C   UNL     1      -8.319  10.526  68.157  1.00  0.00    -0.119 C  
BRANCH  23  24
HETATM   24  C   UNL     1      -7.803  10.947  66.781  1.00  0.00    -0.141 C  
BRANCH  24  25
HETATM   25  C   UNL     1      -8.959  11.251  65.829  1.00  0.00    -0.191 C  
HETATM   26  C   UNL     1      -9.489   9.988  65.171  1.00  0.00    -0.331 C  
ENDBRANCH  24  25
ENDBRANCH  23  24
ENDBRANCH  22  23
ENDBRANCH  21  22
ENDBRANCH  20  21
ENDBRANCH  17  20
ENDBRANCH  15  17
ENDBRANCH   1  15
BRANCH   1  27
HETATM   27  C   UNL     1     -12.684  12.248  71.299  1.00  0.00    -0.251 C  
BRANCH  27  28
HETATM   28  N   UNL     1     -13.161  13.644  71.145  1.00  0.00    -0.275 NA 
HETATM   29  C   UNL     1     -12.052  14.580  71.449  1.00  0.00    -0.354 C  
HETATM   30  C   UNL     1     -14.236  13.969  72.084  1.00  0.00    -0.535 C  
HETATM   31  C   UNL     1     -12.624  15.739  72.253  1.00  0.00    -0.528 C  
HETATM   32  C   UNL     1     -14.101  15.447  72.390  1.00  0.00    -0.645 C  
ENDBRANCH  27  28
ENDBRANCH   1  27
TORSDOF 12
ENDMDL
MODEL       66
REMARK 921   NORMALIZED FREE ENERGY PREDICTED BY IDOCK:   -5.44 KCAL/MOL
REMARK 922        TOTAL FREE ENERGY PREDICTED BY IDOCK:  -11.32 KCAL/MOL
REMARK 923 INTER-LIGAND FREE ENERGY PREDICTED BY IDOCK:  -10.17 KCAL/MOL
REMARK 924 INTRA-LIGAND FREE ENERGY PREDICTED BY IDOCK:   -1.14 KCAL/MOL
REMARK 927      BINDING AFFINITY PREDICTED BY RF-SCORE:    0.00 PKD
ROOT
HETATM    1  C   UNL     1     -11.297  12.163  66.363  1.00  0.00    -0.356 C  
ENDROOT
BRANCH   1   2
HETATM    2  C   UNL     1     -12.253  13.401  66.370  1.00  0.00    -0.376 C  
HETATM    3  O   UNL     1     -12.795  13.654  65.066  1.00  0.00    -0.690 OA 
HETATM    4  H   UNL     1     -13.376  14.406  65.070  1.00  0.00     0.000 HD 
BRANCH   2   5
HETATM    5  C   UNL     1     -11.610  14.660  66.957  1.00  0.00    -0.385 A  
HETATM    6  C   UNL     1     -10.119  18.985  66.120  1.00  0.00    -0.406 C  
HETATM    7  C   UNL     1     -10.455  16.772  66.583  1.00  0.00    -0.258 A  
HETATM    8  C   UNL     1     -11.727  15.008  68.316  1.00  0.00    -0.338 A  
HETATM    9  C   UNL     1     -10.568  17.100  67.935  1.00  0.00    -0.376 A  
HETATM   10  C   UNL     1      -9.515  19.148  67.506  1.00  0.00    -0.307 C  
HETATM   11  C   UNL     1     -10.930  15.549  66.102  1.00  0.00    -0.247 A  
HETATM   12  O   UNL     1     -10.145  18.290  68.467  1.00  0.00    -0.369 OA 
HETATM   13  O   UNL     1      -9.930  17.641  65.659  1.00  0.00    -0.558 OA 
HETATM   14  C   UNL     1     -11.188  16.206  68.805  1.00  0.00    -0.365 A  
ENDBRANCH   2   5
ENDBRANCH   1   2
BRANCH   1  15
HETATM   15  N   UNL     1     -10.417  12.255  67.541  1.00  0.00    -0.211 NA 
HETATM   16  H   UNL     1     -10.005  13.169  67.732  1.00  0.00     0.000 HD 
BRANCH  15  17
HETATM   17  C   UNL     1     -10.116  11.316  68.345  1.00  0.00    -0.195 C  
HETATM   18  H   UNL     1      -8.662  10.300  69.355  1.00  0.00     0.000 HD 
HETATM   19  O   UNL     1      -8.887  11.001  68.754  1.00  0.00    -0.161 OA 
BRANCH  17  20
HETATM   20  C   UNL     1     -11.198  10.435  68.917  1.00  0.00    -0.290 C  
BRANCH  20  21
HETATM   21  C   UNL     1     -12.216  11.213  69.744  1.00  0.00    -0.369 C  
BRANCH  21  22
HETATM   22  C   UNL     1     -12.450  10.614  71.133  1.00  0.00    -0.523 C  
BRANCH  22  23
HETATM   23  C   UNL     1     -11.434   9.510  71.429  1.00  0.00    -0.462 C  
BRANCH  23  24
HETATM   24  C   UNL     1     -12.042   8.394  72.279  1.00  0.00    -0.456 C  
BRANCH  24  25
HETATM   25  C   UNL     1     -10.956   7.625  73.033  1.00  0.00    -0.457 C  
HETATM   26  C   UNL     1      -9.564   8.062  72.608  1.00  0.00    -0.327 C  
ENDBRANCH  24  25
ENDBRANCH  23  24
ENDBRANCH  22  23
ENDBRANCH  21  22
ENDBRANCH  20  21
ENDBRANCH  17  20
ENDBRANCH  15  17
ENDBRANCH   1  15
BRANCH   1  27
HETATM   27  C   UNL     1     -10.296  12.045  65.161  1.00  0.00    -0.276 C  
BRANCH  27  28
HETATM   28  N   UNL     1     -10.284  10.875  64.249  1.00  0.00    -0.344 NA 
HETATM   29  C   UNL     1      -9.441   9.804  64.831  1.00  0.00    -0.265 C  
HETATM   30  C   UNL     1      -9.696  11.192  62.947  1.00  0.00    -0.320 C  
HETATM   31  C   UNL     1      -8.630   9.180  63.704  1.00  0.00    -0.180 C  
HETATM   32  C   UNL     1      -9.046   9.916  62.451  1.00  0.00    -0.308 C  
ENDBRANCH  27  28
ENDBRANCH   1  27
TORSDOF 12
ENDMDL
MODEL       67
REMARK 921   NORMALIZED FREE ENERGY PREDICTED BY IDOCK:   -5.42 KCAL/MOL
REMARK 922        TOTAL FREE ENERGY PREDICTED BY IDOCK:  -11.28 KCAL/MOL
REMARK 923 INTER-LIGAND FREE ENERGY PREDICTED BY IDOCK:   -9.06 KCAL/MOL
REMARK 924 INTRA-LIGAND FREE ENERGY PREDICTED BY IDOCK:   -2.22 KCAL/MOL
REMARK 927      BINDING AFFINITY PREDICTED BY RF-SCORE:    0.00 PKD
ROOT
HETATM    1  C   UNL     1      -8.304  15.804  67.811  1.00  0.00    -0.154 C  
ENDROOT
BRANCH   1   2
HETATM    2  C   UNL     1      -9.737  15.446  68.325  1.00  0.00    -0.209 C  
HETATM    3  O   UNL     1      -9.685  14.695  69.545  1.00  0.00    -0.416 OA 
HETATM    4  H   UNL     1     -10.556  14.477  69.858  1.00  0.00     0.000 HD 
BRANCH   2   5
HETATM    5  C   UNL     1     -10.597  14.738  67.275  1.00  0.00    -0.273 A  
HETATM    6  C   UNL     1     -10.625  12.069  63.466  1.00  0.00    -0.465 C  
HETATM    7  C   UNL     1     -10.752  13.672  65.089  1.00  0.00    -0.353 A  
HETATM    8  C   UNL     1     -11.910  14.304  67.536  1.00  0.00    -0.429 A  
HETATM    9  C   UNL     1     -12.058  13.259  65.357  1.00  0.00    -0.422 A  
HETATM   10  C   UNL     1     -12.127  12.193  63.272  1.00  0.00    -0.409 C  
HETATM   11  C   UNL     1     -10.041  14.440  66.015  1.00  0.00    -0.338 A  
HETATM   12  O   UNL     1     -12.802  12.486  64.503  1.00  0.00    -0.701 OA 
HETATM   13  O   UNL     1     -10.088  13.308  63.944  1.00  0.00    -0.274 OA 
HETATM   14  C   UNL     1     -12.643  13.594  66.575  1.00  0.00    -0.225 A  
ENDBRANCH   2   5
ENDBRANCH   1   2
BRANCH   1  15
HETATM   15  N   UNL     1      -7.349  14.859  68.415  1.00  0.00    -0.108 NA 
HETATM   16  H   UNL     1      -7.434  14.704  69.420  1.00  0.00     0.000 HD 
BRANCH  15  17
HETATM   17  C   UNL     1      -6.429  14.215  67.817  1.00  0.00    -0.168 C  
HETATM   18  H   UNL     1      -4.526  14.198  67.077  1.00  0.00     0.000 HD 
HETATM   19  O   UNL     1      -5.213  14.679  67.524  1.00  0.00    -0.335 OA 
BRANCH  17  20
HETATM   20  C   UNL     1      -6.671  12.798  67.361  1.00  0.00    -0.138 C  
BRANCH  20  21
HETATM   21  C   UNL     1      -7.618  12.037  68.282  1.00  0.00    -0.117 C  
BRANCH  21  22
HETATM   22  C   UNL     1      -8.406  10.938  67.565  1.00  0.00    -0.117 C  
BRANCH  22  23
HETATM   23  C   UNL     1      -9.516  10.389  68.462  1.00  0.00    -0.159 C  
BRANCH  23  24
HETATM   24  C   UNL     1     -10.546  11.463  68.812  1.00  0.00    -0.235 C  
BRANCH  24  25
HETATM   25  C   UNL     1     -11.845  10.835  69.319  1.00  0.00    -0.359 C  
HETATM   26  C   UNL     1     -12.204  11.338  70.707  1.00  0.00    -0.479 C  
ENDBRANCH  24  25
ENDBRANCH  23  24
ENDBRANCH  22  23
ENDBRANCH  21  22
ENDBRANCH  20  21
ENDBRANCH  17  20
ENDBRANCH  15  17
ENDBRANCH   1  15
BRANCH   1  27
HETATM   27  C   UNL     1      -7.736  17.211  68.211  1.00  0.00    -0.220 C  
BRANCH  27  28
HETATM   28  N   UNL     1      -8.228  18.469  67.599  1.00  0.00    -0.252 NA 
HETATM   29  C   UNL     1      -9.139  19.155  68.545  1.00  0.00    -0.371 C  
HETATM   30  C   UNL     1      -9.009  18.228  66.385  1.00  0.00    -0.243 C  
HETATM   31  C   UNL     1     -10.309  19.714  67.748  1.00  0.00    -0.586 C  
HETATM   32  C   UNL     1     -10.034  19.342  66.310  1.00  0.00    -0.509 C  
ENDBRANCH  27  28
ENDBRANCH   1  27
TORSDOF 12
ENDMDL
MODEL       68
REMARK 921   NORMALIZED FREE ENERGY PREDICTED BY IDOCK:   -5.41 KCAL/MOL
REMARK 922        TOTAL FREE ENERGY PREDICTED BY IDOCK:  -11.26 KCAL/MOL
REMARK 923 INTER-LIGAND FREE ENERGY PREDICTED BY IDOCK:   -9.57 KCAL/MOL
REMARK 924 INTRA-LIGAND FREE ENERGY PREDICTED BY IDOCK:   -1.70 KCAL/MOL
REMARK 927      BINDING AFFINITY PREDICTED BY RF-SCORE:    0.00 PKD
ROOT
HETATM    1  C   UNL     1      -9.804  10.744  68.163  1.00  0.00    -0.158 C  
ENDROOT
BRANCH   1   2
HETATM    2  C   UNL     1     -11.366  10.807  68.214  1.00  0.00    -0.309 C  
HETATM    3  O   UNL     1     -11.907  11.409  67.031  1.00  0.00    -0.530 OA 
HETATM    4  H   UNL     1     -12.856  11.448  67.062  1.00  0.00     0.000 HD 
BRANCH   2   5
HETATM    5  C   UNL     1     -11.903  11.486  69.477  1.00  0.00    -0.419 A  
HETATM    6  C   UNL     1     -13.654  15.380  71.321  1.00  0.00    -0.505 C  
HETATM    7  C   UNL     1     -12.468  13.546  70.650  1.00  0.00    -0.333 A  
HETATM    8  C   UNL     1     -12.506  10.768  70.527  1.00  0.00    -0.447 A  
HETATM    9  C   UNL     1     -13.052  12.820  71.689  1.00  0.00    -0.331 A  
HETATM   10  C   UNL     1     -13.633  14.833  72.739  1.00  0.00    -0.440 C  
HETATM   11  C   UNL     1     -11.860  12.891  69.575  1.00  0.00    -0.383 A  
HETATM   12  O   UNL     1     -13.684  13.400  72.759  1.00  0.00    -0.697 OA 
HETATM   13  O   UNL     1     -12.506  14.917  70.600  1.00  0.00    -0.309 OA 
HETATM   14  C   UNL     1     -13.053  11.429  71.635  1.00  0.00    -0.498 A  
ENDBRANCH   2   5
ENDBRANCH   1   2
BRANCH   1  15
HETATM   15  N   UNL     1      -9.293  10.847  69.540  1.00  0.00    -0.396 NA 
HETATM   16  H   UNL     1      -9.599  11.657  70.081  1.00  0.00     0.000 HD 
BRANCH  15  17
HETATM   17  C   UNL     1      -8.512  10.033  70.129  1.00  0.00    -0.017 C  
HETATM   18  H   UNL     1      -6.617   9.589  70.744  1.00  0.00     0.000 HD 
HETATM   19  O   UNL     1      -7.201  10.197  70.305  1.00  0.00    -0.153 OA 
BRANCH  17  20
HETATM   20  C   UNL     1      -9.049   8.741  70.692  1.00  0.00    -0.221 C  
BRANCH  20  21
HETATM   21  C   UNL     1      -9.919   8.954  71.927  1.00  0.00    -0.384 C  
BRANCH  21  22
HETATM   22  C   UNL     1     -10.132   7.677  72.742  1.00  0.00    -0.311 C  
BRANCH  22  23
HETATM   23  C   UNL     1     -11.150   6.759  72.062  1.00  0.00    -0.283 C  
BRANCH  23  24
HETATM   24  C   UNL     1     -10.569   5.373  71.787  1.00  0.00    -0.286 C  
BRANCH  24  25
HETATM   25  C   UNL     1     -10.219   5.207  70.308  1.00  0.00    -0.342 C  
HETATM   26  C   UNL     1     -11.067   6.110  69.428  1.00  0.00    -0.479 C  
ENDBRANCH  24  25
ENDBRANCH  23  24
ENDBRANCH  22  23
ENDBRANCH  21  22
ENDBRANCH  20  21
ENDBRANCH  17  20
ENDBRANCH  15  17
ENDBRANCH   1  15
BRANCH   1  27
HETATM   27  C   UNL     1      -9.069  11.906  67.407  1.00  0.00    -0.178 C  
BRANCH  27  28
HETATM   28  N   UNL     1      -9.523  13.316  67.485  1.00  0.00    -0.212 NA 
HETATM   29  C   UNL     1      -9.683  13.858  66.115  1.00  0.00    -0.272 C  
HETATM   30  C   UNL     1      -8.547  14.178  68.152  1.00  0.00    -0.175 C  
HETATM   31  C   UNL     1      -9.149  15.284  66.110  1.00  0.00    -0.314 C  
HETATM   32  C   UNL     1      -8.692  15.550  67.526  1.00  0.00    -0.183 C  
ENDBRANCH  27  28
ENDBRANCH   1  27
TORSDOF 12
ENDMDL
MODEL       69
REMARK 921   NORMALIZED FREE ENERGY PREDICTED BY IDOCK:   -5.41 KCAL/MOL
REMARK 922        TOTAL FREE ENERGY PREDICTED BY IDOCK:  -11.26 KCAL/MOL
REMARK 923 INTER-LIGAND FREE ENERGY PREDICTED BY IDOCK:  -10.11 KCAL/MOL
REMARK 924 INTRA-LIGAND FREE ENERGY PREDICTED BY IDOCK:   -1.15 KCAL/MOL
REMARK 927      BINDING AFFINITY PREDICTED BY RF-SCORE:    0.00 PKD
ROOT
HETATM    1  C   UNL     1     -11.005  14.417  68.526  1.00  0.00    -0.251 C  
ENDROOT
BRANCH   1   2
HETATM    2  C   UNL     1     -11.085  15.430  67.336  1.00  0.00    -0.311 C  
HETATM    3  O   UNL     1     -10.921  14.771  66.073  1.00  0.00    -0.316 OA 
HETATM    4  H   UNL     1     -10.969  15.387  65.351  1.00  0.00     0.000 HD 
BRANCH   2   5
HETATM    5  C   UNL     1     -10.117  16.607  67.478  1.00  0.00    -0.273 A  
HETATM    6  C   UNL     1      -6.989  19.313  65.351  1.00  0.00    -0.166 C  
HETATM    7  C   UNL     1      -8.206  17.844  66.609  1.00  0.00    -0.258 A  
HETATM    8  C   UNL     1     -10.309  17.639  68.416  1.00  0.00    -0.375 A  
HETATM    9  C   UNL     1      -8.401  18.854  67.552  1.00  0.00    -0.273 A  
HETATM   10  C   UNL     1      -6.598  20.033  66.632  1.00  0.00    -0.207 C  
HETATM   11  C   UNL     1      -9.023  16.711  66.595  1.00  0.00    -0.285 A  
HETATM   12  O   UNL     1      -7.650  20.000  67.606  1.00  0.00    -0.274 OA 
HETATM   13  O   UNL     1      -7.251  17.932  65.626  1.00  0.00    -0.514 OA 
HETATM   14  C   UNL     1      -9.443  18.740  68.469  1.00  0.00    -0.400 A  
ENDBRANCH   2   5
ENDBRANCH   1   2
BRANCH   1  15
HETATM   15  N   UNL     1     -11.071  13.053  67.974  1.00  0.00    -0.248 NA 
HETATM   16  H   UNL     1     -11.338  12.971  66.992  1.00  0.00     0.000 HD 
BRANCH  15  17
HETATM   17  C   UNL     1     -10.829  11.966  68.590  1.00  0.00    -0.235 C  
HETATM   18  H   UNL     1      -9.441  10.647  69.296  1.00  0.00     0.000 HD 
HETATM   19  O   UNL     1      -9.621  11.459  68.836  1.00  0.00    -0.170 OA 
BRANCH  17  20
HETATM   20  C   UNL     1     -11.966  11.122  69.108  1.00  0.00    -0.413 C  
BRANCH  20  21
HETATM   21  C   UNL     1     -11.982  11.025  70.630  1.00  0.00    -0.464 C  
BRANCH  21  22
HETATM   22  C   UNL     1     -13.097  10.124  71.166  1.00  0.00    -0.480 C  
BRANCH  22  23
HETATM   23  C   UNL     1     -12.515   8.923  71.915  1.00  0.00    -0.445 C  
BRANCH  23  24
HETATM   24  C   UNL     1     -10.987   8.921  71.882  1.00  0.00    -0.439 C  
BRANCH  24  25
HETATM   25  C   UNL     1     -10.448   7.550  71.474  1.00  0.00    -0.226 C  
HETATM   26  C   UNL     1     -11.423   6.812  70.573  1.00  0.00    -0.413 C  
ENDBRANCH  24  25
ENDBRANCH  23  24
ENDBRANCH  22  23
ENDBRANCH  21  22
ENDBRANCH  20  21
ENDBRANCH  17  20
ENDBRANCH  15  17
ENDBRANCH   1  15
BRANCH   1  27
HETATM   27  C   UNL     1     -12.176  14.451  69.569  1.00  0.00    -0.282 C  
BRANCH  27  28
HETATM   28  N   UNL     1     -11.938  14.601  71.026  1.00  0.00    -0.325 NA 
HETATM   29  C   UNL     1     -13.167  14.231  71.767  1.00  0.00    -0.367 C  
HETATM   30  C   UNL     1     -11.638  15.984  71.400  1.00  0.00    -0.455 C  
HETATM   31  C   UNL     1     -13.344  15.224  72.907  1.00  0.00    -0.616 C  
HETATM   32  C   UNL     1     -12.168  16.168  72.808  1.00  0.00    -0.628 C  
ENDBRANCH  27  28
ENDBRANCH   1  27
TORSDOF 12
ENDMDL
MODEL       70
REMARK 921   NORMALIZED FREE ENERGY PREDICTED BY IDOCK:   -5.39 KCAL/MOL
REMARK 922        TOTAL FREE ENERGY PREDICTED BY IDOCK:  -11.23 KCAL/MOL
REMARK 923 INTER-LIGAND FREE ENERGY PREDICTED BY IDOCK:   -9.37 KCAL/MOL
REMARK 924 INTRA-LIGAND FREE ENERGY PREDICTED BY IDOCK:   -1.85 KCAL/MOL
REMARK 927      BINDING AFFINITY PREDICTED BY RF-SCORE:    0.00 PKD
ROOT
HETATM    1  C   UNL     1     -10.686   8.816  72.106  1.00  0.00    -0.313 C  
ENDROOT
BRANCH   1   2
HETATM    2  C   UNL     1     -11.999   9.053  71.289  1.00  0.00    -0.312 C  
HETATM    3  O   UNL     1     -12.021   8.265  70.091  1.00  0.00    -0.418 OA 
HETATM    4  H   UNL     1     -12.819   8.408  69.594  1.00  0.00     0.000 HD 
BRANCH   2   5
HETATM    5  C   UNL     1     -12.265  10.530  70.986  1.00  0.00    -0.505 A  
HETATM    6  C   UNL     1     -13.445  14.679  72.723  1.00  0.00    -0.473 C  
HETATM    7  C   UNL     1     -13.229  12.655  71.684  1.00  0.00    -0.298 A  
HETATM    8  C   UNL     1     -11.667  11.201  69.902  1.00  0.00    -0.433 A  
HETATM    9  C   UNL     1     -12.640  13.306  70.598  1.00  0.00    -0.231 A  
HETATM   10  C   UNL     1     -13.536  15.334  71.355  1.00  0.00    -0.505 C  
HETATM   11  C   UNL     1     -13.083  11.276  71.856  1.00  0.00    -0.510 A  
HETATM   12  O   UNL     1     -12.726  14.657  70.384  1.00  0.00    -0.348 OA 
HETATM   13  O   UNL     1     -13.927  13.331  72.654  1.00  0.00    -0.741 OA 
HETATM   14  C   UNL     1     -11.875  12.572  69.696  1.00  0.00    -0.382 A  
ENDBRANCH   2   5
ENDBRANCH   1   2
BRANCH   1  15
HETATM   15  N   UNL     1      -9.612   8.468  71.161  1.00  0.00    -0.177 NA 
HETATM   16  H   UNL     1      -9.804   7.702  70.514  1.00  0.00     0.000 HD 
BRANCH  15  17
HETATM   17  C   UNL     1      -8.470   9.020  71.065  1.00  0.00    -0.203 C  
HETATM   18  H   UNL     1      -6.660   9.418  71.923  1.00  0.00     0.000 HD 
HETATM   19  O   UNL     1      -7.514   9.006  71.994  1.00  0.00    -0.337 OA 
BRANCH  17  20
HETATM   20  C   UNL     1      -8.102   9.785  69.818  1.00  0.00    -0.174 C  
BRANCH  20  21
HETATM   21  C   UNL     1      -9.041   9.497  68.652  1.00  0.00    -0.132 C  
BRANCH  21  22
HETATM   22  C   UNL     1      -8.396   9.734  67.284  1.00  0.00    -0.121 C  
BRANCH  22  23
HETATM   23  C   UNL     1      -8.879  11.051  66.674  1.00  0.00    -0.168 C  
BRANCH  23  24
HETATM   24  C   UNL     1     -10.337  10.967  66.226  1.00  0.00    -0.306 C  
BRANCH  24  25
HETATM   25  C   UNL     1     -10.679  12.095  65.251  1.00  0.00    -0.328 C  
HETATM   26  C   UNL     1     -12.087  12.620  65.475  1.00  0.00    -0.515 C  
ENDBRANCH  24  25
ENDBRANCH  23  24
ENDBRANCH  22  23
ENDBRANCH  21  22
ENDBRANCH  20  21
ENDBRANCH  17  20
ENDBRANCH  15  17
ENDBRANCH   1  15
BRANCH   1  27
HETATM   27  C   UNL     1     -10.687   7.621  73.123  1.00  0.00    -0.387 C  
BRANCH  27  28
HETATM   28  N   UNL     1     -10.279   6.249  72.736  1.00  0.00    -0.181 NA 
HETATM   29  C   UNL     1     -11.457   5.352  72.785  1.00  0.00    -0.268 C  
HETATM   30  C   UNL     1      -9.297   5.681  73.661  1.00  0.00    -0.137 C  
HETATM   31  C   UNL     1     -11.013   4.026  73.388  1.00  0.00    -0.342 C  
HETATM   32  C   UNL     1      -9.537   4.184  73.671  1.00  0.00    -0.128 C  
ENDBRANCH  27  28
ENDBRANCH   1  27
TORSDOF 12
ENDMDL
MODEL       71
REMARK 921   NORMALIZED FREE ENERGY PREDICTED BY IDOCK:   -5.38 KCAL/MOL
REMARK 922        TOTAL FREE ENERGY PREDICTED BY IDOCK:  -11.21 KCAL/MOL
REMARK 923 INTER-LIGAND FREE ENERGY PREDICTED BY IDOCK:   -9.74 KCAL/MOL
REMARK 924 INTRA-LIGAND FREE ENERGY PREDICTED BY IDOCK:   -1.47 KCAL/MOL
REMARK 927      BINDING AFFINITY PREDICTED BY RF-SCORE:    0.00 PKD
ROOT
HETATM    1  C   UNL     1     -12.164  13.890  69.710  1.00  0.00    -0.332 C  
ENDROOT
BRANCH   1   2
HETATM    2  C   UNL     1     -11.626  15.225  70.322  1.00  0.00    -0.301 C  
HETATM    3  O   UNL     1     -12.697  16.090  70.722  1.00  0.00    -0.550 OA 
HETATM    4  H   UNL     1     -12.370  16.901  71.094  1.00  0.00     0.000 HD 
BRANCH   2   5
HETATM    5  C   UNL     1     -10.637  15.954  69.408  1.00  0.00    -0.263 A  
HETATM    6  C   UNL     1      -9.819  19.749  66.848  1.00  0.00    -0.400 C  
HETATM    7  C   UNL     1     -10.231  17.689  67.747  1.00  0.00    -0.354 A  
HETATM    8  C   UNL     1      -9.245  15.761  69.490  1.00  0.00    -0.215 A  
HETATM    9  C   UNL     1      -8.854  17.479  67.829  1.00  0.00    -0.241 A  
HETATM   10  C   UNL     1      -8.519  19.204  66.280  1.00  0.00    -0.304 C  
HETATM   11  C   UNL     1     -11.119  16.909  68.492  1.00  0.00    -0.213 A  
HETATM   12  O   UNL     1      -7.929  18.223  67.144  1.00  0.00    -0.215 OA 
HETATM   13  O   UNL     1     -10.776  18.692  66.984  1.00  0.00    -0.408 OA 
HETATM   14  C   UNL     1      -8.363  16.499  68.688  1.00  0.00    -0.235 A  
ENDBRANCH   2   5
ENDBRANCH   1   2
BRANCH   1  15
HETATM   15  N   UNL     1     -12.095  12.847  70.748  1.00  0.00    -0.492 NA 
HETATM   16  H   UNL     1     -11.230  12.308  70.795  1.00  0.00     0.000 HD 
BRANCH  15  17
HETATM   17  C   UNL     1     -12.999  12.547  71.591  1.00  0.00    -0.302 C  
HETATM   18  H   UNL     1     -14.525  13.176  72.792  1.00  0.00     0.000 HD 
HETATM   19  O   UNL     1     -13.850  13.400  72.162  1.00  0.00    -0.509 OA 
BRANCH  17  20
HETATM   20  C   UNL     1     -13.173  11.117  72.038  1.00  0.00    -0.428 C  
BRANCH  20  21
HETATM   21  C   UNL     1     -12.721  10.112  70.984  1.00  0.00    -0.481 C  
BRANCH  21  22
HETATM   22  C   UNL     1     -11.407   9.412  71.340  1.00  0.00    -0.451 C  
BRANCH  22  23
HETATM   23  C   UNL     1     -11.657   8.227  72.275  1.00  0.00    -0.449 C  
BRANCH  23  24
HETATM   24  C   UNL     1     -12.472   7.129  71.592  1.00  0.00    -0.405 C  
BRANCH  24  25
HETATM   25  C   UNL     1     -11.715   6.543  70.400  1.00  0.00    -0.439 C  
HETATM   26  C   UNL     1     -10.476   5.783  70.842  1.00  0.00    -0.317 C  
ENDBRANCH  24  25
ENDBRANCH  23  24
ENDBRANCH  22  23
ENDBRANCH  21  22
ENDBRANCH  20  21
ENDBRANCH  17  20
ENDBRANCH  15  17
ENDBRANCH   1  15
BRANCH   1  27
HETATM   27  C   UNL     1     -11.354  13.278  68.514  1.00  0.00    -0.284 C  
BRANCH  27  28
HETATM   28  N   UNL     1     -10.701  11.949  68.595  1.00  0.00    -0.228 NA 
HETATM   29  C   UNL     1      -9.312  12.050  68.086  1.00  0.00    -0.199 C  
HETATM   30  C   UNL     1     -11.368  10.950  67.759  1.00  0.00    -0.292 C  
HETATM   31  C   UNL     1      -9.027  10.810  67.251  1.00  0.00    -0.143 C  
HETATM   32  C   UNL     1     -10.291   9.983  67.309  1.00  0.00    -0.293 C  
ENDBRANCH  27  28
ENDBRANCH   1  27
TORSDOF 12
ENDMDL
MODEL       72
REMARK 921   NORMALIZED FREE ENERGY PREDICTED BY IDOCK:   -5.38 KCAL/MOL
REMARK 922        TOTAL FREE ENERGY PREDICTED BY IDOCK:  -11.21 KCAL/MOL
REMARK 923 INTER-LIGAND FREE ENERGY PREDICTED BY IDOCK:   -9.05 KCAL/MOL
REMARK 924 INTRA-LIGAND FREE ENERGY PREDICTED BY IDOCK:   -2.17 KCAL/MOL
REMARK 927      BINDING AFFINITY PREDICTED BY RF-SCORE:    0.00 PKD
ROOT
HETATM    1  C   UNL     1     -11.183  14.079  68.262  1.00  0.00    -0.268 C  
ENDROOT
BRANCH   1   2
HETATM    2  C   UNL     1     -11.733  14.313  69.708  1.00  0.00    -0.309 C  
HETATM    3  O   UNL     1     -10.786  15.016  70.523  1.00  0.00    -0.453 OA 
HETATM    4  H   UNL     1     -11.120  15.159  71.401  1.00  0.00     0.000 HD 
BRANCH   2   5
HETATM    5  C   UNL     1     -12.206  13.028  70.391  1.00  0.00    -0.386 A  
HETATM    6  C   UNL     1     -11.352   8.521  71.156  1.00  0.00    -0.270 C  
HETATM    7  C   UNL     1     -12.090  10.600  70.562  1.00  0.00    -0.355 A  
HETATM    8  C   UNL     1     -12.990  13.034  71.560  1.00  0.00    -0.398 A  
HETATM    9  C   UNL     1     -12.878  10.620  71.714  1.00  0.00    -0.444 A  
HETATM   10  C   UNL     1     -12.675   8.292  71.869  1.00  0.00    -0.342 C  
HETATM   11  C   UNL     1     -11.791  11.782  69.880  1.00  0.00    -0.423 A  
HETATM   12  O   UNL     1     -13.188   9.502  72.443  1.00  0.00    -0.431 OA 
HETATM   13  O   UNL     1     -11.531   9.444  70.076  1.00  0.00    -0.194 OA 
HETATM   14  C   UNL     1     -13.344  11.839  72.201  1.00  0.00    -0.334 A  
ENDBRANCH   2   5
ENDBRANCH   1   2
BRANCH   1  15
HETATM   15  N   UNL     1      -9.909  14.807  68.131  1.00  0.00    -0.217 NA 
HETATM   16  H   UNL     1      -9.787  15.624  68.731  1.00  0.00     0.000 HD 
BRANCH  15  17
HETATM   17  C   UNL     1      -8.945  14.525  67.351  1.00  0.00    -0.200 C  
HETATM   18  H   UNL     1      -7.907  14.968  65.650  1.00  0.00     0.000 HD 
HETATM   19  O   UNL     1      -8.627  15.179  66.233  1.00  0.00    -0.203 OA 
BRANCH  17  20
HETATM   20  C   UNL     1      -8.046  13.352  67.652  1.00  0.00    -0.175 C  
BRANCH  20  21
HETATM   21  C   UNL     1      -8.277  12.175  66.709  1.00  0.00    -0.085 C  
BRANCH  21  22
HETATM   22  C   UNL     1      -8.148  10.815  67.398  1.00  0.00    -0.112 C  
BRANCH  22  23
HETATM   23  C   UNL     1      -9.505  10.115  67.482  1.00  0.00    -0.172 C  
BRANCH  23  24
HETATM   24  C   UNL     1      -9.571   8.893  66.567  1.00  0.00    -0.297 C  
BRANCH  24  25
HETATM   25  C   UNL     1     -10.653   7.917  67.030  1.00  0.00    -0.381 C  
HETATM   26  C   UNL     1     -10.097   6.883  67.995  1.00  0.00    -0.193 C  
ENDBRANCH  24  25
ENDBRANCH  23  24
ENDBRANCH  22  23
ENDBRANCH  21  22
ENDBRANCH  20  21
ENDBRANCH  17  20
ENDBRANCH  15  17
ENDBRANCH   1  15
BRANCH   1  27
HETATM   27  C   UNL     1     -12.047  14.629  67.074  1.00  0.00    -0.186 C  
BRANCH  27  28
HETATM   28  N   UNL     1     -12.434  13.786  65.917  1.00  0.00    -0.472 NA 
HETATM   29  C   UNL     1     -11.819  12.444  66.056  1.00  0.00    -0.395 C  
HETATM   30  C   UNL     1     -11.946  14.327  64.648  1.00  0.00    -0.455 C  
HETATM   31  C   UNL     1     -11.328  12.008  64.682  1.00  0.00    -0.377 C  
HETATM   32  C   UNL     1     -11.695  13.136  63.745  1.00  0.00    -0.519 C  
ENDBRANCH  27  28
ENDBRANCH   1  27
TORSDOF 12
ENDMDL
MODEL       73
REMARK 921   NORMALIZED FREE ENERGY PREDICTED BY IDOCK:   -5.37 KCAL/MOL
REMARK 922        TOTAL FREE ENERGY PREDICTED BY IDOCK:  -11.19 KCAL/MOL
REMARK 923 INTER-LIGAND FREE ENERGY PREDICTED BY IDOCK:  -10.06 KCAL/MOL
REMARK 924 INTRA-LIGAND FREE ENERGY PREDICTED BY IDOCK:   -1.13 KCAL/MOL
REMARK 927      BINDING AFFINITY PREDICTED BY RF-SCORE:    0.00 PKD
ROOT
HETATM    1  C   UNL     1     -11.040  10.120  69.411  1.00  0.00    -0.243 C  
ENDROOT
BRANCH   1   2
HETATM    2  C   UNL     1     -10.280  11.360  68.835  1.00  0.00    -0.168 C  
HETATM    3  O   UNL     1     -10.727  12.579  69.443  1.00  0.00    -0.442 OA 
HETATM    4  H   UNL     1     -10.265  13.332  69.094  1.00  0.00     0.000 HD 
BRANCH   2   5
HETATM    5  C   UNL     1     -10.338  11.449  67.308  1.00  0.00    -0.230 A  
HETATM    6  C   UNL     1      -8.861   9.664  63.275  1.00  0.00    -0.238 C  
HETATM    7  C   UNL     1      -9.363  10.867  65.152  1.00  0.00    -0.218 A  
HETATM    8  C   UNL     1     -11.448  11.974  66.620  1.00  0.00    -0.411 A  
HETATM    9  C   UNL     1     -10.464  11.402  64.483  1.00  0.00    -0.322 A  
HETATM   10  C   UNL     1      -9.512  10.757  62.442  1.00  0.00    -0.189 C  
HETATM   11  C   UNL     1      -9.275  10.926  66.546  1.00  0.00    -0.189 A  
HETATM   12  O   UNL     1     -10.623  11.356  63.122  1.00  0.00    -0.319 OA 
HETATM   13  O   UNL     1      -8.348  10.216  64.494  1.00  0.00    -0.155 OA 
HETATM   14  C   UNL     1     -11.499  11.974  65.219  1.00  0.00    -0.358 A  
ENDBRANCH   2   5
ENDBRANCH   1   2
BRANCH   1  15
HETATM   15  N   UNL     1     -12.365  10.567  69.875  1.00  0.00    -0.513 NA 
HETATM   16  H   UNL     1     -12.834  11.272  69.306  1.00  0.00     0.000 HD 
BRANCH  15  17
HETATM   17  C   UNL     1     -12.986  10.167  70.911  1.00  0.00    -0.351 C  
HETATM   18  H   UNL     1     -13.964   8.651  71.867  1.00  0.00     0.000 HD 
HETATM   19  O   UNL     1     -13.499   8.949  71.094  1.00  0.00    -0.213 OA 
BRANCH  17  20
HETATM   20  C   UNL     1     -13.208  11.106  72.070  1.00  0.00    -0.428 C  
BRANCH  20  21
HETATM   21  C   UNL     1     -13.101  12.573  71.669  1.00  0.00    -0.414 C  
BRANCH  21  22
HETATM   22  C   UNL     1     -14.077  13.479  72.422  1.00  0.00    -0.563 C  
BRANCH  22  23
HETATM   23  C   UNL     1     -13.936  14.932  71.966  1.00  0.00    -0.591 C  
BRANCH  23  24
HETATM   24  C   UNL     1     -13.361  15.819  73.069  1.00  0.00    -0.679 C  
BRANCH  24  25
HETATM   25  C   UNL     1     -11.968  16.328  72.695  1.00  0.00    -0.644 C  
HETATM   26  C   UNL     1     -11.580  15.912  71.286  1.00  0.00    -0.509 C  
ENDBRANCH  24  25
ENDBRANCH  23  24
ENDBRANCH  22  23
ENDBRANCH  21  22
ENDBRANCH  20  21
ENDBRANCH  17  20
ENDBRANCH  15  17
ENDBRANCH   1  15
BRANCH   1  27
HETATM   27  C   UNL     1     -10.419   9.428  70.674  1.00  0.00    -0.290 C  
BRANCH  27  28
HETATM   28  N   UNL     1      -9.995   8.006  70.673  1.00  0.00    -0.189 NA 
HETATM   29  C   UNL     1     -10.459   7.354  69.426  1.00  0.00    -0.217 C  
HETATM   30  C   UNL     1     -10.592   7.249  71.774  1.00  0.00    -0.205 C  
HETATM   31  C   UNL     1     -10.959   5.961  69.783  1.00  0.00    -0.452 C  
HETATM   32  C   UNL     1     -10.754   5.827  71.274  1.00  0.00    -0.323 C  
ENDBRANCH  27  28
ENDBRANCH   1  27
TORSDOF 12
ENDMDL
MODEL       74
REMARK 921   NORMALIZED FREE ENERGY PREDICTED BY IDOCK:   -5.37 KCAL/MOL
REMARK 922        TOTAL FREE ENERGY PREDICTED BY IDOCK:  -11.18 KCAL/MOL
REMARK 923 INTER-LIGAND FREE ENERGY PREDICTED BY IDOCK:   -9.92 KCAL/MOL
REMARK 924 INTRA-LIGAND FREE ENERGY PREDICTED BY IDOCK:   -1.27 KCAL/MOL
REMARK 927      BINDING AFFINITY PREDICTED BY RF-SCORE:    0.00 PKD
ROOT
HETATM    1  C   UNL     1     -11.172  15.198  67.993  1.00  0.00    -0.323 C  
ENDROOT
BRANCH   1   2
HETATM    2  C   UNL     1     -11.979  15.481  69.302  1.00  0.00    -0.316 C  
HETATM    3  O   UNL     1     -11.291  16.408  70.153  1.00  0.00    -0.412 OA 
HETATM    4  H   UNL     1     -11.781  16.580  70.949  1.00  0.00     0.000 HD 
BRANCH   2   5
HETATM    5  C   UNL     1     -12.363  14.210  70.064  1.00  0.00    -0.403 A  
HETATM    6  C   UNL     1     -11.225   9.813  71.063  1.00  0.00    -0.381 C  
HETATM    7  C   UNL     1     -12.097  11.807  70.367  1.00  0.00    -0.352 A  
HETATM    8  C   UNL     1     -13.130  14.235  71.244  1.00  0.00    -0.425 A  
HETATM    9  C   UNL     1     -12.869  11.845  71.529  1.00  0.00    -0.316 A  
HETATM   10  C   UNL     1     -12.522   9.545  71.809  1.00  0.00    -0.401 C  
HETATM   11  C   UNL     1     -11.880  12.965  69.615  1.00  0.00    -0.387 A  
HETATM   12  O   UNL     1     -13.101  10.752  72.324  1.00  0.00    -0.383 OA 
HETATM   13  O   UNL     1     -11.475  10.662  69.936  1.00  0.00    -0.266 OA 
HETATM   14  C   UNL     1     -13.402  13.058  71.956  1.00  0.00    -0.588 A  
ENDBRANCH   2   5
ENDBRANCH   1   2
BRANCH   1  15
HETATM   15  N   UNL     1     -10.665  16.481  67.478  1.00  0.00    -0.311 NA 
HETATM   16  H   UNL     1     -10.834  17.304  68.057  1.00  0.00     0.000 HD 
BRANCH  15  17
HETATM   17  C   UNL     1     -10.037  16.673  66.388  1.00  0.00    -0.315 C  
HETATM   18  H   UNL     1     -10.082  17.327  64.455  1.00  0.00     0.000 HD 
HETATM   19  O   UNL     1     -10.551  17.184  65.269  1.00  0.00    -0.662 OA 
BRANCH  17  20
HETATM   20  C   UNL     1      -8.579  16.301  66.279  1.00  0.00    -0.374 C  
BRANCH  20  21
HETATM   21  C   UNL     1      -7.930  16.060  67.637  1.00  0.00    -0.160 C  
BRANCH  21  22
HETATM   22  C   UNL     1      -7.060  14.801  67.676  1.00  0.00    -0.206 C  
BRANCH  22  23
HETATM   23  C   UNL     1      -7.602  13.794  68.691  1.00  0.00    -0.125 C  
BRANCH  23  24
HETATM   24  C   UNL     1      -8.589  12.819  68.050  1.00  0.00    -0.186 C  
BRANCH  24  25
HETATM   25  C   UNL     1      -8.013  11.403  68.006  1.00  0.00    -0.127 C  
HETATM   26  C   UNL     1      -8.074  10.818  66.605  1.00  0.00    -0.142 C  
ENDBRANCH  24  25
ENDBRANCH  23  24
ENDBRANCH  22  23
ENDBRANCH  21  22
ENDBRANCH  20  21
ENDBRANCH  17  20
ENDBRANCH  15  17
ENDBRANCH   1  15
BRANCH   1  27
HETATM   27  C   UNL     1     -11.969  14.601  66.781  1.00  0.00    -0.276 C  
BRANCH  27  28
HETATM   28  N   UNL     1     -11.313  13.817  65.706  1.00  0.00    -0.301 NA 
HETATM   29  C   UNL     1     -11.968  14.112  64.410  1.00  0.00    -0.457 C  
HETATM   30  C   UNL     1     -11.448  12.374  65.911  1.00  0.00    -0.374 C  
HETATM   31  C   UNL     1     -12.096  12.805  63.641  1.00  0.00    -0.624 C  
HETATM   32  C   UNL     1     -11.480  11.750  64.530  1.00  0.00    -0.322 C  
ENDBRANCH  27  28
ENDBRANCH   1  27
TORSDOF 12
ENDMDL
MODEL       75
REMARK 921   NORMALIZED FREE ENERGY PREDICTED BY IDOCK:   -5.36 KCAL/MOL
REMARK 922        TOTAL FREE ENERGY PREDICTED BY IDOCK:  -11.18 KCAL/MOL
REMARK 923 INTER-LIGAND FREE ENERGY PREDICTED BY IDOCK:  -10.02 KCAL/MOL
REMARK 924 INTRA-LIGAND FREE ENERGY PREDICTED BY IDOCK:   -1.16 KCAL/MOL
REMARK 927      BINDING AFFINITY PREDICTED BY RF-SCORE:    0.00 PKD
ROOT
HETATM    1  C   UNL     1     -11.309  13.032  67.092  1.00  0.00    -0.305 C  
ENDROOT
BRANCH   1   2
HETATM    2  C   UNL     1     -11.552  12.832  65.560  1.00  0.00    -0.362 C  
HETATM    3  O   UNL     1     -12.920  12.505  65.283  1.00  0.00    -0.588 OA 
HETATM    4  H   UNL     1     -13.068  12.383  64.352  1.00  0.00     0.000 HD 
BRANCH   2   5
HETATM    5  C   UNL     1     -10.599  11.816  64.924  1.00  0.00    -0.344 A  
HETATM    6  C   UNL     1      -8.332   7.790  65.453  1.00  0.00    -0.136 C  
HETATM    7  C   UNL     1      -9.074   9.937  65.205  1.00  0.00    -0.211 A  
HETATM    8  C   UNL     1     -10.494  11.643  63.531  1.00  0.00    -0.498 A  
HETATM    9  C   UNL     1      -8.970   9.785  63.822  1.00  0.00    -0.240 A  
HETATM   10  C   UNL     1      -7.563   7.941  64.151  1.00  0.00    -0.112 C  
HETATM   11  C   UNL     1      -9.843  10.966  65.755  1.00  0.00    -0.286 A  
HETATM   12  O   UNL     1      -8.252   8.785  63.219  1.00  0.00    -0.170 OA 
HETATM   13  O   UNL     1      -8.481   9.067  66.086  1.00  0.00    -0.119 OA 
HETATM   14  C   UNL     1      -9.666  10.653  62.985  1.00  0.00    -0.362 A  
ENDBRANCH   2   5
ENDBRANCH   1   2
BRANCH   1  15
HETATM   15  N   UNL     1     -12.005  11.952  67.813  1.00  0.00    -0.573 NA 
HETATM   16  H   UNL     1     -12.886  11.630  67.412  1.00  0.00     0.000 HD 
BRANCH  15  17
HETATM   17  C   UNL     1     -11.623  11.378  68.883  1.00  0.00    -0.323 C  
HETATM   18  H   UNL     1     -10.073  10.768  70.063  1.00  0.00     0.000 HD 
HETATM   19  O   UNL     1     -10.358  11.197  69.264  1.00  0.00    -0.203 OA 
BRANCH  17  20
HETATM   20  C   UNL     1     -12.641  10.820  69.846  1.00  0.00    -0.199 C  
BRANCH  20  21
HETATM   21  C   UNL     1     -12.523  11.422  71.242  1.00  0.00    -0.423 C  
BRANCH  21  22
HETATM   22  C   UNL     1     -12.642  12.947  71.254  1.00  0.00    -0.352 C  
BRANCH  22  23
HETATM   23  C   UNL     1     -13.620  13.409  72.335  1.00  0.00    -0.708 C  
BRANCH  23  24
HETATM   24  C   UNL     1     -13.999  14.880  72.167  1.00  0.00    -0.598 C  
BRANCH  24  25
HETATM   25  C   UNL     1     -12.968  15.793  72.832  1.00  0.00    -0.600 C  
HETATM   26  C   UNL     1     -12.514  15.239  74.172  1.00  0.00    -0.739 C  
ENDBRANCH  24  25
ENDBRANCH  23  24
ENDBRANCH  22  23
ENDBRANCH  21  22
ENDBRANCH  20  21
ENDBRANCH  17  20
ENDBRANCH  15  17
ENDBRANCH   1  15
BRANCH   1  27
HETATM   27  C   UNL     1     -11.885  14.340  67.739  1.00  0.00    -0.379 C  
BRANCH  27  28
HETATM   28  N   UNL     1     -11.013  15.442  68.215  1.00  0.00    -0.276 NA 
HETATM   29  C   UNL     1     -10.335  16.070  67.056  1.00  0.00    -0.292 C  
HETATM   30  C   UNL     1      -9.949  14.965  69.099  1.00  0.00    -0.211 C  
HETATM   31  C   UNL     1      -8.895  16.362  67.457  1.00  0.00    -0.187 C  
HETATM   32  C   UNL     1      -8.772  15.896  68.889  1.00  0.00    -0.225 C  
ENDBRANCH  27  28
ENDBRANCH   1  27
TORSDOF 12
ENDMDL
MODEL       76
REMARK 921   NORMALIZED FREE ENERGY PREDICTED BY IDOCK:   -5.35 KCAL/MOL
REMARK 922        TOTAL FREE ENERGY PREDICTED BY IDOCK:  -11.16 KCAL/MOL
REMARK 923 INTER-LIGAND FREE ENERGY PREDICTED BY IDOCK:   -9.43 KCAL/MOL
REMARK 924 INTRA-LIGAND FREE ENERGY PREDICTED BY IDOCK:   -1.73 KCAL/MOL
REMARK 927      BINDING AFFINITY PREDICTED BY RF-SCORE:    0.00 PKD
ROOT
HETATM    1  C   UNL     1      -9.873  10.044  69.467  1.00  0.00    -0.229 C  
ENDROOT
BRANCH   1   2
HETATM    2  C   UNL     1     -11.397  10.303  69.231  1.00  0.00    -0.196 C  
HETATM    3  O   UNL     1     -11.653  10.751  67.893  1.00  0.00    -0.541 OA 
HETATM    4  H   UNL     1     -12.579  10.909  67.749  1.00  0.00     0.000 HD 
BRANCH   2   5
HETATM    5  C   UNL     1     -12.017  11.251  70.261  1.00  0.00    -0.466 A  
HETATM    6  C   UNL     1     -13.481  15.576  71.140  1.00  0.00    -0.439 C  
HETATM    7  C   UNL     1     -12.467  13.535  70.978  1.00  0.00    -0.369 A  
HETATM    8  C   UNL     1     -12.858  10.801  71.297  1.00  0.00    -0.540 A  
HETATM    9  C   UNL     1     -13.288  13.075  72.008  1.00  0.00    -0.492 A  
HETATM   10  C   UNL     1     -13.741  15.293  72.611  1.00  0.00    -0.508 C  
HETATM   11  C   UNL     1     -11.801  12.638  70.139  1.00  0.00    -0.326 A  
HETATM   12  O   UNL     1     -13.986  13.901  72.851  1.00  0.00    -0.627 OA 
HETATM   13  O   UNL     1     -12.312  14.872  70.704  1.00  0.00    -0.300 OA 
HETATM   14  C   UNL     1     -13.467  11.704  72.178  1.00  0.00    -0.238 A  
ENDBRANCH   2   5
ENDBRANCH   1   2
BRANCH   1  15
HETATM   15  N   UNL     1      -9.130  10.585  68.316  1.00  0.00    -0.141 NA 
HETATM   16  H   UNL     1      -9.244  10.095  67.428  1.00  0.00     0.000 HD 
BRANCH  15  17
HETATM   17  C   UNL     1      -8.363  11.600  68.311  1.00  0.00    -0.159 C  
HETATM   18  H   UNL     1      -6.643  12.475  68.978  1.00  0.00     0.000 HD 
HETATM   19  O   UNL     1      -7.217  11.716  68.982  1.00  0.00    -0.110 OA 
BRANCH  17  20
HETATM   20  C   UNL     1      -8.727  12.820  67.502  1.00  0.00    -0.185 C  
BRANCH  20  21
HETATM   21  C   UNL     1      -9.061  14.026  68.374  1.00  0.00    -0.191 C  
BRANCH  21  22
HETATM   22  C   UNL     1      -9.936  15.061  67.663  1.00  0.00    -0.225 C  
BRANCH  22  23
HETATM   23  C   UNL     1      -9.227  15.616  66.426  1.00  0.00    -0.346 C  
BRANCH  23  24
HETATM   24  C   UNL     1      -9.103  17.138  66.478  1.00  0.00    -0.294 C  
BRANCH  24  25
HETATM   25  C   UNL     1     -10.417  17.811  66.081  1.00  0.00    -0.301 C  
HETATM   26  C   UNL     1     -10.644  19.097  66.858  1.00  0.00    -0.540 C  
ENDBRANCH  24  25
ENDBRANCH  23  24
ENDBRANCH  22  23
ENDBRANCH  21  22
ENDBRANCH  20  21
ENDBRANCH  17  20
ENDBRANCH  15  17
ENDBRANCH   1  15
BRANCH   1  27
HETATM   27  C   UNL     1      -9.408   8.547  69.536  1.00  0.00    -0.161 C  
BRANCH  27  28
HETATM   28  N   UNL     1      -9.773   7.653  70.663  1.00  0.00    -0.175 NA 
HETATM   29  C   UNL     1     -11.040   6.953  70.346  1.00  0.00    -0.296 C  
HETATM   30  C   UNL     1     -10.015   8.393  71.902  1.00  0.00    -0.261 C  
HETATM   31  C   UNL     1     -11.884   6.916  71.613  1.00  0.00    -0.363 C  
HETATM   32  C   UNL     1     -11.055   7.603  72.673  1.00  0.00    -0.412 C  
ENDBRANCH  27  28
ENDBRANCH   1  27
TORSDOF 12
ENDMDL
MODEL       77
REMARK 921   NORMALIZED FREE ENERGY PREDICTED BY IDOCK:   -5.33 KCAL/MOL
REMARK 922        TOTAL FREE ENERGY PREDICTED BY IDOCK:  -11.13 KCAL/MOL
REMARK 923 INTER-LIGAND FREE ENERGY PREDICTED BY IDOCK:   -9.71 KCAL/MOL
REMARK 924 INTRA-LIGAND FREE ENERGY PREDICTED BY IDOCK:   -1.41 KCAL/MOL
REMARK 927      BINDING AFFINITY PREDICTED BY RF-SCORE:    0.00 PKD
ROOT
HETATM    1  C   UNL     1     -10.480  15.095  65.492  1.00  0.00    -0.379 C  
ENDROOT
BRANCH   1   2
HETATM    2  C   UNL     1     -11.151  16.498  65.319  1.00  0.00    -0.076 C  
HETATM    3  O   UNL     1     -11.454  16.769  63.945  1.00  0.00    -1.484 OA 
HETATM    4  H   UNL     1     -11.862  17.621  63.839  1.00  0.00     0.000 HD 
BRANCH   2   5
HETATM    5  C   UNL     1     -10.341  17.637  65.943  1.00  0.00    -0.261 A  
HETATM    6  C   UNL     1      -6.119  19.158  67.166  1.00  0.00    -0.171 C  
HETATM    7  C   UNL     1      -8.264  18.394  66.968  1.00  0.00    -0.247 A  
HETATM    8  C   UNL     1     -10.768  18.978  65.908  1.00  0.00    -0.404 A  
HETATM    9  C   UNL     1      -8.705  19.718  66.938  1.00  0.00    -0.331 A  
HETATM   10  C   UNL     1      -6.661  20.397  67.860  1.00  0.00    -0.300 C  
HETATM   11  C   UNL     1      -9.086  17.357  66.518  1.00  0.00    -0.288 A  
HETATM   12  O   UNL     1      -7.941  20.783  67.342  1.00  0.00    -0.327 OA 
HETATM   13  O   UNL     1      -7.002  18.050  67.384  1.00  0.00    -0.187 OA 
HETATM   14  C   UNL     1      -9.966  20.007  66.425  1.00  0.00    -0.601 A  
ENDBRANCH   2   5
ENDBRANCH   1   2
BRANCH   1  15
HETATM   15  N   UNL     1     -10.881  14.249  64.355  1.00  0.00    -0.612 NA 
HETATM   16  H   UNL     1     -10.474  14.481  63.449  1.00  0.00     0.000 HD 
BRANCH  15  17
HETATM   17  C   UNL     1     -11.682  13.261  64.384  1.00  0.00    -0.388 C  
HETATM   18  H   UNL     1     -13.521  12.536  64.892  1.00  0.00     0.000 HD 
HETATM   19  O   UNL     1     -12.923  13.274  64.870  1.00  0.00    -0.727 OA 
BRANCH  17  20
HETATM   20  C   UNL     1     -11.249  11.921  63.844  1.00  0.00    -0.497 C  
BRANCH  20  21
HETATM   21  C   UNL     1     -10.572  11.052  64.898  1.00  0.00    -0.328 C  
BRANCH  21  22
HETATM   22  C   UNL     1      -9.533  10.092  64.313  1.00  0.00    -0.366 C  
BRANCH  22  23
HETATM   23  C   UNL     1      -8.815  10.727  63.121  1.00  0.00    -0.209 C  
BRANCH  23  24
HETATM   24  C   UNL     1      -7.516   9.994  62.786  1.00  0.00    -0.132 C  
BRANCH  24  25
HETATM   25  C   UNL     1      -6.847   9.456  64.050  1.00  0.00    -0.096 C  
HETATM   26  C   UNL     1      -5.752  10.388  64.544  1.00  0.00    -0.131 C  
ENDBRANCH  24  25
ENDBRANCH  23  24
ENDBRANCH  22  23
ENDBRANCH  21  22
ENDBRANCH  20  21
ENDBRANCH  17  20
ENDBRANCH  15  17
ENDBRANCH   1  15
BRANCH   1  27
HETATM   27  C   UNL     1     -10.902  14.254  66.747  1.00  0.00    -0.298 C  
BRANCH  27  28
HETATM   28  N   UNL     1      -9.912  13.711  67.710  1.00  0.00    -0.230 NA 
HETATM   29  C   UNL     1      -8.651  13.400  66.997  1.00  0.00    -0.158 C  
HETATM   30  C   UNL     1     -10.358  12.455  68.314  1.00  0.00    -0.227 C  
HETATM   31  C   UNL     1      -8.117  12.083  67.541  1.00  0.00    -0.159 C  
HETATM   32  C   UNL     1      -9.104  11.653  68.601  1.00  0.00    -0.103 C  
ENDBRANCH  27  28
ENDBRANCH   1  27
TORSDOF 12
ENDMDL
MODEL       78
REMARK 921   NORMALIZED FREE ENERGY PREDICTED BY IDOCK:   -5.30 KCAL/MOL
REMARK 922        TOTAL FREE ENERGY PREDICTED BY IDOCK:  -11.07 KCAL/MOL
REMARK 923 INTER-LIGAND FREE ENERGY PREDICTED BY IDOCK:  -10.26 KCAL/MOL
REMARK 924 INTRA-LIGAND FREE ENERGY PREDICTED BY IDOCK:   -0.81 KCAL/MOL
REMARK 927      BINDING AFFINITY PREDICTED BY RF-SCORE:    0.00 PKD
ROOT
HETATM    1  C   UNL     1     -11.156  15.433  66.574  1.00  0.00    -0.227 C  
ENDROOT
BRANCH   1   2
HETATM    2  C   UNL     1     -10.784  16.846  66.014  1.00  0.00    -0.125 C  
HETATM    3  O   UNL     1     -10.914  16.896  64.587  1.00  0.00    -0.894 OA 
HETATM    4  H   UNL     1     -10.688  17.754  64.247  1.00  0.00     0.000 HD 
BRANCH   2   5
HETATM    5  C   UNL     1      -9.402  17.329  66.462  1.00  0.00    -0.283 A  
HETATM    6  C   UNL     1      -6.974  19.620  69.701  1.00  0.00    -0.224 C  
HETATM    7  C   UNL     1      -8.072  18.810  67.868  1.00  0.00    -0.261 A  
HETATM    8  C   UNL     1      -8.212  16.672  66.096  1.00  0.00    -0.295 A  
HETATM    9  C   UNL     1      -6.899  18.156  67.486  1.00  0.00    -0.196 A  
HETATM   10  C   UNL     1      -5.678  19.563  68.907  1.00  0.00    -0.219 C  
HETATM   11  C   UNL     1      -9.306  18.434  67.332  1.00  0.00    -0.275 A  
HETATM   12  O   UNL     1      -5.661  18.460  67.991  1.00  0.00    -0.163 OA 
HETATM   13  O   UNL     1      -8.084  19.805  68.814  1.00  0.00    -0.304 OA 
HETATM   14  C   UNL     1      -6.969  17.099  66.584  1.00  0.00    -0.285 A  
ENDBRANCH   2   5
ENDBRANCH   1   2
BRANCH   1  15
HETATM   15  N   UNL     1     -10.782  15.390  67.998  1.00  0.00    -0.270 NA 
HETATM   16  H   UNL     1      -9.849  15.728  68.236  1.00  0.00     0.000 HD 
BRANCH  15  17
HETATM   17  C   UNL     1     -11.499  14.975  68.964  1.00  0.00    -0.304 C  
HETATM   18  H   UNL     1     -12.481  15.405  70.702  1.00  0.00     0.000 HD 
HETATM   19  O   UNL     1     -11.946  15.715  69.980  1.00  0.00    -0.346 OA 
BRANCH  17  20
HETATM   20  C   UNL     1     -11.910  13.526  69.034  1.00  0.00    -0.385 C  
BRANCH  20  21
HETATM   21  C   UNL     1     -12.285  13.087  70.446  1.00  0.00    -0.386 C  
BRANCH  21  22
HETATM   22  C   UNL     1     -12.261  11.569  70.633  1.00  0.00    -0.473 C  
BRANCH  22  23
HETATM   23  C   UNL     1     -13.121  11.153  71.828  1.00  0.00    -0.536 C  
BRANCH  23  24
HETATM   24  C   UNL     1     -13.463   9.664  71.790  1.00  0.00    -0.477 C  
BRANCH  24  25
HETATM   25  C   UNL     1     -12.207   8.807  71.950  1.00  0.00    -0.429 C  
HETATM   26  C   UNL     1     -12.398   7.419  71.363  1.00  0.00    -0.394 C  
ENDBRANCH  24  25
ENDBRANCH  23  24
ENDBRANCH  22  23
ENDBRANCH  21  22
ENDBRANCH  20  21
ENDBRANCH  17  20
ENDBRANCH  15  17
ENDBRANCH   1  15
BRANCH   1  27
HETATM   27  C   UNL     1     -10.404  14.202  65.956  1.00  0.00    -0.309 C  
BRANCH  27  28
HETATM   28  N   UNL     1     -10.676  13.714  64.583  1.00  0.00    -0.405 NA 
HETATM   29  C   UNL     1     -12.139  13.578  64.387  1.00  0.00    -0.420 C  
HETATM   30  C   UNL     1     -10.109  12.385  64.344  1.00  0.00    -0.267 C  
HETATM   31  C   UNL     1     -12.391  12.295  63.607  1.00  0.00    -0.664 C  
HETATM   32  C   UNL     1     -11.025  11.705  63.346  1.00  0.00    -0.442 C  
ENDBRANCH  27  28
ENDBRANCH   1  27
TORSDOF 12
ENDMDL
MODEL       79
REMARK 921   NORMALIZED FREE ENERGY PREDICTED BY IDOCK:   -5.30 KCAL/MOL
REMARK 922        TOTAL FREE ENERGY PREDICTED BY IDOCK:  -11.07 KCAL/MOL
REMARK 923 INTER-LIGAND FREE ENERGY PREDICTED BY IDOCK:  -10.23 KCAL/MOL
REMARK 924 INTRA-LIGAND FREE ENERGY PREDICTED BY IDOCK:   -0.84 KCAL/MOL
REMARK 927      BINDING AFFINITY PREDICTED BY RF-SCORE:    0.00 PKD
ROOT
HETATM    1  C   UNL     1     -12.853  10.575  70.937  1.00  0.00    -0.394 C  
ENDROOT
BRANCH   1   2
HETATM    2  C   UNL     1     -13.446   9.244  71.504  1.00  0.00    -0.370 C  
HETATM    3  O   UNL     1     -14.133   9.461  72.744  1.00  0.00    -0.822 OA 
HETATM    4  H   UNL     1     -14.494   8.652  73.089  1.00  0.00     0.000 HD 
BRANCH   2   5
HETATM    5  C   UNL     1     -12.409   8.125  71.633  1.00  0.00    -0.347 A  
HETATM    6  C   UNL     1     -10.127   5.287  74.526  1.00  0.00    -0.262 C  
HETATM    7  C   UNL     1     -10.883   6.857  73.047  1.00  0.00    -0.296 A  
HETATM    8  C   UNL     1     -12.150   7.208  70.597  1.00  0.00    -0.281 A  
HETATM    9  C   UNL     1     -10.627   5.962  72.007  1.00  0.00    -0.221 A  
HETATM   10  C   UNL     1      -9.224   4.741  73.432  1.00  0.00    -0.113 C  
HETATM   11  C   UNL     1     -11.730   7.952  72.855  1.00  0.00    -0.239 A  
HETATM   12  O   UNL     1      -9.826   4.856  72.135  1.00  0.00    -0.161 OA 
HETATM   13  O   UNL     1     -10.370   6.683  74.309  1.00  0.00    -0.361 OA 
HETATM   14  C   UNL     1     -11.247   6.151  70.775  1.00  0.00    -0.373 A  
ENDBRANCH   2   5
ENDBRANCH   1   2
BRANCH   1  15
HETATM   15  N   UNL     1     -11.408  10.381  70.725  1.00  0.00    -0.347 NA 
HETATM   16  H   UNL     1     -10.881   9.990  71.507  1.00  0.00     0.000 HD 
BRANCH  15  17
HETATM   17  C   UNL     1     -10.748  10.649  69.671  1.00  0.00    -0.244 C  
HETATM   18  H   UNL     1      -8.925  10.884  68.781  1.00  0.00     0.000 HD 
HETATM   19  O   UNL     1      -9.419  10.684  69.569  1.00  0.00    -0.146 OA 
BRANCH  17  20
HETATM   20  C   UNL     1     -11.470  10.974  68.388  1.00  0.00    -0.378 C  
BRANCH  20  21
HETATM   21  C   UNL     1     -11.740  12.466  68.226  1.00  0.00    -0.398 C  
BRANCH  21  22
HETATM   22  C   UNL     1     -10.624  13.205  67.483  1.00  0.00    -0.240 C  
BRANCH  22  23
HETATM   23  C   UNL     1     -11.203  14.268  66.548  1.00  0.00    -0.333 C  
BRANCH  23  24
HETATM   24  C   UNL     1     -10.792  14.029  65.095  1.00  0.00    -0.376 C  
BRANCH  24  25
HETATM   25  C   UNL     1     -12.019  13.868  64.196  1.00  0.00    -0.464 C  
HETATM   26  C   UNL     1     -11.947  12.591  63.375  1.00  0.00    -0.602 C  
ENDBRANCH  24  25
ENDBRANCH  23  24
ENDBRANCH  22  23
ENDBRANCH  21  22
ENDBRANCH  20  21
ENDBRANCH  17  20
ENDBRANCH  15  17
ENDBRANCH   1  15
BRANCH   1  27
HETATM   27  C   UNL     1     -12.925  11.838  71.864  1.00  0.00    -0.330 C  
BRANCH  27  28
HETATM   28  N   UNL     1     -13.389  13.159  71.374  1.00  0.00    -0.211 NA 
HETATM   29  C   UNL     1     -12.224  14.058  71.200  1.00  0.00    -0.338 C  
HETATM   30  C   UNL     1     -14.277  13.824  72.328  1.00  0.00    -0.467 C  
HETATM   31  C   UNL     1     -12.620  15.441  71.696  1.00  0.00    -0.458 C  
HETATM   32  C   UNL     1     -14.057  15.313  72.147  1.00  0.00    -0.658 C  
ENDBRANCH  27  28
ENDBRANCH   1  27
TORSDOF 12
ENDMDL
MODEL       80
REMARK 921   NORMALIZED FREE ENERGY PREDICTED BY IDOCK:   -5.29 KCAL/MOL
REMARK 922        TOTAL FREE ENERGY PREDICTED BY IDOCK:  -11.05 KCAL/MOL
REMARK 923 INTER-LIGAND FREE ENERGY PREDICTED BY IDOCK:   -9.33 KCAL/MOL
REMARK 924 INTRA-LIGAND FREE ENERGY PREDICTED BY IDOCK:   -1.73 KCAL/MOL
REMARK 927      BINDING AFFINITY PREDICTED BY RF-SCORE:    0.00 PKD
ROOT
HETATM    1  C   UNL     1     -11.922  10.756  69.773  1.00  0.00    -0.325 C  
ENDROOT
BRANCH   1   2
HETATM    2  C   UNL     1     -10.656  10.543  68.879  1.00  0.00    -0.216 C  
HETATM    3  O   UNL     1      -9.515  11.230  69.411  1.00  0.00    -0.399 OA 
HETATM    4  H   UNL     1      -8.746  11.101  68.868  1.00  0.00     0.000 HD 
BRANCH   2   5
HETATM    5  C   UNL     1     -10.885  10.905  67.409  1.00  0.00    -0.333 A  
HETATM    6  C   UNL     1     -12.276  14.172  64.406  1.00  0.00    -0.439 C  
HETATM    7  C   UNL     1     -11.931  12.368  65.766  1.00  0.00    -0.372 A  
HETATM    8  C   UNL     1     -10.160  10.308  66.359  1.00  0.00    -0.296 A  
HETATM    9  C   UNL     1     -11.215  11.760  64.734  1.00  0.00    -0.271 A  
HETATM   10  C   UNL     1     -12.199  13.239  63.207  1.00  0.00    -0.313 C  
HETATM   11  C   UNL     1     -11.805  11.921  67.084  1.00  0.00    -0.216 A  
HETATM   12  O   UNL     1     -11.275  12.165  63.425  1.00  0.00    -0.427 OA 
HETATM   13  O   UNL     1     -12.744  13.454  65.555  1.00  0.00    -0.482 OA 
HETATM   14  C   UNL     1     -10.343  10.716  65.030  1.00  0.00    -0.341 A  
ENDBRANCH   2   5
ENDBRANCH   1   2
BRANCH   1  15
HETATM   15  N   UNL     1     -11.685  11.928  70.633  1.00  0.00    -0.422 NA 
HETATM   16  H   UNL     1     -10.720  12.100  70.914  1.00  0.00     0.000 HD 
BRANCH  15  17
HETATM   17  C   UNL     1     -12.558  12.749  71.063  1.00  0.00    -0.271 C  
HETATM   18  H   UNL     1     -14.113  13.116  72.333  1.00  0.00     0.000 HD 
HETATM   19  O   UNL     1     -13.461  12.503  72.012  1.00  0.00    -0.493 OA 
BRANCH  17  20
HETATM   20  C   UNL     1     -12.639  14.139  70.483  1.00  0.00    -0.410 C  
BRANCH  20  21
HETATM   21  C   UNL     1     -11.360  14.552  69.762  1.00  0.00    -0.305 C  
BRANCH  21  22
HETATM   22  C   UNL     1     -11.276  16.057  69.497  1.00  0.00    -0.348 C  
BRANCH  22  23
HETATM   23  C   UNL     1     -11.211  16.343  67.996  1.00  0.00    -0.235 C  
BRANCH  23  24
HETATM   24  C   UNL     1     -10.218  15.423  67.286  1.00  0.00    -0.254 C  
BRANCH  24  25
HETATM   25  C   UNL     1      -9.629  16.101  66.048  1.00  0.00    -0.381 C  
HETATM   26  C   UNL     1     -10.413  17.345  65.665  1.00  0.00    -0.173 C  
ENDBRANCH  24  25
ENDBRANCH  23  24
ENDBRANCH  22  23
ENDBRANCH  21  22
ENDBRANCH  20  21
ENDBRANCH  17  20
ENDBRANCH  15  17
ENDBRANCH   1  15
BRANCH   1  27
HETATM   27  C   UNL     1     -12.275   9.615  70.789  1.00  0.00    -0.230 C  
BRANCH  27  28
HETATM   28  N   UNL     1     -11.727   8.243  70.665  1.00  0.00    -0.209 NA 
HETATM   29  C   UNL     1     -12.685   7.274  71.248  1.00  0.00    -0.359 C  
HETATM   30  C   UNL     1     -10.477   8.075  71.409  1.00  0.00    -0.215 C  
HETATM   31  C   UNL     1     -11.889   6.235  72.024  1.00  0.00    -0.370 C  
HETATM   32  C   UNL     1     -10.439   6.628  71.857  1.00  0.00    -0.224 C  
ENDBRANCH  27  28
ENDBRANCH   1  27
TORSDOF 12
ENDMDL
MODEL       81
REMARK 921   NORMALIZED FREE ENERGY PREDICTED BY IDOCK:   -5.28 KCAL/MOL
REMARK 922        TOTAL FREE ENERGY PREDICTED BY IDOCK:  -11.05 KCAL/MOL
REMARK 923 INTER-LIGAND FREE ENERGY PREDICTED BY IDOCK:   -9.61 KCAL/MOL
REMARK 924 INTRA-LIGAND FREE ENERGY PREDICTED BY IDOCK:   -1.44 KCAL/MOL
REMARK 927      BINDING AFFINITY PREDICTED BY RF-SCORE:    0.00 PKD
ROOT
HETATM    1  C   UNL     1     -10.090   8.979  68.191  1.00  0.00    -0.191 C  
ENDROOT
BRANCH   1   2
HETATM    2  C   UNL     1     -10.325   7.433  68.169  1.00  0.00    -0.192 C  
HETATM    3  O   UNL     1     -11.296   7.063  67.182  1.00  0.00    -0.603 OA 
HETATM    4  H   UNL     1     -11.439   6.123  67.168  1.00  0.00     0.000 HD 
BRANCH   2   5
HETATM    5  C   UNL     1     -10.681   6.856  69.541  1.00  0.00    -0.276 A  
HETATM    6  C   UNL     1      -9.459   3.916  72.932  1.00  0.00    -0.116 C  
HETATM    7  C   UNL     1     -10.370   5.102  71.204  1.00  0.00    -0.206 A  
HETATM    8  C   UNL     1     -11.440   7.567  70.490  1.00  0.00    -0.259 A  
HETATM    9  C   UNL     1     -11.135   5.813  72.131  1.00  0.00    -0.271 A  
HETATM   10  C   UNL     1     -10.745   4.130  73.712  1.00  0.00    -0.245 C  
HETATM   11  C   UNL     1     -10.179   5.592  69.909  1.00  0.00    -0.338 A  
HETATM   12  O   UNL     1     -11.342   5.401  73.422  1.00  0.00    -0.271 OA 
HETATM   13  O   UNL     1      -9.731   3.930  71.525  1.00  0.00    -0.159 OA 
HETATM   14  C   UNL     1     -11.686   7.038  71.765  1.00  0.00    -0.333 A  
ENDBRANCH   2   5
ENDBRANCH   1   2
BRANCH   1  15
HETATM   15  N   UNL     1     -11.402   9.645  68.112  1.00  0.00    -0.500 NA 
HETATM   16  H   UNL     1     -12.193   9.062  67.837  1.00  0.00     0.000 HD 
BRANCH  15  17
HETATM   17  C   UNL     1     -11.653  10.869  68.351  1.00  0.00    -0.276 C  
HETATM   18  H   UNL     1     -12.342  12.663  67.662  1.00  0.00     0.000 HD 
HETATM   19  O   UNL     1     -12.155  11.748  67.484  1.00  0.00    -0.599 OA 
BRANCH  17  20
HETATM   20  C   UNL     1     -11.372  11.446  69.716  1.00  0.00    -0.332 C  
BRANCH  20  21
HETATM   21  C   UNL     1     -12.473  11.137  70.724  1.00  0.00    -0.479 C  
BRANCH  21  22
HETATM   22  C   UNL     1     -12.979  12.377  71.466  1.00  0.00    -0.385 C  
BRANCH  22  23
HETATM   23  C   UNL     1     -12.310  13.644  70.928  1.00  0.00    -0.450 C  
BRANCH  23  24
HETATM   24  C   UNL     1     -13.243  14.852  71.001  1.00  0.00    -0.456 C  
BRANCH  24  25
HETATM   25  C   UNL     1     -13.958  14.915  72.351  1.00  0.00    -0.582 C  
HETATM   26  C   UNL     1     -13.082  15.550  73.418  1.00  0.00    -0.651 C  
ENDBRANCH  24  25
ENDBRANCH  23  24
ENDBRANCH  22  23
ENDBRANCH  21  22
ENDBRANCH  20  21
ENDBRANCH  17  20
ENDBRANCH  15  17
ENDBRANCH   1  15
BRANCH   1  27
HETATM   27  C   UNL     1      -9.290   9.595  66.990  1.00  0.00    -0.147 C  
BRANCH  27  28
HETATM   28  N   UNL     1      -9.627   9.300  65.576  1.00  0.00    -0.260 NA 
HETATM   29  C   UNL     1      -8.465   8.659  64.915  1.00  0.00    -0.161 C  
HETATM   30  C   UNL     1      -9.913  10.513  64.809  1.00  0.00    -0.345 C  
HETATM   31  C   UNL     1      -8.342   9.243  63.514  1.00  0.00    -0.185 C  
HETATM   32  C   UNL     1      -9.480  10.228  63.385  1.00  0.00    -0.340 C  
ENDBRANCH  27  28
ENDBRANCH   1  27
TORSDOF 12
ENDMDL
MODEL       82
REMARK 921   NORMALIZED FREE ENERGY PREDICTED BY IDOCK:   -5.28 KCAL/MOL
REMARK 922        TOTAL FREE ENERGY PREDICTED BY IDOCK:  -11.04 KCAL/MOL
REMARK 923 INTER-LIGAND FREE ENERGY PREDICTED BY IDOCK:   -9.25 KCAL/MOL
REMARK 924 INTRA-LIGAND FREE ENERGY PREDICTED BY IDOCK:   -1.80 KCAL/MOL
REMARK 927      BINDING AFFINITY PREDICTED BY RF-SCORE:    0.00 PKD
ROOT
HETATM    1  C   UNL     1     -11.109  11.171  68.827  1.00  0.00    -0.236 C  
ENDROOT
BRANCH   1   2
HETATM    2  C   UNL     1     -11.859  12.448  68.324  1.00  0.00    -0.309 C  
HETATM    3  O   UNL     1     -12.276  12.309  66.959  1.00  0.00    -0.522 OA 
HETATM    4  H   UNL     1     -12.731  13.085  66.653  1.00  0.00     0.000 HD 
BRANCH   2   5
HETATM    5  C   UNL     1     -11.062  13.739  68.531  1.00  0.00    -0.292 A  
HETATM    6  C   UNL     1      -8.641  17.152  66.501  1.00  0.00    -0.271 C  
HETATM    7  C   UNL     1      -9.470  15.363  67.656  1.00  0.00    -0.205 A  
HETATM    8  C   UNL     1     -11.287  14.603  69.619  1.00  0.00    -0.317 A  
HETATM    9  C   UNL     1      -9.694  16.205  68.747  1.00  0.00    -0.233 A  
HETATM   10  C   UNL     1      -8.207  17.762  67.824  1.00  0.00    -0.227 C  
HETATM   11  C   UNL     1     -10.110  14.124  67.566  1.00  0.00    -0.236 A  
HETATM   12  O   UNL     1      -9.117  17.441  68.885  1.00  0.00    -0.250 OA 
HETATM   13  O   UNL     1      -8.665  15.723  66.604  1.00  0.00    -0.235 OA 
HETATM   14  C   UNL     1     -10.590  15.813  69.739  1.00  0.00    -0.312 A  
ENDBRANCH   2   5
ENDBRANCH   1   2
BRANCH   1  15
HETATM   15  N   UNL     1     -11.366  10.080  67.871  1.00  0.00    -0.559 NA 
HETATM   16  H   UNL     1     -12.344   9.837  67.709  1.00  0.00     0.000 HD 
BRANCH  15  17
HETATM   17  C   UNL     1     -10.498   9.410  67.226  1.00  0.00    -0.264 C  
HETATM   18  H   UNL     1      -9.943   7.619  66.417  1.00  0.00     0.000 HD 
HETATM   19  O   UNL     1     -10.591   8.120  66.899  1.00  0.00    -0.329 OA 
BRANCH  17  20
HETATM   20  C   UNL     1      -9.221  10.068  66.768  1.00  0.00    -0.173 C  
BRANCH  20  21
HETATM   21  C   UNL     1      -9.443  11.057  65.629  1.00  0.00    -0.250 C  
BRANCH  21  22
HETATM   22  C   UNL     1      -9.629  10.380  64.269  1.00  0.00    -0.377 C  
BRANCH  22  23
HETATM   23  C   UNL     1     -10.702  11.096  63.446  1.00  0.00    -0.286 C  
BRANCH  23  24
HETATM   24  C   UNL     1     -10.673  12.607  63.669  1.00  0.00    -0.410 C  
BRANCH  24  25
HETATM   25  C   UNL     1     -12.074  13.207  63.549  1.00  0.00    -0.585 C  
HETATM   26  C   UNL     1     -12.185  14.523  64.301  1.00  0.00    -0.441 C  
ENDBRANCH  24  25
ENDBRANCH  23  24
ENDBRANCH  22  23
ENDBRANCH  21  22
ENDBRANCH  20  21
ENDBRANCH  17  20
ENDBRANCH  15  17
ENDBRANCH   1  15
BRANCH   1  27
HETATM   27  C   UNL     1     -11.567  10.573  70.203  1.00  0.00    -0.326 C  
BRANCH  27  28
HETATM   28  N   UNL     1     -11.255   9.181  70.608  1.00  0.00    -0.260 NA 
HETATM   29  C   UNL     1     -12.101   8.802  71.764  1.00  0.00    -0.350 C  
HETATM   30  C   UNL     1      -9.869   9.029  71.052  1.00  0.00    -0.282 C  
HETATM   31  C   UNL     1     -11.239   8.009  72.736  1.00  0.00    -0.448 C  
HETATM   32  C   UNL     1      -9.873   7.929  72.095  1.00  0.00    -0.264 C  
ENDBRANCH  27  28
ENDBRANCH   1  27
TORSDOF 12
ENDMDL
MODEL       83
REMARK 921   NORMALIZED FREE ENERGY PREDICTED BY IDOCK:   -5.27 KCAL/MOL
REMARK 922        TOTAL FREE ENERGY PREDICTED BY IDOCK:  -11.02 KCAL/MOL
REMARK 923 INTER-LIGAND FREE ENERGY PREDICTED BY IDOCK:   -8.83 KCAL/MOL
REMARK 924 INTRA-LIGAND FREE ENERGY PREDICTED BY IDOCK:   -2.20 KCAL/MOL
REMARK 927      BINDING AFFINITY PREDICTED BY RF-SCORE:    0.00 PKD
ROOT
HETATM    1  C   UNL     1      -9.271  12.766  67.635  1.00  0.00    -0.192 C  
ENDROOT
BRANCH   1   2
HETATM    2  C   UNL     1      -9.528  11.239  67.854  1.00  0.00    -0.178 C  
HETATM    3  O   UNL     1      -9.837  10.576  66.621  1.00  0.00    -0.186 OA 
HETATM    4  H   UNL     1      -9.993   9.648  66.754  1.00  0.00     0.000 HD 
BRANCH   2   5
HETATM    5  C   UNL     1     -10.589  10.950  68.920  1.00  0.00    -0.241 A  
HETATM    6  C   UNL     1     -11.887   8.191  72.431  1.00  0.00    -0.388 C  
HETATM    7  C   UNL     1     -11.568   9.385  70.509  1.00  0.00    -0.235 A  
HETATM    8  C   UNL     1     -11.414  11.955  69.460  1.00  0.00    -0.357 A  
HETATM    9  C   UNL     1     -12.389  10.387  71.027  1.00  0.00    -0.387 A  
HETATM   10  C   UNL     1     -13.246   8.856  72.578  1.00  0.00    -0.382 C  
HETATM   11  C   UNL     1     -10.708   9.646  69.439  1.00  0.00    -0.248 A  
HETATM   12  O   UNL     1     -13.237  10.203  72.088  1.00  0.00    -0.444 OA 
HETATM   13  O   UNL     1     -11.522   8.122  71.047  1.00  0.00    -0.274 OA 
HETATM   14  C   UNL     1     -12.325  11.669  70.487  1.00  0.00    -0.410 A  
ENDBRANCH   2   5
ENDBRANCH   1   2
BRANCH   1  15
HETATM   15  N   UNL     1     -10.137  13.226  66.536  1.00  0.00    -0.268 NA 
HETATM   16  H   UNL     1      -9.955  12.826  65.615  1.00  0.00     0.000 HD 
BRANCH  15  17
HETATM   17  C   UNL     1     -11.088  14.067  66.613  1.00  0.00    -0.309 C  
HETATM   18  H   UNL     1     -13.056  14.493  66.276  1.00  0.00     0.000 HD 
HETATM   19  O   UNL     1     -12.346  13.864  66.219  1.00  0.00    -0.453 OA 
BRANCH  17  20
HETATM   20  C   UNL     1     -10.838  15.442  67.181  1.00  0.00    -0.321 C  
BRANCH  20  21
HETATM   21  C   UNL     1     -11.808  15.802  68.302  1.00  0.00    -0.116 C  
BRANCH  21  22
HETATM   22  C   UNL     1     -11.198  15.657  69.698  1.00  0.00    -0.310 C  
BRANCH  22  23
HETATM   23  C   UNL     1     -12.291  15.489  70.755  1.00  0.00    -0.463 C  
BRANCH  23  24
HETATM   24  C   UNL     1     -11.921  16.177  72.068  1.00  0.00    -0.607 C  
BRANCH  24  25
HETATM   25  C   UNL     1     -12.620  15.512  73.254  1.00  0.00    -0.617 C  
HETATM   26  C   UNL     1     -13.450  14.317  72.815  1.00  0.00    -0.590 C  
ENDBRANCH  24  25
ENDBRANCH  23  24
ENDBRANCH  22  23
ENDBRANCH  21  22
ENDBRANCH  20  21
ENDBRANCH  17  20
ENDBRANCH  15  17
ENDBRANCH   1  15
BRANCH   1  27
HETATM   27  C   UNL     1      -7.832  13.187  67.174  1.00  0.00    -0.049 C  
BRANCH  27  28
HETATM   28  N   UNL     1      -7.126  14.360  67.744  1.00  0.00    -0.161 NA 
HETATM   29  C   UNL     1      -7.602  14.598  69.128  1.00  0.00    -0.126 C  
HETATM   30  C   UNL     1      -7.403  15.590  67.002  1.00  0.00    -0.137 C  
HETATM   31  C   UNL     1      -7.751  16.100  69.320  1.00  0.00    -0.210 C  
HETATM   32  C   UNL     1      -7.330  16.721  68.008  1.00  0.00    -0.167 C  
ENDBRANCH  27  28
ENDBRANCH   1  27
TORSDOF 12
ENDMDL
MODEL       84
REMARK 921   NORMALIZED FREE ENERGY PREDICTED BY IDOCK:   -5.27 KCAL/MOL
REMARK 922        TOTAL FREE ENERGY PREDICTED BY IDOCK:  -11.02 KCAL/MOL
REMARK 923 INTER-LIGAND FREE ENERGY PREDICTED BY IDOCK:   -9.94 KCAL/MOL
REMARK 924 INTRA-LIGAND FREE ENERGY PREDICTED BY IDOCK:   -1.08 KCAL/MOL
REMARK 927      BINDING AFFINITY PREDICTED BY RF-SCORE:    0.00 PKD
ROOT
HETATM    1  C   UNL     1     -10.105  13.096  68.026  1.00  0.00    -0.232 C  
ENDROOT
BRANCH   1   2
HETATM    2  C   UNL     1     -11.399  13.871  67.611  1.00  0.00    -0.309 C  
HETATM    3  O   UNL     1     -12.178  13.125  66.667  1.00  0.00    -0.366 OA 
HETATM    4  H   UNL     1     -12.965  13.596  66.415  1.00  0.00     0.000 HD 
BRANCH   2   5
HETATM    5  C   UNL     1     -11.119  15.288  67.103  1.00  0.00    -0.323 A  
HETATM    6  C   UNL     1      -9.396  19.487  68.117  1.00  0.00    -0.350 C  
HETATM    7  C   UNL     1     -10.604  17.615  67.608  1.00  0.00    -0.362 A  
HETATM    8  C   UNL     1     -10.908  15.577  65.741  1.00  0.00    -0.337 A  
HETATM    9  C   UNL     1     -10.409  17.890  66.253  1.00  0.00    -0.364 A  
HETATM   10  C   UNL     1      -9.855  20.099  66.803  1.00  0.00    -0.456 C  
HETATM   11  C   UNL     1     -10.997  16.342  68.029  1.00  0.00    -0.328 A  
HETATM   12  O   UNL     1     -10.002  19.109  65.776  1.00  0.00    -0.462 OA 
HETATM   13  O   UNL     1     -10.372  18.549  68.587  1.00  0.00    -0.357 OA 
HETATM   14  C   UNL     1     -10.581  16.873  65.318  1.00  0.00    -0.137 A  
ENDBRANCH   2   5
ENDBRANCH   1   2
BRANCH   1  15
HETATM   15  N   UNL     1     -10.428  12.252  69.189  1.00  0.00    -0.429 NA 
HETATM   16  H   UNL     1      -9.987  12.506  70.074  1.00  0.00     0.000 HD 
BRANCH  15  17
HETATM   17  C   UNL     1     -11.198  11.239  69.208  1.00  0.00    -0.272 C  
HETATM   18  H   UNL     1     -12.311   9.889  68.155  1.00  0.00     0.000 HD 
HETATM   19  O   UNL     1     -11.736  10.646  68.141  1.00  0.00    -0.474 OA 
BRANCH  17  20
HETATM   20  C   UNL     1     -11.586  10.608  70.521  1.00  0.00    -0.444 C  
BRANCH  20  21
HETATM   21  C   UNL     1     -13.032  10.896  70.909  1.00  0.00    -0.347 C  
BRANCH  21  22
HETATM   22  C   UNL     1     -13.161  11.905  72.052  1.00  0.00    -0.461 C  
BRANCH  22  23
HETATM   23  C   UNL     1     -13.091  13.339  71.525  1.00  0.00    -0.414 C  
BRANCH  23  24
HETATM   24  C   UNL     1     -14.275  14.178  72.004  1.00  0.00    -0.617 C  
BRANCH  24  25
HETATM   25  C   UNL     1     -13.807  15.521  72.564  1.00  0.00    -0.669 C  
HETATM   26  C   UNL     1     -12.759  15.339  73.649  1.00  0.00    -0.703 C  
ENDBRANCH  24  25
ENDBRANCH  23  24
ENDBRANCH  22  23
ENDBRANCH  21  22
ENDBRANCH  20  21
ENDBRANCH  17  20
ENDBRANCH  15  17
ENDBRANCH   1  15
BRANCH   1  27
HETATM   27  C   UNL     1      -8.888  13.955  68.518  1.00  0.00    -0.137 C  
BRANCH  27  28
HETATM   28  N   UNL     1      -7.505  13.722  68.037  1.00  0.00    -0.122 NA 
HETATM   29  C   UNL     1      -6.701  13.115  69.124  1.00  0.00    -0.089 C  
HETATM   30  C   UNL     1      -6.825  14.967  67.676  1.00  0.00    -0.181 C  
HETATM   31  C   UNL     1      -5.322  13.759  69.104  1.00  0.00    -0.077 C  
HETATM   32  C   UNL     1      -5.353  14.746  67.960  1.00  0.00    -0.120 C  
ENDBRANCH  27  28
ENDBRANCH   1  27
TORSDOF 12
ENDMDL
MODEL       85
REMARK 921   NORMALIZED FREE ENERGY PREDICTED BY IDOCK:   -5.26 KCAL/MOL
REMARK 922        TOTAL FREE ENERGY PREDICTED BY IDOCK:  -11.00 KCAL/MOL
REMARK 923 INTER-LIGAND FREE ENERGY PREDICTED BY IDOCK:   -9.42 KCAL/MOL
REMARK 924 INTRA-LIGAND FREE ENERGY PREDICTED BY IDOCK:   -1.58 KCAL/MOL
REMARK 927      BINDING AFFINITY PREDICTED BY RF-SCORE:    0.00 PKD
ROOT
HETATM    1  C   UNL     1     -11.479  12.526  69.150  1.00  0.00    -0.305 C  
ENDROOT
BRANCH   1   2
HETATM    2  C   UNL     1     -12.145  11.321  69.891  1.00  0.00    -0.341 C  
HETATM    3  O   UNL     1     -13.070  11.766  70.893  1.00  0.00    -0.112 OA 
HETATM    4  H   UNL     1     -13.475  11.033  71.344  1.00  0.00     0.000 HD 
BRANCH   2   5
HETATM    5  C   UNL     1     -11.131  10.332  70.473  1.00  0.00    -0.381 A  
HETATM    6  C   UNL     1     -10.508   6.434  72.931  1.00  0.00    -0.220 C  
HETATM    7  C   UNL     1     -10.644   8.536  72.045  1.00  0.00    -0.338 A  
HETATM    8  C   UNL     1      -9.861  10.125  69.902  1.00  0.00    -0.223 A  
HETATM    9  C   UNL     1      -9.383   8.349  71.477  1.00  0.00    -0.200 A  
HETATM   10  C   UNL     1      -8.996   6.584  72.967  1.00  0.00    -0.128 C  
HETATM   11  C   UNL     1     -11.495   9.543  71.581  1.00  0.00    -0.433 A  
HETATM   12  O   UNL     1      -8.510   7.367  71.869  1.00  0.00    -0.106 OA 
HETATM   13  O   UNL     1     -11.130   7.720  73.036  1.00  0.00    -0.398 OA 
HETATM   14  C   UNL     1      -8.985   9.159  70.417  1.00  0.00    -0.263 A  
ENDBRANCH   2   5
ENDBRANCH   1   2
BRANCH   1  15
HETATM   15  N   UNL     1     -12.178  13.758  69.555  1.00  0.00    -0.325 NA 
HETATM   16  H   UNL     1     -13.085  13.931  69.122  1.00  0.00     0.000 HD 
BRANCH  15  17
HETATM   17  C   UNL     1     -11.770  14.629  70.389  1.00  0.00    -0.295 C  
HETATM   18  H   UNL     1     -11.538  15.186  72.339  1.00  0.00     0.000 HD 
HETATM   19  O   UNL     1     -11.843  14.535  71.717  1.00  0.00    -0.306 OA 
BRANCH  17  20
HETATM   20  C   UNL     1     -11.146  15.912  69.898  1.00  0.00    -0.343 C  
BRANCH  20  21
HETATM   21  C   UNL     1      -9.736  15.711  69.353  1.00  0.00    -0.292 C  
BRANCH  21  22
HETATM   22  C   UNL     1      -9.310  16.799  68.365  1.00  0.00    -0.231 C  
BRANCH  22  23
HETATM   23  C   UNL     1     -10.518  17.606  67.888  1.00  0.00    -0.392 C  
BRANCH  23  24
HETATM   24  C   UNL     1     -10.446  17.904  66.391  1.00  0.00    -0.318 C  
BRANCH  24  25
HETATM   25  C   UNL     1     -10.539  19.407  66.124  1.00  0.00    -0.571 C  
HETATM   26  C   UNL     1      -9.431  20.170  66.831  1.00  0.00    -0.543 C  
ENDBRANCH  24  25
ENDBRANCH  23  24
ENDBRANCH  22  23
ENDBRANCH  21  22
ENDBRANCH  20  21
ENDBRANCH  17  20
ENDBRANCH  15  17
ENDBRANCH   1  15
BRANCH   1  27
HETATM   27  C   UNL     1     -11.578  12.542  67.585  1.00  0.00    -0.355 C  
BRANCH  27  28
HETATM   28  N   UNL     1     -11.505  13.796  66.796  1.00  0.00    -0.333 NA 
HETATM   29  C   UNL     1     -12.539  13.772  65.734  1.00  0.00    -0.480 C  
HETATM   30  C   UNL     1     -10.221  13.947  66.110  1.00  0.00    -0.301 C  
HETATM   31  C   UNL     1     -11.923  14.349  64.467  1.00  0.00    -0.487 C  
HETATM   32  C   UNL     1     -10.506  14.720  64.838  1.00  0.00    -0.398 C  
ENDBRANCH  27  28
ENDBRANCH   1  27
TORSDOF 12
ENDMDL
MODEL       86
REMARK 921   NORMALIZED FREE ENERGY PREDICTED BY IDOCK:   -5.24 KCAL/MOL
REMARK 922        TOTAL FREE ENERGY PREDICTED BY IDOCK:  -10.97 KCAL/MOL
REMARK 923 INTER-LIGAND FREE ENERGY PREDICTED BY IDOCK:   -9.02 KCAL/MOL
REMARK 924 INTRA-LIGAND FREE ENERGY PREDICTED BY IDOCK:   -1.95 KCAL/MOL
REMARK 927      BINDING AFFINITY PREDICTED BY RF-SCORE:    0.00 PKD
ROOT
HETATM    1  C   UNL     1     -10.466   9.509  68.581  1.00  0.00    -0.211 C  
ENDROOT
BRANCH   1   2
HETATM    2  C   UNL     1     -11.321  10.777  68.251  1.00  0.00    -0.309 C  
HETATM    3  O   UNL     1     -10.600  11.695  67.418  1.00  0.00    -0.206 OA 
HETATM    4  H   UNL     1     -11.119  12.465  67.217  1.00  0.00     0.000 HD 
BRANCH   2   5
HETATM    5  C   UNL     1     -11.873  11.476  69.496  1.00  0.00    -0.419 A  
HETATM    6  C   UNL     1     -13.601  15.413  71.270  1.00  0.00    -0.505 C  
HETATM    7  C   UNL     1     -12.431  13.554  70.640  1.00  0.00    -0.333 A  
HETATM    8  C   UNL     1     -12.509  10.777  70.540  1.00  0.00    -0.447 A  
HETATM    9  C   UNL     1     -13.047  12.847  71.673  1.00  0.00    -0.335 A  
HETATM   10  C   UNL     1     -13.618  14.878  72.693  1.00  0.00    -0.459 C  
HETATM   11  C   UNL     1     -11.811  12.881  69.584  1.00  0.00    -0.387 A  
HETATM   12  O   UNL     1     -13.692  13.446  72.724  1.00  0.00    -0.697 OA 
HETATM   13  O   UNL     1     -12.446  14.926  70.577  1.00  0.00    -0.323 OA 
HETATM   14  C   UNL     1     -13.068  11.456  71.631  1.00  0.00    -0.498 A  
ENDBRANCH   2   5
ENDBRANCH   1   2
BRANCH   1  15
HETATM   15  N   UNL     1      -9.218   9.951  69.226  1.00  0.00    -0.187 NA 
HETATM   16  H   UNL     1      -8.715  10.714  68.771  1.00  0.00     0.000 HD 
BRANCH  15  17
HETATM   17  C   UNL     1      -8.700   9.483  70.290  1.00  0.00    -0.235 C  
HETATM   18  H   UNL     1      -7.017   8.896  71.285  1.00  0.00     0.000 HD 
HETATM   19  O   UNL     1      -7.403   9.246  70.490  1.00  0.00    -0.087 OA 
BRANCH  17  20
HETATM   20  C   UNL     1      -9.576   9.135  71.468  1.00  0.00    -0.278 C  
BRANCH  20  21
HETATM   21  C   UNL     1      -9.066   7.926  72.244  1.00  0.00    -0.217 C  
BRANCH  21  22
HETATM   22  C   UNL     1     -10.040   6.746  72.234  1.00  0.00    -0.191 C  
BRANCH  22  23
HETATM   23  C   UNL     1     -10.694   6.590  70.860  1.00  0.00    -0.289 C  
BRANCH  23  24
HETATM   24  C   UNL     1     -12.201   6.366  70.971  1.00  0.00    -0.106 C  
BRANCH  24  25
HETATM   25  C   UNL     1     -12.874   7.514  71.724  1.00  0.00    -0.359 C  
HETATM   26  C   UNL     1     -14.389   7.416  71.655  1.00  0.00    -0.614 C  
ENDBRANCH  24  25
ENDBRANCH  23  24
ENDBRANCH  22  23
ENDBRANCH  21  22
ENDBRANCH  20  21
ENDBRANCH  17  20
ENDBRANCH  15  17
ENDBRANCH   1  15
BRANCH   1  27
HETATM   27  C   UNL     1      -9.972   8.648  67.367  1.00  0.00    -0.210 C  
BRANCH  27  28
HETATM   28  N   UNL     1      -9.698   7.195  67.482  1.00  0.00    -0.137 NA 
HETATM   29  C   UNL     1      -8.719   6.794  66.445  1.00  0.00    -0.138 C  
HETATM   30  C   UNL     1     -10.894   6.385  67.247  1.00  0.00    -0.385 C  
HETATM   31  C   UNL     1      -9.158   5.450  65.880  1.00  0.00    -0.162 C  
HETATM   32  C   UNL     1     -10.413   5.084  66.637  1.00  0.00    -0.301 C  
ENDBRANCH  27  28
ENDBRANCH   1  27
TORSDOF 12
ENDMDL
MODEL       87
REMARK 921   NORMALIZED FREE ENERGY PREDICTED BY IDOCK:   -5.24 KCAL/MOL
REMARK 922        TOTAL FREE ENERGY PREDICTED BY IDOCK:  -10.97 KCAL/MOL
REMARK 923 INTER-LIGAND FREE ENERGY PREDICTED BY IDOCK:   -9.60 KCAL/MOL
REMARK 924 INTRA-LIGAND FREE ENERGY PREDICTED BY IDOCK:   -1.36 KCAL/MOL
REMARK 927      BINDING AFFINITY PREDICTED BY RF-SCORE:    0.00 PKD
ROOT
HETATM    1  C   UNL     1      -9.997  10.639  67.960  1.00  0.00    -0.160 C  
ENDROOT
BRANCH   1   2
HETATM    2  C   UNL     1     -11.532  10.934  68.006  1.00  0.00    -0.281 C  
HETATM    3  O   UNL     1     -11.950  11.720  66.882  1.00  0.00    -0.605 OA 
HETATM    4  H   UNL     1     -12.883  11.900  66.910  1.00  0.00     0.000 HD 
BRANCH   2   5
HETATM    5  C   UNL     1     -11.988  11.567  69.324  1.00  0.00    -0.397 A  
HETATM    6  C   UNL     1     -13.546  15.409  71.430  1.00  0.00    -0.518 C  
HETATM    7  C   UNL     1     -12.442  13.581  70.617  1.00  0.00    -0.333 A  
HETATM    8  C   UNL     1     -12.554  10.814  70.370  1.00  0.00    -0.395 A  
HETATM    9  C   UNL     1     -12.990  12.822  71.651  1.00  0.00    -0.303 A  
HETATM   10  C   UNL     1     -13.467  14.796  72.819  1.00  0.00    -0.474 C  
HETATM   11  C   UNL     1     -11.905  12.964  69.484  1.00  0.00    -0.383 A  
HETATM   12  O   UNL     1     -13.553  13.365  72.777  1.00  0.00    -0.656 OA 
HETATM   13  O   UNL     1     -12.448  14.954  70.631  1.00  0.00    -0.309 OA 
HETATM   14  C   UNL     1     -13.028  11.435  71.535  1.00  0.00    -0.505 A  
ENDBRANCH   2   5
ENDBRANCH   1   2
BRANCH   1  15
HETATM   15  N   UNL     1      -9.367  11.617  67.057  1.00  0.00    -0.177 NA 
HETATM   16  H   UNL     1      -9.420  11.416  66.058  1.00  0.00     0.000 HD 
BRANCH  15  17
HETATM   17  C   UNL     1      -8.765  12.687  67.390  1.00  0.00    -0.191 C  
HETATM   18  H   UNL     1      -7.288  13.575  68.486  1.00  0.00     0.000 HD 
HETATM   19  O   UNL     1      -7.738  12.775  68.237  1.00  0.00    -0.121 OA 
BRANCH  17  20
HETATM   20  C   UNL     1      -9.206  14.013  66.821  1.00  0.00    -0.280 C  
BRANCH  20  21
HETATM   21  C   UNL     1      -8.164  15.110  67.008  1.00  0.00    -0.262 C  
BRANCH  21  22
HETATM   22  C   UNL     1      -8.515  16.407  66.276  1.00  0.00    -0.372 C  
BRANCH  22  23
HETATM   23  C   UNL     1     -10.027  16.528  66.076  1.00  0.00    -0.359 C  
BRANCH  23  24
HETATM   24  C   UNL     1     -10.549  17.898  66.509  1.00  0.00    -0.238 C  
BRANCH  24  25
HETATM   25  C   UNL     1     -10.200  18.182  67.970  1.00  0.00    -0.392 C  
HETATM   26  C   UNL     1     -10.137  19.674  68.250  1.00  0.00    -0.560 C  
ENDBRANCH  24  25
ENDBRANCH  23  24
ENDBRANCH  22  23
ENDBRANCH  21  22
ENDBRANCH  20  21
ENDBRANCH  17  20
ENDBRANCH  15  17
ENDBRANCH   1  15
BRANCH   1  27
HETATM   27  C   UNL     1      -9.557   9.254  67.371  1.00  0.00    -0.150 C  
BRANCH  27  28
HETATM   28  N   UNL     1     -10.478   8.094  67.294  1.00  0.00    -0.300 NA 
HETATM   29  C   UNL     1     -10.723   7.568  68.658  1.00  0.00    -0.077 C  
HETATM   30  C   UNL     1      -9.911   6.984  66.526  1.00  0.00    -0.108 C  
HETATM   31  C   UNL     1     -10.720   6.047  68.582  1.00  0.00    -0.363 C  
HETATM   32  C   UNL     1     -10.482   5.715  67.127  1.00  0.00    -0.334 C  
ENDBRANCH  27  28
ENDBRANCH   1  27
TORSDOF 12
ENDMDL
MODEL       88
REMARK 921   NORMALIZED FREE ENERGY PREDICTED BY IDOCK:   -5.23 KCAL/MOL
REMARK 922        TOTAL FREE ENERGY PREDICTED BY IDOCK:  -10.95 KCAL/MOL
REMARK 923 INTER-LIGAND FREE ENERGY PREDICTED BY IDOCK:   -9.60 KCAL/MOL
REMARK 924 INTRA-LIGAND FREE ENERGY PREDICTED BY IDOCK:   -1.35 KCAL/MOL
REMARK 927      BINDING AFFINITY PREDICTED BY RF-SCORE:    0.00 PKD
ROOT
HETATM    1  C   UNL     1     -11.857  11.673  70.353  1.00  0.00    -0.293 C  
ENDROOT
BRANCH   1   2
HETATM    2  C   UNL     1     -12.070  11.965  68.832  1.00  0.00    -0.155 C  
HETATM    3  O   UNL     1     -12.255  10.755  68.085  1.00  0.00    -0.765 OA 
HETATM    4  H   UNL     1     -12.385  10.932  67.160  1.00  0.00     0.000 HD 
BRANCH   2   5
HETATM    5  C   UNL     1     -10.965  12.830  68.221  1.00  0.00    -0.278 A  
HETATM    6  C   UNL     1      -9.636  17.123  67.023  1.00  0.00    -0.260 C  
HETATM    7  C   UNL     1     -10.298  14.944  67.208  1.00  0.00    -0.251 A  
HETATM    8  C   UNL     1      -9.605  12.468  68.268  1.00  0.00    -0.209 A  
HETATM    9  C   UNL     1      -8.955  14.567  67.251  1.00  0.00    -0.210 A  
HETATM   10  C   UNL     1      -8.366  16.643  66.340  1.00  0.00    -0.318 C  
HETATM   11  C   UNL     1     -11.299  14.072  67.646  1.00  0.00    -0.336 A  
HETATM   12  O   UNL     1      -7.924  15.382  66.859  1.00  0.00    -0.218 OA 
HETATM   13  O   UNL     1     -10.699  16.190  66.792  1.00  0.00    -0.310 OA 
HETATM   14  C   UNL     1      -8.612  13.319  67.763  1.00  0.00    -0.184 A  
ENDBRANCH   2   5
ENDBRANCH   1   2
BRANCH   1  15
HETATM   15  N   UNL     1     -12.112  10.241  70.587  1.00  0.00    -0.313 NA 
HETATM   16  H   UNL     1     -12.932   9.843  70.128  1.00  0.00     0.000 HD 
BRANCH  15  17
HETATM   17  C   UNL     1     -11.419   9.448  71.301  1.00  0.00    -0.363 C  
HETATM   18  H   UNL     1      -9.569   8.790  71.862  1.00  0.00     0.000 HD 
HETATM   19  O   UNL     1     -10.087   9.383  71.329  1.00  0.00    -0.302 OA 
BRANCH  17  20
HETATM   20  C   UNL     1     -12.100   8.458  72.212  1.00  0.00    -0.456 C  
BRANCH  20  21
HETATM   21  C   UNL     1     -11.690   7.017  71.928  1.00  0.00    -0.333 C  
BRANCH  21  22
HETATM   22  C   UNL     1     -12.019   6.565  70.504  1.00  0.00    -0.322 C  
BRANCH  22  23
HETATM   23  C   UNL     1     -10.795   5.939  69.834  1.00  0.00    -0.439 C  
BRANCH  23  24
HETATM   24  C   UNL     1      -9.702   5.606  70.848  1.00  0.00    -0.223 C  
BRANCH  24  25
HETATM   25  C   UNL     1      -9.208   4.169  70.673  1.00  0.00    -0.195 C  
HETATM   26  C   UNL     1      -9.490   3.648  69.274  1.00  0.00    -0.244 C  
ENDBRANCH  24  25
ENDBRANCH  23  24
ENDBRANCH  22  23
ENDBRANCH  21  22
ENDBRANCH  20  21
ENDBRANCH  17  20
ENDBRANCH  15  17
ENDBRANCH   1  15
BRANCH   1  27
HETATM   27  C   UNL     1     -12.824  12.391  71.358  1.00  0.00    -0.260 C  
BRANCH  27  28
HETATM   28  N   UNL     1     -13.145  13.835  71.258  1.00  0.00    -0.320 NA 
HETATM   29  C   UNL     1     -11.946  14.633  71.606  1.00  0.00    -0.309 C  
HETATM   30  C   UNL     1     -14.190  14.238  72.200  1.00  0.00    -0.542 C  
HETATM   31  C   UNL     1     -12.398  15.815  72.452  1.00  0.00    -0.548 C  
HETATM   32  C   UNL     1     -13.899  15.680  72.567  1.00  0.00    -0.642 C  
ENDBRANCH  27  28
ENDBRANCH   1  27
TORSDOF 12
ENDMDL
MODEL       89
REMARK 921   NORMALIZED FREE ENERGY PREDICTED BY IDOCK:   -5.23 KCAL/MOL
REMARK 922        TOTAL FREE ENERGY PREDICTED BY IDOCK:  -10.95 KCAL/MOL
REMARK 923 INTER-LIGAND FREE ENERGY PREDICTED BY IDOCK:   -8.71 KCAL/MOL
REMARK 924 INTRA-LIGAND FREE ENERGY PREDICTED BY IDOCK:   -2.24 KCAL/MOL
REMARK 927      BINDING AFFINITY PREDICTED BY RF-SCORE:    0.00 PKD
ROOT
HETATM    1  C   UNL     1      -9.146  13.196  67.356  1.00  0.00    -0.208 C  
ENDROOT
BRANCH   1   2
HETATM    2  C   UNL     1      -8.451  11.830  67.046  1.00  0.00    -0.175 C  
HETATM    3  O   UNL     1      -8.411  11.568  65.637  1.00  0.00    -0.380 OA 
HETATM    4  H   UNL     1      -7.989  10.738  65.448  1.00  0.00     0.000 HD 
BRANCH   2   5
HETATM    5  C   UNL     1      -9.061  10.653  67.811  1.00  0.00    -0.144 A  
HETATM    6  C   UNL     1     -10.571   6.260  67.579  1.00  0.00    -0.278 C  
HETATM    7  C   UNL     1     -10.223   8.512  67.753  1.00  0.00    -0.225 A  
HETATM    8  C   UNL     1      -8.879  10.472  69.196  1.00  0.00    -0.161 A  
HETATM    9  C   UNL     1     -10.046   8.352  69.128  1.00  0.00    -0.203 A  
HETATM   10  C   UNL     1     -11.109   6.269  69.001  1.00  0.00    -0.378 C  
HETATM   11  C   UNL     1      -9.776   9.667  67.104  1.00  0.00    -0.222 A  
HETATM   12  O   UNL     1     -10.438   7.236  69.820  1.00  0.00    -0.215 OA 
HETATM   13  O   UNL     1     -10.786   7.538  66.966  1.00  0.00    -0.348 OA 
HETATM   14  C   UNL     1      -9.390   9.344  69.852  1.00  0.00    -0.234 A  
ENDBRANCH   2   5
ENDBRANCH   1   2
BRANCH   1  15
HETATM   15  N   UNL     1     -10.230  13.393  66.378  1.00  0.00    -0.287 NA 
HETATM   16  H   UNL     1      -9.950  13.667  65.436  1.00  0.00     0.000 HD 
BRANCH  15  17
HETATM   17  C   UNL     1     -11.479  13.257  66.584  1.00  0.00    -0.347 C  
HETATM   18  H   UNL     1     -13.309  12.735  65.846  1.00  0.00     0.000 HD 
HETATM   19  O   UNL     1     -12.377  12.837  65.692  1.00  0.00    -0.525 OA 
BRANCH  17  20
HETATM   20  C   UNL     1     -12.064  13.593  67.932  1.00  0.00    -0.318 C  
BRANCH  20  21
HETATM   21  C   UNL     1     -12.130  12.387  68.864  1.00  0.00    -0.171 C  
BRANCH  21  22
HETATM   22  C   UNL     1     -11.857  12.739  70.328  1.00  0.00    -0.292 C  
BRANCH  22  23
HETATM   23  C   UNL     1     -12.834  12.013  71.254  1.00  0.00    -0.364 C  
BRANCH  23  24
HETATM   24  C   UNL     1     -13.517  12.975  72.225  1.00  0.00    -0.645 C  
BRANCH  24  25
HETATM   25  C   UNL     1     -13.925  14.269  71.520  1.00  0.00    -0.415 C  
HETATM   26  C   UNL     1     -13.870  15.460  72.462  1.00  0.00    -0.651 C  
ENDBRANCH  24  25
ENDBRANCH  23  24
ENDBRANCH  22  23
ENDBRANCH  21  22
ENDBRANCH  20  21
ENDBRANCH  17  20
ENDBRANCH  15  17
ENDBRANCH   1  15
BRANCH   1  27
HETATM   27  C   UNL     1      -8.272  14.490  67.205  1.00  0.00    -0.208 C  
BRANCH  27  28
HETATM   28  N   UNL     1      -8.593  15.752  67.915  1.00  0.00    -0.158 NA 
HETATM   29  C   UNL     1      -9.301  15.441  69.180  1.00  0.00    -0.246 C  
HETATM   30  C   UNL     1      -9.495  16.609  67.145  1.00  0.00    -0.230 C  
HETATM   31  C   UNL     1     -10.419  16.459  69.354  1.00  0.00    -0.309 C  
HETATM   32  C   UNL     1     -10.321  17.377  68.157  1.00  0.00    -0.366 C  
ENDBRANCH  27  28
ENDBRANCH   1  27
TORSDOF 12
ENDMDL
MODEL       90
REMARK 921   NORMALIZED FREE ENERGY PREDICTED BY IDOCK:   -5.21 KCAL/MOL
REMARK 922        TOTAL FREE ENERGY PREDICTED BY IDOCK:  -10.92 KCAL/MOL
REMARK 923 INTER-LIGAND FREE ENERGY PREDICTED BY IDOCK:   -9.65 KCAL/MOL
REMARK 924 INTRA-LIGAND FREE ENERGY PREDICTED BY IDOCK:   -1.27 KCAL/MOL
REMARK 927      BINDING AFFINITY PREDICTED BY RF-SCORE:    0.00 PKD
ROOT
HETATM    1  C   UNL     1     -11.396  14.252  66.220  1.00  0.00    -0.346 C  
ENDROOT
BRANCH   1   2
HETATM    2  C   UNL     1     -11.311  12.846  65.542  1.00  0.00    -0.307 C  
HETATM    3  O   UNL     1     -12.614  12.307  65.283  1.00  0.00    -0.583 OA 
HETATM    4  H   UNL     1     -12.563  11.452  64.871  1.00  0.00     0.000 HD 
BRANCH   2   5
HETATM    5  C   UNL     1     -10.444  11.851  66.318  1.00  0.00    -0.274 A  
HETATM    6  C   UNL     1     -10.355   7.915  68.794  1.00  0.00    -0.203 C  
HETATM    7  C   UNL     1     -10.305  10.031  67.932  1.00  0.00    -0.207 A  
HETATM    8  C   UNL     1      -9.078  11.656  66.038  1.00  0.00    -0.188 A  
HETATM    9  C   UNL     1      -8.948   9.856  67.653  1.00  0.00    -0.128 A  
HETATM   10  C   UNL     1      -8.889   8.068  69.165  1.00  0.00    -0.145 C  
HETATM   11  C   UNL     1     -11.038  11.043  67.307  1.00  0.00    -0.359 A  
HETATM   12  O   UNL     1      -8.178   8.870  68.213  1.00  0.00    -0.118 OA 
HETATM   13  O   UNL     1     -10.993   9.198  68.779  1.00  0.00    -0.114 OA 
HETATM   14  C   UNL     1      -8.331  10.684  66.719  1.00  0.00    -0.132 A  
ENDBRANCH   2   5
ENDBRANCH   1   2
BRANCH   1  15
HETATM   15  N   UNL     1     -10.451  15.152  65.536  1.00  0.00    -0.348 NA 
HETATM   16  H   UNL     1      -9.587  14.730  65.193  1.00  0.00     0.000 HD 
BRANCH  15  17
HETATM   17  C   UNL     1     -10.598  16.398  65.326  1.00  0.00    -0.299 C  
HETATM   18  H   UNL     1     -11.381  17.878  64.158  1.00  0.00     0.000 HD 
HETATM   19  O   UNL     1     -11.272  16.947  64.315  1.00  0.00    -1.204 OA 
BRANCH  17  20
HETATM   20  C   UNL     1      -9.971  17.401  66.261  1.00  0.00    -0.306 C  
BRANCH  20  21
HETATM   21  C   UNL     1     -10.507  18.814  66.056  1.00  0.00    -0.483 C  
BRANCH  21  22
HETATM   22  C   UNL     1      -9.524  19.903  66.490  1.00  0.00    -0.516 C  
BRANCH  22  23
HETATM   23  C   UNL     1      -8.081  19.476  66.214  1.00  0.00    -0.344 C  
BRANCH  23  24
HETATM   24  C   UNL     1      -7.126  19.968  67.301  1.00  0.00    -0.279 C  
BRANCH  24  25
HETATM   25  C   UNL     1      -7.605  19.540  68.689  1.00  0.00    -0.389 C  
HETATM   26  C   UNL     1      -7.366  18.059  68.931  1.00  0.00    -0.249 C  
ENDBRANCH  24  25
ENDBRANCH  23  24
ENDBRANCH  22  23
ENDBRANCH  21  22
ENDBRANCH  20  21
ENDBRANCH  17  20
ENDBRANCH  15  17
ENDBRANCH   1  15
BRANCH   1  27
HETATM   27  C   UNL     1     -10.968  14.343  67.727  1.00  0.00    -0.274 C  
BRANCH  27  28
HETATM   28  N   UNL     1     -11.933  14.652  68.810  1.00  0.00    -0.293 NA 
HETATM   29  C   UNL     1     -11.547  15.923  69.467  1.00  0.00    -0.335 C  
HETATM   30  C   UNL     1     -11.932  13.634  69.862  1.00  0.00    -0.348 C  
HETATM   31  C   UNL     1     -11.748  15.757  70.966  1.00  0.00    -0.462 C  
HETATM   32  C   UNL     1     -12.278  14.354  71.150  1.00  0.00    -0.420 C  
ENDBRANCH  27  28
ENDBRANCH   1  27
TORSDOF 12
ENDMDL
MODEL       91
REMARK 921   NORMALIZED FREE ENERGY PREDICTED BY IDOCK:   -5.18 KCAL/MOL
REMARK 922        TOTAL FREE ENERGY PREDICTED BY IDOCK:  -10.87 KCAL/MOL
REMARK 923 INTER-LIGAND FREE ENERGY PREDICTED BY IDOCK:   -9.26 KCAL/MOL
REMARK 924 INTRA-LIGAND FREE ENERGY PREDICTED BY IDOCK:   -1.61 KCAL/MOL
REMARK 927      BINDING AFFINITY PREDICTED BY RF-SCORE:    0.00 PKD
ROOT
HETATM    1  C   UNL     1     -10.780  11.178  66.668  1.00  0.00    -0.269 C  
ENDROOT
BRANCH   1   2
HETATM    2  C   UNL     1      -9.936   9.862  66.718  1.00  0.00    -0.214 C  
HETATM    3  O   UNL     1      -9.996   9.151  65.474  1.00  0.00    -0.441 OA 
HETATM    4  H   UNL     1      -9.483   8.352  65.505  1.00  0.00     0.000 HD 
BRANCH   2   5
HETATM    5  C   UNL     1     -10.303   8.952  67.894  1.00  0.00    -0.286 A  
HETATM    6  C   UNL     1     -12.200   8.693  72.132  1.00  0.00    -0.386 C  
HETATM    7  C   UNL     1     -10.917   8.734  70.242  1.00  0.00    -0.235 A  
HETATM    8  C   UNL     1     -10.571   7.579  67.736  1.00  0.00    -0.274 A  
HETATM    9  C   UNL     1     -11.169   7.371  70.073  1.00  0.00    -0.180 A  
HETATM   10  C   UNL     1     -11.815   7.234  72.321  1.00  0.00    -0.248 C  
HETATM   11  C   UNL     1     -10.448   9.511  69.179  1.00  0.00    -0.224 A  
HETATM   12  O   UNL     1     -11.651   6.559  71.066  1.00  0.00    -0.318 OA 
HETATM   13  O   UNL     1     -11.164   9.385  71.425  1.00  0.00    -0.330 OA 
HETATM   14  C   UNL     1     -10.976   6.791  68.823  1.00  0.00    -0.267 A  
ENDBRANCH   2   5
ENDBRANCH   1   2
BRANCH   1  15
HETATM   15  N   UNL     1     -11.070  11.485  65.257  1.00  0.00    -0.237 NA 
HETATM   16  H   UNL     1     -10.604  10.905  64.559  1.00  0.00     0.000 HD 
BRANCH  15  17
HETATM   17  C   UNL     1     -11.841  12.396  64.816  1.00  0.00    -0.382 C  
HETATM   18  H   UNL     1     -13.748  13.074  64.552  1.00  0.00     0.000 HD 
HETATM   19  O   UNL     1     -13.173  12.393  64.881  1.00  0.00    -0.714 OA 
BRANCH  17  20
HETATM   20  C   UNL     1     -11.263  13.613  64.138  1.00  0.00    -0.294 C  
BRANCH  20  21
HETATM   21  C   UNL     1     -11.647  14.914  64.835  1.00  0.00    -0.395 C  
BRANCH  21  22
HETATM   22  C   UNL     1     -10.461  15.618  65.497  1.00  0.00    -0.426 C  
BRANCH  22  23
HETATM   23  C   UNL     1     -10.736  17.114  65.659  1.00  0.00    -0.140 C  
BRANCH  23  24
HETATM   24  C   UNL     1     -10.105  17.672  66.934  1.00  0.00    -0.331 C  
BRANCH  24  25
HETATM   25  C   UNL     1     -10.532  19.121  67.171  1.00  0.00    -0.539 C  
HETATM   26  C   UNL     1     -10.454  19.942  65.895  1.00  0.00    -0.567 C  
ENDBRANCH  24  25
ENDBRANCH  23  24
ENDBRANCH  22  23
ENDBRANCH  21  22
ENDBRANCH  20  21
ENDBRANCH  17  20
ENDBRANCH  15  17
ENDBRANCH   1  15
BRANCH   1  27
HETATM   27  C   UNL     1     -10.093  12.484  67.198  1.00  0.00    -0.214 C  
BRANCH  27  28
HETATM   28  N   UNL     1     -10.517  13.152  68.453  1.00  0.00    -0.249 NA 
HETATM   29  C   UNL     1     -11.884  13.699  68.284  1.00  0.00    -0.369 C  
HETATM   30  C   UNL     1      -9.663  14.291  68.792  1.00  0.00    -0.173 C  
HETATM   31  C   UNL     1     -11.928  15.067  68.949  1.00  0.00    -0.287 C  
HETATM   32  C   UNL     1     -10.546  15.284  69.522  1.00  0.00    -0.272 C  
ENDBRANCH  27  28
ENDBRANCH   1  27
TORSDOF 12
ENDMDL
MODEL       92
REMARK 921   NORMALIZED FREE ENERGY PREDICTED BY IDOCK:   -5.17 KCAL/MOL
REMARK 922        TOTAL FREE ENERGY PREDICTED BY IDOCK:  -10.85 KCAL/MOL
REMARK 923 INTER-LIGAND FREE ENERGY PREDICTED BY IDOCK:   -9.11 KCAL/MOL
REMARK 924 INTRA-LIGAND FREE ENERGY PREDICTED BY IDOCK:   -1.74 KCAL/MOL
REMARK 927      BINDING AFFINITY PREDICTED BY RF-SCORE:    0.00 PKD
ROOT
HETATM    1  C   UNL     1      -9.994  15.703  66.877  1.00  0.00    -0.248 C  
ENDROOT
BRANCH   1   2
HETATM    2  C   UNL     1      -9.473  15.057  68.203  1.00  0.00    -0.196 C  
HETATM    3  O   UNL     1      -8.753  13.844  67.948  1.00  0.00    -0.164 OA 
HETATM    4  H   UNL     1      -8.436  13.451  68.754  1.00  0.00     0.000 HD 
BRANCH   2   5
HETATM    5  C   UNL     1     -10.574  14.841  69.244  1.00  0.00    -0.248 A  
HETATM    6  C   UNL     1     -12.912  11.743  71.806  1.00  0.00    -0.361 C  
HETATM    7  C   UNL     1     -12.119  13.315  70.351  1.00  0.00    -0.327 A  
HETATM    8  C   UNL     1     -10.936  15.826  70.182  1.00  0.00    -0.361 A  
HETATM    9  C   UNL     1     -12.477  14.305  71.267  1.00  0.00    -0.365 A  
HETATM   10  C   UNL     1     -13.894  12.776  72.334  1.00  0.00    -0.263 C  
HETATM   11  C   UNL     1     -11.212  13.587  69.322  1.00  0.00    -0.285 A  
HETATM   12  O   UNL     1     -13.341  14.099  72.311  1.00  0.00    -0.382 OA 
HETATM   13  O   UNL     1     -12.588  12.028  70.440  1.00  0.00    -0.169 OA 
HETATM   14  C   UNL     1     -11.898  15.568  71.168  1.00  0.00    -0.435 A  
ENDBRANCH   2   5
ENDBRANCH   1   2
BRANCH   1  15
HETATM   15  N   UNL     1     -10.253  14.623  65.909  1.00  0.00    -0.309 NA 
HETATM   16  H   UNL     1      -9.484  13.975  65.733  1.00  0.00     0.000 HD 
BRANCH  15  17
HETATM   17  C   UNL     1     -11.333  14.411  65.271  1.00  0.00    -0.346 C  
HETATM   18  H   UNL     1     -12.746  15.113  63.976  1.00  0.00     0.000 HD 
HETATM   19  O   UNL     1     -11.939  15.271  64.452  1.00  0.00    -0.421 OA 
BRANCH  17  20
HETATM   20  C   UNL     1     -12.051  13.092  65.415  1.00  0.00    -0.478 C  
BRANCH  20  21
HETATM   21  C   UNL     1     -11.094  11.914  65.564  1.00  0.00    -0.356 C  
BRANCH  21  22
HETATM   22  C   UNL     1     -11.139  11.271  66.952  1.00  0.00    -0.339 C  
BRANCH  22  23
HETATM   23  C   UNL     1     -10.880   9.766  66.864  1.00  0.00    -0.120 C  
BRANCH  23  24
HETATM   24  C   UNL     1      -9.873   9.302  67.917  1.00  0.00    -0.200 C  
BRANCH  24  25
HETATM   25  C   UNL     1      -8.955  10.448  68.342  1.00  0.00    -0.137 C  
HETATM   26  C   UNL     1      -8.318  10.180  69.695  1.00  0.00    -0.174 C  
ENDBRANCH  24  25
ENDBRANCH  23  24
ENDBRANCH  22  23
ENDBRANCH  21  22
ENDBRANCH  20  21
ENDBRANCH  17  20
ENDBRANCH  15  17
ENDBRANCH   1  15
BRANCH   1  27
HETATM   27  C   UNL     1      -9.009  16.655  66.114  1.00  0.00    -0.286 C  
BRANCH  27  28
HETATM   28  N   UNL     1      -9.318  18.085  65.865  1.00  0.00    -0.504 NA 
HETATM   29  C   UNL     1      -8.229  18.927  66.414  1.00  0.00    -0.294 C  
HETATM   30  C   UNL     1     -10.544  18.513  66.539  1.00  0.00    -0.334 C  
HETATM   31  C   UNL     1      -8.866  20.142  67.076  1.00  0.00    -0.439 C  
HETATM   32  C   UNL     1     -10.355  19.979  66.876  1.00  0.00    -0.567 C  
ENDBRANCH  27  28
ENDBRANCH   1  27
TORSDOF 12
ENDMDL
MODEL       93
REMARK 921   NORMALIZED FREE ENERGY PREDICTED BY IDOCK:   -5.17 KCAL/MOL
REMARK 922        TOTAL FREE ENERGY PREDICTED BY IDOCK:  -10.85 KCAL/MOL
REMARK 923 INTER-LIGAND FREE ENERGY PREDICTED BY IDOCK:   -9.08 KCAL/MOL
REMARK 924 INTRA-LIGAND FREE ENERGY PREDICTED BY IDOCK:   -1.77 KCAL/MOL
REMARK 927      BINDING AFFINITY PREDICTED BY RF-SCORE:    0.00 PKD
ROOT
HETATM    1  C   UNL     1     -10.403  15.856  68.685  1.00  0.00    -0.229 C  
ENDROOT
BRANCH   1   2
HETATM    2  C   UNL     1     -11.400  14.688  68.982  1.00  0.00    -0.277 C  
HETATM    3  O   UNL     1     -11.036  13.976  70.172  1.00  0.00    -0.463 OA 
HETATM    4  H   UNL     1     -11.642  13.266  70.352  1.00  0.00     0.000 HD 
BRANCH   2   5
HETATM    5  C   UNL     1     -11.584  13.733  67.799  1.00  0.00    -0.381 A  
HETATM    6  C   UNL     1     -12.075  13.341  63.191  1.00  0.00    -0.153 C  
HETATM    7  C   UNL     1     -12.222  13.405  65.470  1.00  0.00    -0.455 A  
HETATM    8  C   UNL     1     -11.127  12.401  67.821  1.00  0.00    -0.292 A  
HETATM    9  C   UNL     1     -11.775  12.084  65.510  1.00  0.00    -0.251 A  
HETATM   10  C   UNL     1     -12.344  11.846  63.250  1.00  0.00    -0.391 C  
HETATM   11  C   UNL     1     -12.169  14.212  66.611  1.00  0.00    -0.450 A  
HETATM   12  O   UNL     1     -11.777  11.248  64.423  1.00  0.00    -0.032 OA 
HETATM   13  O   UNL     1     -12.678  13.992  64.316  1.00  0.00    -0.661 OA 
HETATM   14  C   UNL     1     -11.245  11.577  66.693  1.00  0.00    -0.336 A  
ENDBRANCH   2   5
ENDBRANCH   1   2
BRANCH   1  15
HETATM   15  N   UNL     1      -9.212  15.670  69.531  1.00  0.00    -0.281 NA 
HETATM   16  H   UNL     1      -9.341  15.801  70.535  1.00  0.00     0.000 HD 
BRANCH  15  17
HETATM   17  C   UNL     1      -8.039  15.364  69.144  1.00  0.00    -0.233 C  
HETATM   18  H   UNL     1      -6.701  13.899  68.663  1.00  0.00     0.000 HD 
HETATM   19  O   UNL     1      -7.577  14.128  68.952  1.00  0.00    -0.124 OA 
BRANCH  17  20
HETATM   20  C   UNL     1      -7.027  16.447  68.867  1.00  0.00    -0.186 C  
BRANCH  20  21
HETATM   21  C   UNL     1      -5.859  16.426  69.848  1.00  0.00    -0.199 C  
BRANCH  21  22
HETATM   22  C   UNL     1      -5.449  17.820  70.329  1.00  0.00    -0.251 C  
BRANCH  22  23
HETATM   23  C   UNL     1      -6.331  18.897  69.694  1.00  0.00    -0.261 C  
BRANCH  23  24
HETATM   24  C   UNL     1      -6.013  20.287  70.244  1.00  0.00    -0.382 C  
BRANCH  24  25
HETATM   25  C   UNL     1      -5.156  21.084  69.261  1.00  0.00    -0.359 C  
HETATM   26  C   UNL     1      -5.769  21.101  67.871  1.00  0.00    -0.389 C  
ENDBRANCH  24  25
ENDBRANCH  23  24
ENDBRANCH  22  23
ENDBRANCH  21  22
ENDBRANCH  20  21
ENDBRANCH  17  20
ENDBRANCH  15  17
ENDBRANCH   1  15
BRANCH   1  27
HETATM   27  C   UNL     1     -10.884  17.307  69.034  1.00  0.00    -0.044 C  
BRANCH  27  28
HETATM   28  N   UNL     1     -10.771  18.434  68.076  1.00  0.00    -0.314 NA 
HETATM   29  C   UNL     1     -10.026  17.987  66.875  1.00  0.00    -0.340 C  
HETATM   30  C   UNL     1     -10.014  19.559  68.628  1.00  0.00    -0.449 C  
HETATM   31  C   UNL     1      -9.085  19.110  66.461  1.00  0.00    -0.365 C  
HETATM   32  C   UNL     1      -9.323  20.224  67.454  1.00  0.00    -0.531 C  
ENDBRANCH  27  28
ENDBRANCH   1  27
TORSDOF 12
ENDMDL
MODEL       94
REMARK 921   NORMALIZED FREE ENERGY PREDICTED BY IDOCK:   -5.16 KCAL/MOL
REMARK 922        TOTAL FREE ENERGY PREDICTED BY IDOCK:  -10.84 KCAL/MOL
REMARK 923 INTER-LIGAND FREE ENERGY PREDICTED BY IDOCK:   -9.63 KCAL/MOL
REMARK 924 INTRA-LIGAND FREE ENERGY PREDICTED BY IDOCK:   -1.21 KCAL/MOL
REMARK 927      BINDING AFFINITY PREDICTED BY RF-SCORE:    0.00 PKD
ROOT
HETATM    1  C   UNL     1     -11.117  13.086  68.479  1.00  0.00    -0.266 C  
ENDROOT
BRANCH   1   2
HETATM    2  C   UNL     1     -11.828  11.896  69.203  1.00  0.00    -0.311 C  
HETATM    3  O   UNL     1     -11.826  12.070  70.626  1.00  0.00    -0.487 OA 
HETATM    4  H   UNL     1     -12.258  11.347  71.067  1.00  0.00     0.000 HD 
BRANCH   2   5
HETATM    5  C   UNL     1     -11.266  10.527  68.811  1.00  0.00    -0.317 A  
HETATM    6  C   UNL     1      -8.834   8.103  65.675  1.00  0.00    -0.120 C  
HETATM    7  C   UNL     1     -10.347   9.072  67.086  1.00  0.00    -0.272 A  
HETATM    8  C   UNL     1     -10.946   9.538  69.761  1.00  0.00    -0.245 A  
HETATM    9  C   UNL     1     -10.046   8.096  68.037  1.00  0.00    -0.197 A  
HETATM   10  C   UNL     1      -9.112   6.769  66.347  1.00  0.00    -0.152 C  
HETATM   11  C   UNL     1     -10.989  10.257  67.457  1.00  0.00    -0.344 A  
HETATM   12  O   UNL     1      -9.398   6.924  67.744  1.00  0.00    -0.123 OA 
HETATM   13  O   UNL     1      -9.987   8.948  65.767  1.00  0.00    -0.188 OA 
HETATM   14  C   UNL     1     -10.365   8.323  69.373  1.00  0.00    -0.223 A  
ENDBRANCH   2   5
ENDBRANCH   1   2
BRANCH   1  15
HETATM   15  N   UNL     1     -10.686  14.055  69.502  1.00  0.00    -0.444 NA 
HETATM   16  H   UNL     1      -9.781  13.884  69.940  1.00  0.00     0.000 HD 
BRANCH  15  17
HETATM   17  C   UNL     1     -11.323  15.084  69.896  1.00  0.00    -0.278 C  
HETATM   18  H   UNL     1     -13.054  15.870  70.640  1.00  0.00     0.000 HD 
HETATM   19  O   UNL     1     -12.578  15.101  70.346  1.00  0.00    -0.354 OA 
BRANCH  17  20
HETATM   20  C   UNL     1     -10.663  16.439  69.869  1.00  0.00    -0.300 C  
BRANCH  20  21
HETATM   21  C   UNL     1     -10.744  17.107  68.500  1.00  0.00    -0.326 C  
BRANCH  21  22
HETATM   22  C   UNL     1     -10.093  18.491  68.463  1.00  0.00    -0.414 C  
BRANCH  22  23
HETATM   23  C   UNL     1     -10.776  19.387  67.428  1.00  0.00    -0.594 C  
BRANCH  23  24
HETATM   24  C   UNL     1      -9.885  20.558  67.016  1.00  0.00    -0.534 C  
BRANCH  24  25
HETATM   25  C   UNL     1      -8.418  20.275  67.344  1.00  0.00    -0.405 C  
HETATM   26  C   UNL     1      -7.626  19.915  66.098  1.00  0.00    -0.338 C  
ENDBRANCH  24  25
ENDBRANCH  23  24
ENDBRANCH  22  23
ENDBRANCH  21  22
ENDBRANCH  20  21
ENDBRANCH  17  20
ENDBRANCH  15  17
ENDBRANCH   1  15
BRANCH   1  27
HETATM   27  C   UNL     1     -11.988  13.945  67.498  1.00  0.00    -0.386 C  
BRANCH  27  28
HETATM   28  N   UNL     1     -11.656  14.090  66.060  1.00  0.00    -0.345 NA 
HETATM   29  C   UNL     1     -12.529  13.198  65.260  1.00  0.00    -0.495 C  
HETATM   30  C   UNL     1     -10.281  13.685  65.764  1.00  0.00    -0.308 C  
HETATM   31  C   UNL     1     -11.680  12.570  64.164  1.00  0.00    -0.471 C  
HETATM   32  C   UNL     1     -10.293  13.141  64.349  1.00  0.00    -0.390 C  
ENDBRANCH  27  28
ENDBRANCH   1  27
TORSDOF 12
ENDMDL
MODEL       95
REMARK 921   NORMALIZED FREE ENERGY PREDICTED BY IDOCK:   -5.16 KCAL/MOL
REMARK 922        TOTAL FREE ENERGY PREDICTED BY IDOCK:  -10.83 KCAL/MOL
REMARK 923 INTER-LIGAND FREE ENERGY PREDICTED BY IDOCK:   -9.32 KCAL/MOL
REMARK 924 INTRA-LIGAND FREE ENERGY PREDICTED BY IDOCK:   -1.51 KCAL/MOL
REMARK 927      BINDING AFFINITY PREDICTED BY RF-SCORE:    0.00 PKD
ROOT
HETATM    1  C   UNL     1      -9.470  13.562  67.082  1.00  0.00    -0.244 C  
ENDROOT
BRANCH   1   2
HETATM    2  C   UNL     1     -10.141  14.582  66.104  1.00  0.00    -0.305 C  
HETATM    3  O   UNL     1     -10.045  14.144  64.742  1.00  0.00    -0.554 OA 
HETATM    4  H   UNL     1     -10.453  14.764  64.147  1.00  0.00     0.000 HD 
BRANCH   2   5
HETATM    5  C   UNL     1      -9.617  16.011  66.265  1.00  0.00    -0.336 A  
HETATM    6  C   UNL     1     -10.383  20.226  68.075  1.00  0.00    -0.242 C  
HETATM    7  C   UNL     1     -10.064  18.339  66.825  1.00  0.00    -0.364 A  
HETATM    8  C   UNL     1      -8.245  16.324  66.225  1.00  0.00    -0.312 A  
HETATM    9  C   UNL     1      -8.702  18.639  66.770  1.00  0.00    -0.292 A  
HETATM   10  C   UNL     1      -9.184  20.849  67.379  1.00  0.00    -0.139 C  
HETATM   11  C   UNL     1     -10.525  17.053  66.534  1.00  0.00    -0.250 A  
HETATM   12  O   UNL     1      -8.182  19.872  67.066  1.00  0.00    -0.291 OA 
HETATM   13  O   UNL     1     -11.003  19.262  67.214  1.00  0.00    -0.483 OA 
HETATM   14  C   UNL     1      -7.794  17.633  66.450  1.00  0.00    -0.318 A  
ENDBRANCH   2   5
ENDBRANCH   1   2
BRANCH   1  15
HETATM   15  N   UNL     1      -9.830  12.202  66.647  1.00  0.00    -0.207 NA 
HETATM   16  H   UNL     1      -9.069  11.617  66.299  1.00  0.00     0.000 HD 
BRANCH  15  17
HETATM   17  C   UNL     1     -10.990  11.678  66.660  1.00  0.00    -0.299 C  
HETATM   18  H   UNL     1     -12.937  11.766  66.054  1.00  0.00     0.000 HD 
HETATM   19  O   UNL     1     -12.071  12.157  66.045  1.00  0.00    -0.612 OA 
BRANCH  17  20
HETATM   20  C   UNL     1     -11.236  10.404  67.428  1.00  0.00    -0.205 C  
BRANCH  20  21
HETATM   21  C   UNL     1      -9.948   9.766  67.940  1.00  0.00    -0.196 C  
BRANCH  21  22
HETATM   22  C   UNL     1      -9.847   9.750  69.467  1.00  0.00    -0.230 C  
BRANCH  22  23
HETATM   23  C   UNL     1     -11.193  10.096  70.106  1.00  0.00    -0.377 C  
BRANCH  23  24
HETATM   24  C   UNL     1     -11.291   9.575  71.539  1.00  0.00    -0.456 C  
BRANCH  24  25
HETATM   25  C   UNL     1     -11.241   8.047  71.573  1.00  0.00    -0.296 C  
HETATM   26  C   UNL     1     -11.271   7.519  72.997  1.00  0.00    -0.373 C  
ENDBRANCH  24  25
ENDBRANCH  23  24
ENDBRANCH  22  23
ENDBRANCH  21  22
ENDBRANCH  20  21
ENDBRANCH  17  20
ENDBRANCH  15  17
ENDBRANCH   1  15
BRANCH   1  27
HETATM   27  C   UNL     1      -9.929  13.606  68.581  1.00  0.00    -0.161 C  
BRANCH  27  28
HETATM   28  N   UNL     1     -11.066  14.441  69.039  1.00  0.00    -0.251 NA 
HETATM   29  C   UNL     1     -10.565  15.502  69.945  1.00  0.00    -0.313 C  
HETATM   30  C   UNL     1     -12.042  13.673  69.814  1.00  0.00    -0.334 C  
HETATM   31  C   UNL     1     -11.552  15.643  71.095  1.00  0.00    -0.462 C  
HETATM   32  C   UNL     1     -12.647  14.639  70.814  1.00  0.00    -0.415 C  
ENDBRANCH  27  28
ENDBRANCH   1  27
TORSDOF 12
ENDMDL
MODEL       96
REMARK 921   NORMALIZED FREE ENERGY PREDICTED BY IDOCK:   -5.14 KCAL/MOL
REMARK 922        TOTAL FREE ENERGY PREDICTED BY IDOCK:  -10.80 KCAL/MOL
REMARK 923 INTER-LIGAND FREE ENERGY PREDICTED BY IDOCK:   -9.10 KCAL/MOL
REMARK 924 INTRA-LIGAND FREE ENERGY PREDICTED BY IDOCK:   -1.70 KCAL/MOL
REMARK 927      BINDING AFFINITY PREDICTED BY RF-SCORE:    0.00 PKD
ROOT
HETATM    1  C   UNL     1     -10.096  15.402  69.368  1.00  0.00    -0.269 C  
ENDROOT
BRANCH   1   2
HETATM    2  C   UNL     1     -10.020  13.945  68.803  1.00  0.00    -0.135 C  
HETATM    3  O   UNL     1      -8.667  13.473  68.747  1.00  0.00    -0.355 OA 
HETATM    4  H   UNL     1      -8.621  12.588  68.404  1.00  0.00     0.000 HD 
BRANCH   2   5
HETATM    5  C   UNL     1     -10.719  13.784  67.451  1.00  0.00    -0.279 A  
HETATM    6  C   UNL     1     -11.022  11.300  63.530  1.00  0.00    -0.245 C  
HETATM    7  C   UNL     1     -10.725  12.815  65.215  1.00  0.00    -0.294 A  
HETATM    8  C   UNL     1     -12.034  14.232  67.218  1.00  0.00    -0.439 A  
HETATM    9  C   UNL     1     -12.024  13.276  64.994  1.00  0.00    -0.371 A  
HETATM   10  C   UNL     1     -12.000  12.266  62.880  1.00  0.00     0.269 C  
HETATM   11  C   UNL     1     -10.060  13.101  66.410  1.00  0.00    -0.281 A  
HETATM   12  O   UNL     1     -12.741  13.012  63.855  1.00  0.00    -0.672 OA 
HETATM   13  O   UNL     1     -10.062  12.025  64.309  1.00  0.00    -0.289 OA 
HETATM   14  C   UNL     1     -12.670  14.002  65.991  1.00  0.00    -0.379 A  
ENDBRANCH   2   5
ENDBRANCH   1   2
BRANCH   1  15
HETATM   15  N   UNL     1      -8.721  15.907  69.525  1.00  0.00    -0.192 NA 
HETATM   16  H   UNL     1      -8.293  15.788  70.444  1.00  0.00     0.000 HD 
BRANCH  15  17
HETATM   17  C   UNL     1      -8.009  16.475  68.636  1.00  0.00    -0.232 C  
HETATM   18  H   UNL     1      -7.162  16.391  66.781  1.00  0.00     0.000 HD 
HETATM   19  O   UNL     1      -7.693  15.967  67.445  1.00  0.00    -0.144 OA 
BRANCH  17  20
HETATM   20  C   UNL     1      -7.432  17.845  68.891  1.00  0.00    -0.234 C  
BRANCH  20  21
HETATM   21  C   UNL     1      -8.237  18.957  68.226  1.00  0.00    -0.362 C  
BRANCH  21  22
HETATM   22  C   UNL     1      -9.692  19.012  68.696  1.00  0.00    -0.468 C  
BRANCH  22  23
HETATM   23  C   UNL     1     -10.597  19.576  67.599  1.00  0.00    -0.566 C  
BRANCH  23  24
HETATM   24  C   UNL     1     -10.026  19.320  66.205  1.00  0.00    -0.466 C  
BRANCH  24  25
HETATM   25  C   UNL     1     -10.841  18.260  65.463  1.00  0.00     0.157 C  
HETATM   26  C   UNL     1     -10.307  16.861  65.724  1.00  0.00    -0.298 C  
ENDBRANCH  24  25
ENDBRANCH  23  24
ENDBRANCH  22  23
ENDBRANCH  21  22
ENDBRANCH  20  21
ENDBRANCH  17  20
ENDBRANCH  15  17
ENDBRANCH   1  15
BRANCH   1  27
HETATM   27  C   UNL     1     -10.720  15.580  70.796  1.00  0.00    -0.167 C  
BRANCH  27  28
HETATM   28  N   UNL     1     -12.160  15.870  71.002  1.00  0.00    -0.409 NA 
HETATM   29  C   UNL     1     -12.387  16.261  72.414  1.00  0.00    -0.388 C  
HETATM   30  C   UNL     1     -13.003  14.697  70.765  1.00  0.00    -0.347 C  
HETATM   31  C   UNL     1     -13.679  15.606  72.880  1.00  0.00    -0.628 C  
HETATM   32  C   UNL     1     -14.198  14.838  71.687  1.00  0.00    -0.618 C  
ENDBRANCH  27  28
ENDBRANCH   1  27
TORSDOF 12
ENDMDL
MODEL       97
REMARK 921   NORMALIZED FREE ENERGY PREDICTED BY IDOCK:   -5.13 KCAL/MOL
REMARK 922        TOTAL FREE ENERGY PREDICTED BY IDOCK:  -10.79 KCAL/MOL
REMARK 923 INTER-LIGAND FREE ENERGY PREDICTED BY IDOCK:   -9.28 KCAL/MOL
REMARK 924 INTRA-LIGAND FREE ENERGY PREDICTED BY IDOCK:   -1.52 KCAL/MOL
REMARK 927      BINDING AFFINITY PREDICTED BY RF-SCORE:    0.00 PKD
ROOT
HETATM    1  C   UNL     1     -10.025   9.161  70.583  1.00  0.00    -0.248 C  
ENDROOT
BRANCH   1   2
HETATM    2  C   UNL     1      -9.130   9.967  69.584  1.00  0.00    -0.227 C  
HETATM    3  O   UNL     1      -8.001  10.552  70.245  1.00  0.00    -0.400 OA 
HETATM    4  H   UNL     1      -7.457  11.042  69.638  1.00  0.00     0.000 HD 
BRANCH   2   5
HETATM    5  C   UNL     1      -9.909  11.015  68.785  1.00  0.00    -0.206 A  
HETATM    6  C   UNL     1      -9.675  14.950  66.317  1.00  0.00    -0.296 C  
HETATM    7  C   UNL     1      -9.991  13.243  67.804  1.00  0.00    -0.223 A  
HETATM    8  C   UNL     1     -11.115  10.720  68.121  1.00  0.00    -0.337 A  
HETATM    9  C   UNL     1     -11.193  12.942  67.161  1.00  0.00    -0.289 A  
HETATM   10  C   UNL     1     -11.185  15.073  66.190  1.00  0.00    -0.307 C  
HETATM   11  C   UNL     1      -9.375  12.310  68.642  1.00  0.00    -0.016 A  
HETATM   12  O   UNL     1     -11.837  13.802  66.310  1.00  0.00    -0.357 OA 
HETATM   13  O   UNL     1      -9.333  14.432  67.609  1.00  0.00    -0.192 OA 
HETATM   14  C   UNL     1     -11.764  11.684  67.337  1.00  0.00    -0.278 A  
ENDBRANCH   2   5
ENDBRANCH   1   2
BRANCH   1  15
HETATM   15  N   UNL     1     -11.105  10.046  71.051  1.00  0.00    -0.328 NA 
HETATM   16  H   UNL     1     -10.868  11.032  71.167  1.00  0.00     0.000 HD 
BRANCH  15  17
HETATM   17  C   UNL     1     -12.302   9.713  71.324  1.00  0.00    -0.360 C  
HETATM   18  H   UNL     1     -13.727   8.251  71.364  1.00  0.00     0.000 HD 
HETATM   19  O   UNL     1     -12.832   8.500  71.160  1.00  0.00    -0.219 OA 
BRANCH  17  20
HETATM   20  C   UNL     1     -13.265  10.734  71.876  1.00  0.00    -0.524 C  
BRANCH  20  21
HETATM   21  C   UNL     1     -12.920  12.158  71.453  1.00  0.00    -0.357 C  
BRANCH  21  22
HETATM   22  C   UNL     1     -13.388  13.216  72.454  1.00  0.00    -0.591 C  
BRANCH  22  23
HETATM   23  C   UNL     1     -14.109  14.361  71.740  1.00  0.00    -0.558 C  
BRANCH  23  24
HETATM   24  C   UNL     1     -13.363  15.686  71.898  1.00  0.00    -0.537 C  
BRANCH  24  25
HETATM   25  C   UNL     1     -11.860  15.455  72.052  1.00  0.00    -0.523 C  
HETATM   26  C   UNL     1     -11.137  15.570  70.721  1.00  0.00    -0.383 C  
ENDBRANCH  24  25
ENDBRANCH  23  24
ENDBRANCH  22  23
ENDBRANCH  21  22
ENDBRANCH  20  21
ENDBRANCH  17  20
ENDBRANCH  15  17
ENDBRANCH   1  15
BRANCH   1  27
HETATM   27  C   UNL     1      -9.346   8.672  71.910  1.00  0.00    -0.287 C  
BRANCH  27  28
HETATM   28  N   UNL     1      -9.433   7.266  72.375  1.00  0.00    -0.147 NA 
HETATM   29  C   UNL     1      -9.814   6.393  71.240  1.00  0.00    -0.181 C  
HETATM   30  C   UNL     1     -10.466   7.081  73.395  1.00  0.00    -0.347 C  
HETATM   31  C   UNL     1     -10.815   5.367  71.753  1.00  0.00    -0.242 C  
HETATM   32  C   UNL     1     -10.986   5.668  73.224  1.00  0.00    -0.316 C  
ENDBRANCH  27  28
ENDBRANCH   1  27
TORSDOF 12
ENDMDL
MODEL       98
REMARK 921   NORMALIZED FREE ENERGY PREDICTED BY IDOCK:   -5.13 KCAL/MOL
REMARK 922        TOTAL FREE ENERGY PREDICTED BY IDOCK:  -10.79 KCAL/MOL
REMARK 923 INTER-LIGAND FREE ENERGY PREDICTED BY IDOCK:   -9.31 KCAL/MOL
REMARK 924 INTRA-LIGAND FREE ENERGY PREDICTED BY IDOCK:   -1.48 KCAL/MOL
REMARK 927      BINDING AFFINITY PREDICTED BY RF-SCORE:    0.00 PKD
ROOT
HETATM    1  C   UNL     1     -11.010  15.299  67.638  1.00  0.00    -0.311 C  
ENDROOT
BRANCH   1   2
HETATM    2  C   UNL     1     -11.827  14.007  67.305  1.00  0.00    -0.411 C  
HETATM    3  O   UNL     1     -11.852  13.101  68.416  1.00  0.00    -0.332 OA 
HETATM    4  H   UNL     1     -12.348  12.315  68.214  1.00  0.00     0.000 HD 
BRANCH   2   5
HETATM    5  C   UNL     1     -11.357  13.306  66.028  1.00  0.00    -0.329 A  
HETATM    6  C   UNL     1      -9.031   9.701  64.233  1.00  0.00    -0.229 C  
HETATM    7  C   UNL     1      -9.866  11.697  64.967  1.00  0.00    -0.248 A  
HETATM    8  C   UNL     1     -12.044  13.418  64.804  1.00  0.00    -0.448 A  
HETATM    9  C   UNL     1     -10.549  11.826  63.757  1.00  0.00    -0.415 A  
HETATM   10  C   UNL     1      -9.130  10.222  62.809  1.00  0.00    -0.284 C  
HETATM   11  C   UNL     1     -10.233  12.458  66.081  1.00  0.00    -0.262 A  
HETATM   12  O   UNL     1     -10.255  11.095  62.636  1.00  0.00    -0.096 OA 
HETATM   13  O   UNL     1      -8.848  10.792  65.143  1.00  0.00    -0.195 OA 
HETATM   14  C   UNL     1     -11.627  12.703  63.672  1.00  0.00    -0.575 A  
ENDBRANCH   2   5
ENDBRANCH   1   2
BRANCH   1  15
HETATM   15  N   UNL     1     -10.505  15.863  66.374  1.00  0.00    -0.302 NA 
HETATM   16  H   UNL     1      -9.889  15.265  65.822  1.00  0.00     0.000 HD 
BRANCH  15  17
HETATM   17  C   UNL     1     -10.757  17.015  65.897  1.00  0.00    -0.139 C  
HETATM   18  H   UNL     1     -11.236  18.149  64.269  1.00  0.00     0.000 HD 
HETATM   19  O   UNL     1     -11.049  17.288  64.625  1.00  0.00    -1.052 OA 
BRANCH  17  20
HETATM   20  C   UNL     1     -10.729  18.227  66.794  1.00  0.00    -0.247 C  
BRANCH  20  21
HETATM   21  C   UNL     1     -10.446  19.518  66.032  1.00  0.00    -0.611 C  
BRANCH  21  22
HETATM   22  C   UNL     1      -9.635  20.531  66.841  1.00  0.00    -0.496 C  
BRANCH  22  23
HETATM   23  C   UNL     1      -8.684  19.822  67.808  1.00  0.00    -0.380 C  
BRANCH  23  24
HETATM   24  C   UNL     1      -7.233  19.900  67.336  1.00  0.00    -0.279 C  
BRANCH  24  25
HETATM   25  C   UNL     1      -6.356  20.605  68.370  1.00  0.00    -0.341 C  
HETATM   26  C   UNL     1      -6.417  19.912  69.721  1.00  0.00    -0.391 C  
ENDBRANCH  24  25
ENDBRANCH  23  24
ENDBRANCH  22  23
ENDBRANCH  21  22
ENDBRANCH  20  21
ENDBRANCH  17  20
ENDBRANCH  15  17
ENDBRANCH   1  15
BRANCH   1  27
HETATM   27  C   UNL     1      -9.716  15.119  68.506  1.00  0.00    -0.214 C  
BRANCH  27  28
HETATM   28  N   UNL     1      -8.366  15.468  68.002  1.00  0.00    -0.140 NA 
HETATM   29  C   UNL     1      -7.517  14.253  67.982  1.00  0.00    -0.142 C  
HETATM   30  C   UNL     1      -7.680  16.428  68.868  1.00  0.00    -0.230 C  
HETATM   31  C   UNL     1      -6.128  14.642  68.467  1.00  0.00    -0.091 C  
HETATM   32  C   UNL     1      -6.200  16.125  68.752  1.00  0.00    -0.117 C  
ENDBRANCH  27  28
ENDBRANCH   1  27
TORSDOF 12
ENDMDL
MODEL       99
REMARK 921   NORMALIZED FREE ENERGY PREDICTED BY IDOCK:   -5.13 KCAL/MOL
REMARK 922        TOTAL FREE ENERGY PREDICTED BY IDOCK:  -10.79 KCAL/MOL
REMARK 923 INTER-LIGAND FREE ENERGY PREDICTED BY IDOCK:   -8.67 KCAL/MOL
REMARK 924 INTRA-LIGAND FREE ENERGY PREDICTED BY IDOCK:   -2.11 KCAL/MOL
REMARK 927      BINDING AFFINITY PREDICTED BY RF-SCORE:    0.00 PKD
ROOT
HETATM    1  C   UNL     1     -11.504  13.146  68.838  1.00  0.00    -0.298 C  
ENDROOT
BRANCH   1   2
HETATM    2  C   UNL     1     -11.839  11.715  69.374  1.00  0.00    -0.342 C  
HETATM    3  O   UNL     1     -11.850  11.681  70.808  1.00  0.00    -0.435 OA 
HETATM    4  H   UNL     1     -12.054  10.812  71.134  1.00  0.00     0.000 HD 
BRANCH   2   5
HETATM    5  C   UNL     1     -10.929  10.626  68.801  1.00  0.00    -0.292 A  
HETATM    6  C   UNL     1      -8.623   9.088  65.067  1.00  0.00    -0.181 C  
HETATM    7  C   UNL     1      -9.992   9.514  66.846  1.00  0.00    -0.216 A  
HETATM    8  C   UNL     1     -10.048   9.875  69.602  1.00  0.00    -0.254 A  
HETATM    9  C   UNL     1      -9.132   8.768  67.653  1.00  0.00    -0.134 A  
HETATM   10  C   UNL     1      -8.220   7.782  65.733  1.00  0.00    -0.132 C  
HETATM   11  C   UNL     1     -10.912  10.402  67.411  1.00  0.00    -0.335 A  
HETATM   12  O   UNL     1      -8.192   7.899  67.163  1.00  0.00    -0.115 OA 
HETATM   13  O   UNL     1      -9.945   9.459  65.475  1.00  0.00    -0.281 OA 
HETATM   14  C   UNL     1      -9.175   8.936  69.034  1.00  0.00    -0.140 A  
ENDBRANCH   2   5
ENDBRANCH   1   2
BRANCH   1  15
HETATM   15  N   UNL     1     -10.071  13.399  69.066  1.00  0.00    -0.430 NA 
HETATM   16  H   UNL     1      -9.706  13.153  69.987  1.00  0.00     0.000 HD 
BRANCH  15  17
HETATM   17  C   UNL     1      -9.241  13.893  68.238  1.00  0.00    -0.207 C  
HETATM   18  H   UNL     1      -7.606  15.073  67.919  1.00  0.00     0.000 HD 
HETATM   19  O   UNL     1      -8.226  14.704  68.538  1.00  0.00    -0.139 OA 
BRANCH  17  20
HETATM   20  C   UNL     1      -9.363  13.581  66.767  1.00  0.00    -0.262 C  
BRANCH  20  21
HETATM   21  C   UNL     1      -9.553  14.830  65.914  1.00  0.00    -0.320 C  
BRANCH  21  22
HETATM   22  C   UNL     1     -10.828  15.605  66.253  1.00  0.00    -0.262 C  
BRANCH  22  23
HETATM   23  C   UNL     1     -10.527  17.092  66.449  1.00  0.00    -0.255 C  
BRANCH  23  24
HETATM   24  C   UNL     1     -10.242  17.424  67.913  1.00  0.00    -0.348 C  
BRANCH  24  25
HETATM   25  C   UNL     1      -8.985  18.283  68.048  1.00  0.00    -0.301 C  
HETATM   26  C   UNL     1      -8.025  18.054  66.893  1.00  0.00    -0.251 C  
ENDBRANCH  24  25
ENDBRANCH  23  24
ENDBRANCH  22  23
ENDBRANCH  21  22
ENDBRANCH  20  21
ENDBRANCH  17  20
ENDBRANCH  15  17
ENDBRANCH   1  15
BRANCH   1  27
HETATM   27  C   UNL     1     -12.212  14.354  69.544  1.00  0.00    -0.282 C  
BRANCH  27  28
HETATM   28  N   UNL     1     -12.235  14.510  71.019  1.00  0.00    -0.318 NA 
HETATM   29  C   UNL     1     -13.639  14.631  71.480  1.00  0.00    -0.405 C  
HETATM   30  C   UNL     1     -11.556  15.729  71.460  1.00  0.00    -0.459 C  
HETATM   31  C   UNL     1     -13.685  15.698  72.565  1.00  0.00    -0.651 C  
HETATM   32  C   UNL     1     -12.261  16.176  72.725  1.00  0.00    -0.628 C  
ENDBRANCH  27  28
ENDBRANCH   1  27
TORSDOF 12
ENDMDL
MODEL      100
REMARK 921   NORMALIZED FREE ENERGY PREDICTED BY IDOCK:   -5.13 KCAL/MOL
REMARK 922        TOTAL FREE ENERGY PREDICTED BY IDOCK:  -10.78 KCAL/MOL
REMARK 923 INTER-LIGAND FREE ENERGY PREDICTED BY IDOCK:   -8.59 KCAL/MOL
REMARK 924 INTRA-LIGAND FREE ENERGY PREDICTED BY IDOCK:   -2.19 KCAL/MOL
REMARK 927      BINDING AFFINITY PREDICTED BY RF-SCORE:    0.00 PKD
ROOT
HETATM    1  C   UNL     1     -10.611   9.139  69.107  1.00  0.00    -0.208 C  
ENDROOT
BRANCH   1   2
HETATM    2  C   UNL     1     -11.133  10.543  68.658  1.00  0.00    -0.267 C  
HETATM    3  O   UNL     1     -10.089  11.328  68.068  1.00  0.00    -0.169 OA 
HETATM    4  H   UNL     1     -10.406  12.181  67.794  1.00  0.00     0.000 HD 
BRANCH   2   5
HETATM    5  C   UNL     1     -11.841  11.312  69.776  1.00  0.00    -0.437 A  
HETATM    6  C   UNL     1     -13.677  15.372  71.110  1.00  0.00    -0.417 C  
HETATM    7  C   UNL     1     -12.490  13.455  70.738  1.00  0.00    -0.341 A  
HETATM    8  C   UNL     1     -12.649  10.679  70.740  1.00  0.00    -0.479 A  
HETATM    9  C   UNL     1     -13.278  12.813  71.694  1.00  0.00    -0.317 A  
HETATM   10  C   UNL     1     -13.924  14.902  72.534  1.00  0.00    -0.440 C  
HETATM   11  C   UNL     1     -11.744  12.717  69.815  1.00  0.00    -0.352 A  
HETATM   12  O   UNL     1     -14.052  13.476  72.612  1.00  0.00    -0.762 OA 
HETATM   13  O   UNL     1     -12.449  14.822  70.619  1.00  0.00    -0.305 OA 
HETATM   14  C   UNL     1     -13.341  11.422  71.706  1.00  0.00    -0.368 A  
ENDBRANCH   2   5
ENDBRANCH   1   2
BRANCH   1  15
HETATM   15  N   UNL     1      -9.294   9.319  69.743  1.00  0.00    -0.175 NA 
HETATM   16  H   UNL     1      -8.540   9.652  69.141  1.00  0.00     0.000 HD 
BRANCH  15  17
HETATM   17  C   UNL     1      -8.998   9.105  70.961  1.00  0.00    -0.214 C  
HETATM   18  H   UNL     1      -7.555   9.007  72.402  1.00  0.00     0.000 HD 
HETATM   19  O   UNL     1      -7.776   9.167  71.491  1.00  0.00    -0.325 OA 
BRANCH  17  20
HETATM   20  C   UNL     1     -10.076   8.734  71.948  1.00  0.00    -0.409 C  
BRANCH  20  21
HETATM   21  C   UNL     1      -9.534   7.978  73.157  1.00  0.00    -0.349 C  
BRANCH  21  22
HETATM   22  C   UNL     1     -10.463   6.861  73.637  1.00  0.00    -0.400 C  
BRANCH  22  23
HETATM   23  C   UNL     1      -9.781   5.497  73.521  1.00  0.00    -0.153 C  
BRANCH  23  24
HETATM   24  C   UNL     1      -8.271   5.599  73.731  1.00  0.00    -0.111 C  
BRANCH  24  25
HETATM   25  C   UNL     1      -7.510   4.880  72.616  1.00  0.00    -0.091 C  
HETATM   26  C   UNL     1      -6.797   5.863  71.703  1.00  0.00    -0.068 C  
ENDBRANCH  24  25
ENDBRANCH  23  24
ENDBRANCH  22  23
ENDBRANCH  21  22
ENDBRANCH  20  21
ENDBRANCH  17  20
ENDBRANCH  15  17
ENDBRANCH   1  15
BRANCH   1  27
HETATM   27  C   UNL     1     -10.336   8.086  67.977  1.00  0.00    -0.206 C  
BRANCH  27  28
HETATM   28  N   UNL     1     -10.419   6.625  68.215  1.00  0.00    -0.189 NA 
HETATM   29  C   UNL     1     -11.186   6.370  69.458  1.00  0.00    -0.412 C  
HETATM   30  C   UNL     1      -9.102   6.020  68.420  1.00  0.00    -0.112 C  
HETATM   31  C   UNL     1     -10.494   5.245  70.214  1.00  0.00    -0.332 C  
HETATM   32  C   UNL     1      -9.313   4.849  69.359  1.00  0.00    -0.186 C  
ENDBRANCH  27  28
ENDBRANCH   1  27
TORSDOF 12
ENDMDL
MODEL      101
REMARK 921   NORMALIZED FREE ENERGY PREDICTED BY IDOCK:   -5.11 KCAL/MOL
REMARK 922        TOTAL FREE ENERGY PREDICTED BY IDOCK:  -10.75 KCAL/MOL
REMARK 923 INTER-LIGAND FREE ENERGY PREDICTED BY IDOCK:  -10.01 KCAL/MOL
REMARK 924 INTRA-LIGAND FREE ENERGY PREDICTED BY IDOCK:   -0.74 KCAL/MOL
REMARK 927      BINDING AFFINITY PREDICTED BY RF-SCORE:    0.00 PKD
ROOT
HETATM    1  C   UNL     1     -11.166  14.926  67.534  1.00  0.00    -0.328 C  
ENDROOT
BRANCH   1   2
HETATM    2  C   UNL     1     -11.825  13.912  66.542  1.00  0.00    -0.414 C  
HETATM    3  O   UNL     1     -13.247  14.084  66.482  1.00  0.00    -0.182 OA 
HETATM    4  H   UNL     1     -13.648  13.468  65.879  1.00  0.00     0.000 HD 
BRANCH   2   5
HETATM    5  C   UNL     1     -11.455  12.455  66.832  1.00  0.00    -0.423 A  
HETATM    6  C   UNL     1      -8.775   8.841  65.653  1.00  0.00    -0.184 C  
HETATM    7  C   UNL     1     -10.399  10.389  66.087  1.00  0.00    -0.200 A  
HETATM    8  C   UNL     1     -11.608  11.872  68.105  1.00  0.00    -0.400 A  
HETATM    9  C   UNL     1     -10.567   9.820  67.350  1.00  0.00    -0.267 A  
HETATM   10  C   UNL     1      -9.482   7.884  66.599  1.00  0.00    -0.211 C  
HETATM   11  C   UNL     1     -10.875  11.674  65.813  1.00  0.00    -0.334 A  
HETATM   12  O   UNL     1     -10.105   8.575  67.691  1.00  0.00    -0.184 OA 
HETATM   13  O   UNL     1      -9.721   9.750  65.078  1.00  0.00    -0.298 OA 
HETATM   14  C   UNL     1     -11.191  10.557  68.354  1.00  0.00    -0.339 A  
ENDBRANCH   2   5
ENDBRANCH   1   2
BRANCH   1  15
HETATM   15  N   UNL     1      -9.726  14.993  67.234  1.00  0.00    -0.219 NA 
HETATM   16  H   UNL     1      -9.135  14.285  67.671  1.00  0.00     0.000 HD 
BRANCH  15  17
HETATM   17  C   UNL     1      -9.140  15.841  66.487  1.00  0.00    -0.293 C  
HETATM   18  H   UNL     1      -9.229  17.069  64.860  1.00  0.00     0.000 HD 
HETATM   19  O   UNL     1      -9.667  16.436  65.418  1.00  0.00    -0.486 OA 
BRANCH  17  20
HETATM   20  C   UNL     1      -7.716  16.245  66.776  1.00  0.00    -0.295 C  
BRANCH  20  21
HETATM   21  C   UNL     1      -7.559  17.750  66.971  1.00  0.00    -0.228 C  
BRANCH  21  22
HETATM   22  C   UNL     1      -7.478  18.162  68.442  1.00  0.00    -0.287 C  
BRANCH  22  23
HETATM   23  C   UNL     1      -8.248  19.461  68.687  1.00  0.00    -0.399 C  
BRANCH  23  24
HETATM   24  C   UNL     1      -9.699  19.357  68.221  1.00  0.00    -0.480 C  
BRANCH  24  25
HETATM   25  C   UNL     1     -10.008  20.400  67.147  1.00  0.00    -0.568 C  
HETATM   26  C   UNL     1     -10.417  19.748  65.836  1.00  0.00    -0.587 C  
ENDBRANCH  24  25
ENDBRANCH  23  24
ENDBRANCH  22  23
ENDBRANCH  21  22
ENDBRANCH  20  21
ENDBRANCH  17  20
ENDBRANCH  15  17
ENDBRANCH   1  15
BRANCH   1  27
HETATM   27  C   UNL     1     -11.210  14.560  69.059  1.00  0.00    -0.268 C  
BRANCH  27  28
HETATM   28  N   UNL     1     -12.208  15.145  69.988  1.00  0.00    -0.336 NA 
HETATM   29  C   UNL     1     -11.532  16.091  70.907  1.00  0.00    -0.416 C  
HETATM   30  C   UNL     1     -12.836  14.132  70.837  1.00  0.00    -0.334 C  
HETATM   31  C   UNL     1     -12.123  15.898  72.296  1.00  0.00    -0.597 C  
HETATM   32  C   UNL     1     -13.172  14.821  72.145  1.00  0.00    -0.452 C  
ENDBRANCH  27  28
ENDBRANCH   1  27
TORSDOF 12
ENDMDL
MODEL      102
REMARK 921   NORMALIZED FREE ENERGY PREDICTED BY IDOCK:   -5.10 KCAL/MOL
REMARK 922        TOTAL FREE ENERGY PREDICTED BY IDOCK:  -10.73 KCAL/MOL
REMARK 923 INTER-LIGAND FREE ENERGY PREDICTED BY IDOCK:   -9.14 KCAL/MOL
REMARK 924 INTRA-LIGAND FREE ENERGY PREDICTED BY IDOCK:   -1.59 KCAL/MOL
REMARK 927      BINDING AFFINITY PREDICTED BY RF-SCORE:    0.00 PKD
ROOT
HETATM    1  C   UNL     1      -9.763  15.783  69.761  1.00  0.00    -0.187 C  
ENDROOT
BRANCH   1   2
HETATM    2  C   UNL     1     -10.297  16.443  68.447  1.00  0.00    -0.282 C  
HETATM    3  O   UNL     1     -11.160  17.553  68.730  1.00  0.00    -0.196 OA 
HETATM    4  H   UNL     1     -11.484  17.954  67.932  1.00  0.00     0.000 HD 
BRANCH   2   5
HETATM    5  C   UNL     1     -10.968  15.447  67.498  1.00  0.00    -0.315 A  
HETATM    6  C   UNL     1     -10.401  12.557  63.898  1.00  0.00    -0.409 C  
HETATM    7  C   UNL     1     -10.902  14.199  65.406  1.00  0.00    -0.337 A  
HETATM    8  C   UNL     1     -12.107  14.703  67.861  1.00  0.00    -0.214 A  
HETATM    9  C   UNL     1     -12.039  13.478  65.774  1.00  0.00    -0.433 A  
HETATM   10  C   UNL     1     -11.887  12.262  63.777  1.00  0.00    -0.498 C  
HETATM   11  C   UNL     1     -10.394  15.203  66.235  1.00  0.00    -0.303 A  
HETATM   12  O   UNL     1     -12.575  12.467  65.019  1.00  0.00    -0.601 OA 
HETATM   13  O   UNL     1     -10.202  13.931  64.256  1.00  0.00    -0.276 OA 
HETATM   14  C   UNL     1     -12.653  13.745  66.995  1.00  0.00     0.047 A  
ENDBRANCH   2   5
ENDBRANCH   1   2
BRANCH   1  15
HETATM   15  N   UNL     1      -8.899  14.649  69.388  1.00  0.00    -0.406 NA 
HETATM   16  H   UNL     1      -9.300  13.717  69.495  1.00  0.00     0.000 HD 
BRANCH  15  17
HETATM   17  C   UNL     1      -7.707  14.710  68.947  1.00  0.00    -0.141 C  
HETATM   18  H   UNL     1      -6.380  14.232  67.472  1.00  0.00     0.000 HD 
HETATM   19  O   UNL     1      -7.270  14.187  67.801  1.00  0.00    -0.141 OA 
BRANCH  17  20
HETATM   20  C   UNL     1      -6.640  15.413  69.748  1.00  0.00    -0.170 C  
BRANCH  20  21
HETATM   21  C   UNL     1      -5.979  16.550  68.977  1.00  0.00    -0.150 C  
BRANCH  21  22
HETATM   22  C   UNL     1      -6.421  17.937  69.449  1.00  0.00    -0.224 C  
BRANCH  22  23
HETATM   23  C   UNL     1      -6.607  18.883  68.261  1.00  0.00    -0.253 C  
BRANCH  23  24
HETATM   24  C   UNL     1      -6.694  18.123  66.939  1.00  0.00    -0.212 C  
BRANCH  24  25
HETATM   25  C   UNL     1      -7.581  18.863  65.936  1.00  0.00    -0.209 C  
HETATM   26  C   UNL     1      -8.912  19.259  66.553  1.00  0.00    -0.373 C  
ENDBRANCH  24  25
ENDBRANCH  23  24
ENDBRANCH  22  23
ENDBRANCH  21  22
ENDBRANCH  20  21
ENDBRANCH  17  20
ENDBRANCH  15  17
ENDBRANCH   1  15
BRANCH   1  27
HETATM   27  C   UNL     1     -10.828  15.139  70.717  1.00  0.00    -0.151 C  
BRANCH  27  28
HETATM   28  N   UNL     1     -12.008  15.888  71.211  1.00  0.00    -0.417 NA 
HETATM   29  C   UNL     1     -11.820  16.214  72.645  1.00  0.00    -0.506 C  
HETATM   30  C   UNL     1     -13.239  15.100  71.132  1.00  0.00    -0.469 C  
HETATM   31  C   UNL     1     -13.152  16.008  73.352  1.00  0.00    -0.677 C  
HETATM   32  C   UNL     1     -14.117  15.567  72.276  1.00  0.00    -0.637 C  
ENDBRANCH  27  28
ENDBRANCH   1  27
TORSDOF 12
ENDMDL
MODEL      103
REMARK 921   NORMALIZED FREE ENERGY PREDICTED BY IDOCK:   -5.09 KCAL/MOL
REMARK 922        TOTAL FREE ENERGY PREDICTED BY IDOCK:  -10.72 KCAL/MOL
REMARK 923 INTER-LIGAND FREE ENERGY PREDICTED BY IDOCK:   -9.09 KCAL/MOL
REMARK 924 INTRA-LIGAND FREE ENERGY PREDICTED BY IDOCK:   -1.63 KCAL/MOL
REMARK 927      BINDING AFFINITY PREDICTED BY RF-SCORE:    0.00 PKD
ROOT
HETATM    1  C   UNL     1      -9.386  14.895  68.906  1.00  0.00    -0.197 C  
ENDROOT
BRANCH   1   2
HETATM    2  C   UNL     1      -9.854  15.738  67.674  1.00  0.00    -0.232 C  
HETATM    3  O   UNL     1     -10.551  16.923  68.082  1.00  0.00    -0.330 OA 
HETATM    4  H   UNL     1     -10.835  17.435  67.333  1.00  0.00     0.000 HD 
BRANCH   2   5
HETATM    5  C   UNL     1     -10.675  14.931  66.666  1.00  0.00    -0.312 A  
HETATM    6  C   UNL     1     -10.657  11.480  63.547  1.00  0.00    -0.423 C  
HETATM    7  C   UNL     1     -10.721  13.419  64.755  1.00  0.00    -0.390 A  
HETATM    8  C   UNL     1     -12.067  14.755  66.788  1.00  0.00    -0.118 A  
HETATM    9  C   UNL     1     -12.102  13.264  64.882  1.00  0.00    -0.397 A  
HETATM   10  C   UNL     1     -12.076  11.763  63.083  1.00  0.00    -0.140 C  
HETATM   11  C   UNL     1     -10.017  14.275  65.607  1.00  0.00    -0.346 A  
HETATM   12  O   UNL     1     -12.848  12.424  64.095  1.00  0.00    -0.705 OA 
HETATM   13  O   UNL     1      -9.983  12.711  63.839  1.00  0.00    -0.317 OA 
HETATM   14  C   UNL     1     -12.777  13.949  65.888  1.00  0.00    -0.466 A  
ENDBRANCH   2   5
ENDBRANCH   1   2
BRANCH   1  15
HETATM   15  N   UNL     1     -10.187  15.303  70.073  1.00  0.00    -0.468 NA 
HETATM   16  H   UNL     1      -9.708  15.856  70.784  1.00  0.00     0.000 HD 
BRANCH  15  17
HETATM   17  C   UNL     1     -11.413  15.038  70.289  1.00  0.00    -0.269 C  
HETATM   18  H   UNL     1     -13.320  15.729  70.517  1.00  0.00     0.000 HD 
HETATM   19  O   UNL     1     -12.404  15.927  70.356  1.00  0.00    -0.366 OA 
BRANCH  17  20
HETATM   20  C   UNL     1     -11.852  13.612  70.506  1.00  0.00    -0.277 C  
BRANCH  20  21
HETATM   21  C   UNL     1     -12.973  13.490  71.532  1.00  0.00    -0.440 C  
BRANCH  21  22
HETATM   22  C   UNL     1     -13.172  12.062  72.044  1.00  0.00    -0.481 C  
BRANCH  22  23
HETATM   23  C   UNL     1     -12.696  11.041  71.010  1.00  0.00    -0.485 C  
BRANCH  23  24
HETATM   24  C   UNL     1     -12.537   9.648  71.618  1.00  0.00    -0.493 C  
BRANCH  24  25
HETATM   25  C   UNL     1     -11.522   8.817  70.833  1.00  0.00    -0.330 C  
HETATM   26  C   UNL     1     -10.165   9.498  70.777  1.00  0.00    -0.363 C  
ENDBRANCH  24  25
ENDBRANCH  23  24
ENDBRANCH  22  23
ENDBRANCH  21  22
ENDBRANCH  20  21
ENDBRANCH  17  20
ENDBRANCH  15  17
ENDBRANCH   1  15
BRANCH   1  27
HETATM   27  C   UNL     1      -7.906  15.096  69.385  1.00  0.00    -0.208 C  
BRANCH  27  28
HETATM   28  N   UNL     1      -6.841  14.099  69.113  1.00  0.00    -0.110 NA 
HETATM   29  C   UNL     1      -7.433  12.912  68.452  1.00  0.00    -0.124 C  
HETATM   30  C   UNL     1      -6.213  13.609  70.341  1.00  0.00    -0.053 C  
HETATM   31  C   UNL     1      -6.784  11.671  69.048  1.00  0.00    -0.100 C  
HETATM   32  C   UNL     1      -5.787  12.182  70.061  1.00  0.00    -0.152 C  
ENDBRANCH  27  28
ENDBRANCH   1  27
TORSDOF 12
ENDMDL
MODEL      104
REMARK 921   NORMALIZED FREE ENERGY PREDICTED BY IDOCK:   -5.09 KCAL/MOL
REMARK 922        TOTAL FREE ENERGY PREDICTED BY IDOCK:  -10.72 KCAL/MOL
REMARK 923 INTER-LIGAND FREE ENERGY PREDICTED BY IDOCK:   -8.58 KCAL/MOL
REMARK 924 INTRA-LIGAND FREE ENERGY PREDICTED BY IDOCK:   -2.14 KCAL/MOL
REMARK 927      BINDING AFFINITY PREDICTED BY RF-SCORE:    0.00 PKD
ROOT
HETATM    1  C   UNL     1      -9.842  10.780  67.072  1.00  0.00    -0.187 C  
ENDROOT
BRANCH   1   2
HETATM    2  C   UNL     1     -10.172  11.503  68.419  1.00  0.00    -0.205 C  
HETATM    3  O   UNL     1      -9.090  12.342  68.844  1.00  0.00    -0.381 OA 
HETATM    4  H   UNL     1      -9.290  12.781  69.663  1.00  0.00     0.000 HD 
BRANCH   2   5
HETATM    5  C   UNL     1     -10.600  10.543  69.532  1.00  0.00    -0.278 A  
HETATM    6  C   UNL     1      -9.247   8.067  73.229  1.00  0.00    -0.278 C  
HETATM    7  C   UNL     1      -9.967   8.920  71.235  1.00  0.00    -0.288 A  
HETATM    8  C   UNL     1     -11.912  10.510  70.043  1.00  0.00    -0.367 A  
HETATM    9  C   UNL     1     -11.274   8.887  71.723  1.00  0.00    -0.362 A  
HETATM   10  C   UNL     1     -10.594   7.381  73.383  1.00  0.00    -0.377 C  
HETATM   11  C   UNL     1      -9.637   9.703  70.125  1.00  0.00    -0.300 A  
HETATM   12  O   UNL     1     -11.658   8.160  72.820  1.00  0.00    -0.411 OA 
HETATM   13  O   UNL     1      -8.940   8.238  71.840  1.00  0.00    -0.149 OA 
HETATM   14  C   UNL     1     -12.251   9.669  71.112  1.00  0.00    -0.437 A  
ENDBRANCH   2   5
ENDBRANCH   1   2
BRANCH   1  15
HETATM   15  N   UNL     1     -10.138  11.709  65.967  1.00  0.00    -0.216 NA 
HETATM   16  H   UNL     1      -9.605  11.578  65.106  1.00  0.00     0.000 HD 
BRANCH  15  17
HETATM   17  C   UNL     1     -10.989  12.655  65.971  1.00  0.00    -0.282 C  
HETATM   18  H   UNL     1     -12.949  13.223  65.953  1.00  0.00     0.000 HD 
HETATM   19  O   UNL     1     -12.314  12.516  65.950  1.00  0.00    -0.626 OA 
BRANCH  17  20
HETATM   20  C   UNL     1     -10.523  14.090  65.992  1.00  0.00    -0.307 C  
BRANCH  20  21
HETATM   21  C   UNL     1     -11.401  14.981  66.864  1.00  0.00    -0.302 C  
BRANCH  21  22
HETATM   22  C   UNL     1     -10.722  15.410  68.166  1.00  0.00    -0.271 C  
BRANCH  22  23
HETATM   23  C   UNL     1     -11.754  15.612  69.278  1.00  0.00    -0.388 C  
BRANCH  23  24
HETATM   24  C   UNL     1     -12.399  14.292  69.700  1.00  0.00    -0.312 C  
BRANCH  24  25
HETATM   25  C   UNL     1     -12.396  14.140  71.221  1.00  0.00    -0.447 C  
HETATM   26  C   UNL     1     -12.747  15.446  71.914  1.00  0.00    -0.462 C  
ENDBRANCH  24  25
ENDBRANCH  23  24
ENDBRANCH  22  23
ENDBRANCH  21  22
ENDBRANCH  20  21
ENDBRANCH  17  20
ENDBRANCH  15  17
ENDBRANCH   1  15
BRANCH   1  27
HETATM   27  C   UNL     1     -10.688   9.506  66.722  1.00  0.00    -0.066 C  
BRANCH  27  28
HETATM   28  N   UNL     1     -10.087   8.152  66.639  1.00  0.00    -0.283 NA 
HETATM   29  C   UNL     1     -10.751   7.258  67.617  1.00  0.00    -0.224 C  
HETATM   30  C   UNL     1      -8.666   8.153  66.989  1.00  0.00    -0.131 C  
HETATM   31  C   UNL     1      -9.680   6.388  68.260  1.00  0.00    -0.127 C  
HETATM   32  C   UNL     1      -8.380   6.800  67.609  1.00  0.00    -0.123 C  
ENDBRANCH  27  28
ENDBRANCH   1  27
TORSDOF 12
ENDMDL
MODEL      105
REMARK 921   NORMALIZED FREE ENERGY PREDICTED BY IDOCK:   -5.08 KCAL/MOL
REMARK 922        TOTAL FREE ENERGY PREDICTED BY IDOCK:  -10.70 KCAL/MOL
REMARK 923 INTER-LIGAND FREE ENERGY PREDICTED BY IDOCK:   -8.29 KCAL/MOL
REMARK 924 INTRA-LIGAND FREE ENERGY PREDICTED BY IDOCK:   -2.41 KCAL/MOL
REMARK 927      BINDING AFFINITY PREDICTED BY RF-SCORE:    0.00 PKD
ROOT
HETATM    1  C   UNL     1     -10.610  10.717  68.381  1.00  0.00    -0.197 C  
ENDROOT
BRANCH   1   2
HETATM    2  C   UNL     1     -10.080   9.355  67.824  1.00  0.00    -0.198 C  
HETATM    3  O   UNL     1     -11.131   8.588  67.222  1.00  0.00    -0.401 OA 
HETATM    4  H   UNL     1     -10.810   7.760  66.883  1.00  0.00     0.000 HD 
BRANCH   2   5
HETATM    5  C   UNL     1      -9.320   8.530  68.866  1.00  0.00    -0.146 A  
HETATM    6  C   UNL     1      -7.600   8.400  73.185  1.00  0.00    -0.060 C  
HETATM    7  C   UNL     1      -8.053   8.465  70.946  1.00  0.00    -0.110 A  
HETATM    8  C   UNL     1      -9.329   7.122  68.873  1.00  0.00    -0.139 A  
HETATM    9  C   UNL     1      -8.060   7.069  70.934  1.00  0.00    -0.109 A  
HETATM   10  C   UNL     1      -6.902   7.067  72.971  1.00  0.00    -0.069 C  
HETATM   11  C   UNL     1      -8.636   9.192  69.905  1.00  0.00    -0.155 A  
HETATM   12  O   UNL     1      -7.527   6.298  71.934  1.00  0.00    -0.091 OA 
HETATM   13  O   UNL     1      -7.529   9.187  71.990  1.00  0.00    -0.336 OA 
HETATM   14  C   UNL     1      -8.683   6.399  69.885  1.00  0.00    -0.142 A  
ENDBRANCH   2   5
ENDBRANCH   1   2
BRANCH   1  15
HETATM   15  N   UNL     1     -11.937  10.486  68.976  1.00  0.00    -0.647 NA 
HETATM   16  H   UNL     1     -12.605   9.960  68.411  1.00  0.00     0.000 HD 
BRANCH  15  17
HETATM   17  C   UNL     1     -12.339  10.872  70.120  1.00  0.00    -0.322 C  
HETATM   18  H   UNL     1     -12.437  12.365  71.508  1.00  0.00     0.000 HD 
HETATM   19  O   UNL     1     -12.137  12.077  70.654  1.00  0.00    -0.373 OA 
BRANCH  17  20
HETATM   20  C   UNL     1     -13.111   9.929  71.008  1.00  0.00    -0.406 C  
BRANCH  20  21
HETATM   21  C   UNL     1     -12.210   8.942  71.744  1.00  0.00    -0.429 C  
BRANCH  21  22
HETATM   22  C   UNL     1     -12.252   7.531  71.156  1.00  0.00    -0.330 C  
BRANCH  22  23
HETATM   23  C   UNL     1     -11.463   6.553  72.028  1.00  0.00    -0.342 C  
BRANCH  23  24
HETATM   24  C   UNL     1     -10.852   7.245  73.246  1.00  0.00    -0.404 C  
BRANCH  24  25
HETATM   25  C   UNL     1     -10.210   6.229  74.191  1.00  0.00    -0.338 C  
HETATM   26  C   UNL     1     -10.517   4.802  73.770  1.00  0.00    -0.301 C  
ENDBRANCH  24  25
ENDBRANCH  23  24
ENDBRANCH  22  23
ENDBRANCH  21  22
ENDBRANCH  20  21
ENDBRANCH  17  20
ENDBRANCH  15  17
ENDBRANCH   1  15
BRANCH   1  27
HETATM   27  C   UNL     1     -10.866  11.861  67.338  1.00  0.00    -0.243 C  
BRANCH  27  28
HETATM   28  N   UNL     1     -11.584  11.626  66.062  1.00  0.00    -0.355 NA 
HETATM   29  C   UNL     1     -10.607  11.286  65.001  1.00  0.00    -0.289 C  
HETATM   30  C   UNL     1     -12.291  12.819  65.595  1.00  0.00    -0.382 C  
HETATM   31  C   UNL     1     -11.032  11.998  63.725  1.00  0.00    -0.492 C  
HETATM   32  C   UNL     1     -12.296  12.747  64.081  1.00  0.00    -0.485 C  
ENDBRANCH  27  28
ENDBRANCH   1  27
TORSDOF 12
ENDMDL
MODEL      106
REMARK 921   NORMALIZED FREE ENERGY PREDICTED BY IDOCK:   -5.07 KCAL/MOL
REMARK 922        TOTAL FREE ENERGY PREDICTED BY IDOCK:  -10.69 KCAL/MOL
REMARK 923 INTER-LIGAND FREE ENERGY PREDICTED BY IDOCK:  -10.27 KCAL/MOL
REMARK 924 INTRA-LIGAND FREE ENERGY PREDICTED BY IDOCK:   -0.42 KCAL/MOL
REMARK 927      BINDING AFFINITY PREDICTED BY RF-SCORE:    0.00 PKD
ROOT
HETATM    1  C   UNL     1     -11.751  14.964  66.644  1.00  0.00    -0.217 C  
ENDROOT
BRANCH   1   2
HETATM    2  C   UNL     1     -12.249  14.148  65.406  1.00  0.00    -0.433 C  
HETATM    3  O   UNL     1     -13.653  13.866  65.493  1.00  0.00    -0.613 OA 
HETATM    4  H   UNL     1     -13.956  13.370  64.742  1.00  0.00     0.000 HD 
BRANCH   2   5
HETATM    5  C   UNL     1     -11.442  12.871  65.159  1.00  0.00    -0.348 A  
HETATM    6  C   UNL     1      -7.979  10.892  62.767  1.00  0.00     0.004 C  
HETATM    7  C   UNL     1      -9.923  11.616  63.726  1.00  0.00    -0.349 A  
HETATM    8  C   UNL     1     -11.274  11.877  66.142  1.00  0.00    -0.387 A  
HETATM    9  C   UNL     1      -9.775  10.632  64.706  1.00  0.00    -0.292 A  
HETATM   10  C   UNL     1      -8.266   9.503  63.314  1.00  0.00    -0.162 C  
HETATM   11  C   UNL     1     -10.779  12.702  63.928  1.00  0.00    -0.465 A  
HETATM   12  O   UNL     1      -8.935   9.555  64.581  1.00  0.00    -0.213 OA 
HETATM   13  O   UNL     1      -9.207  11.599  62.555  1.00  0.00    -0.302 OA 
HETATM   14  C   UNL     1     -10.468  10.755  65.907  1.00  0.00    -0.270 A  
ENDBRANCH   2   5
ENDBRANCH   1   2
BRANCH   1  15
HETATM   15  N   UNL     1     -10.539  15.703  66.250  1.00  0.00    -0.303 NA 
HETATM   16  H   UNL     1      -9.656  15.196  66.311  1.00  0.00     0.000 HD 
BRANCH  15  17
HETATM   17  C   UNL     1     -10.477  16.907  65.840  1.00  0.00    -0.285 C  
HETATM   18  H   UNL     1     -10.955  18.274  64.401  1.00  0.00     0.000 HD 
HETATM   19  O   UNL     1     -11.001  17.375  64.707  1.00  0.00    -0.964 OA 
BRANCH  17  20
HETATM   20  C   UNL     1      -9.752  17.947  66.657  1.00  0.00    -0.319 C  
BRANCH  20  21
HETATM   21  C   UNL     1     -10.313  19.351  66.454  1.00  0.00    -0.575 C  
BRANCH  21  22
HETATM   22  C   UNL     1      -9.425  20.447  67.047  1.00  0.00    -0.544 C  
BRANCH  22  23
HETATM   23  C   UNL     1      -8.034  19.903  67.378  1.00  0.00    -0.324 C  
BRANCH  23  24
HETATM   24  C   UNL     1      -6.954  20.971  67.216  1.00  0.00    -0.428 C  
BRANCH  24  25
HETATM   25  C   UNL     1      -6.151  20.750  65.933  1.00  0.00    -0.270 C  
HETATM   26  C   UNL     1      -6.640  19.529  65.171  1.00  0.00    -0.286 C  
ENDBRANCH  24  25
ENDBRANCH  23  24
ENDBRANCH  22  23
ENDBRANCH  21  22
ENDBRANCH  20  21
ENDBRANCH  17  20
ENDBRANCH  15  17
ENDBRANCH   1  15
BRANCH   1  27
HETATM   27  C   UNL     1     -11.292  14.144  67.900  1.00  0.00    -0.294 C  
BRANCH  27  28
HETATM   28  N   UNL     1     -12.241  13.708  68.954  1.00  0.00    -0.287 NA 
HETATM   29  C   UNL     1     -12.295  14.734  70.023  1.00  0.00    -0.316 C  
HETATM   30  C   UNL     1     -11.817  12.467  69.603  1.00  0.00    -0.311 C  
HETATM   31  C   UNL     1     -12.338  14.012  71.363  1.00  0.00    -0.410 C  
HETATM   32  C   UNL     1     -12.323  12.539  71.030  1.00  0.00    -0.307 C  
ENDBRANCH  27  28
ENDBRANCH   1  27
TORSDOF 12
ENDMDL
MODEL      107
REMARK 921   NORMALIZED FREE ENERGY PREDICTED BY IDOCK:   -5.07 KCAL/MOL
REMARK 922        TOTAL FREE ENERGY PREDICTED BY IDOCK:  -10.68 KCAL/MOL
REMARK 923 INTER-LIGAND FREE ENERGY PREDICTED BY IDOCK:   -8.40 KCAL/MOL
REMARK 924 INTRA-LIGAND FREE ENERGY PREDICTED BY IDOCK:   -2.28 KCAL/MOL
REMARK 927      BINDING AFFINITY PREDICTED BY RF-SCORE:    0.00 PKD
ROOT
HETATM    1  C   UNL     1     -10.501  15.259  68.808  1.00  0.00    -0.237 C  
ENDROOT
BRANCH   1   2
HETATM    2  C   UNL     1     -10.982  14.403  67.590  1.00  0.00    -0.286 C  
HETATM    3  O   UNL     1     -12.406  14.472  67.430  1.00  0.00    -0.614 OA 
HETATM    4  H   UNL     1     -12.699  13.952  66.690  1.00  0.00     0.000 HD 
BRANCH   2   5
HETATM    5  C   UNL     1     -10.501  12.951  67.643  1.00  0.00    -0.228 A  
HETATM    6  C   UNL     1      -7.758   9.866  69.787  1.00  0.00    -0.155 C  
HETATM    7  C   UNL     1      -8.851  11.334  68.417  1.00  0.00    -0.159 A  
HETATM    8  C   UNL     1     -11.286  11.874  67.190  1.00  0.00    -0.393 A  
HETATM    9  C   UNL     1      -9.634  10.277  67.953  1.00  0.00    -0.145 A  
HETATM   10  C   UNL     1      -8.047   8.765  68.779  1.00  0.00    -0.115 C  
HETATM   11  C   UNL     1      -9.253  12.659  68.228  1.00  0.00    -0.184 A  
HETATM   12  O   UNL     1      -9.309   8.956  68.126  1.00  0.00    -0.142 OA 
HETATM   13  O   UNL     1      -7.689  11.133  69.121  1.00  0.00    -0.129 OA 
HETATM   14  C   UNL     1     -10.845  10.550  67.321  1.00  0.00    -0.338 A  
ENDBRANCH   2   5
ENDBRANCH   1   2
BRANCH   1  15
HETATM   15  N   UNL     1     -11.686  15.853  69.450  1.00  0.00    -0.360 NA 
HETATM   16  H   UNL     1     -12.237  16.498  68.883  1.00  0.00     0.000 HD 
BRANCH  15  17
HETATM   17  C   UNL     1     -12.095  15.647  70.637  1.00  0.00    -0.405 C  
HETATM   18  H   UNL     1     -11.936  16.083  72.625  1.00  0.00     0.000 HD 
HETATM   19  O   UNL     1     -11.630  16.237  71.738  1.00  0.00    -0.459 OA 
BRANCH  17  20
HETATM   20  C   UNL     1     -13.198  14.650  70.894  1.00  0.00    -0.392 C  
BRANCH  20  21
HETATM   21  C   UNL     1     -12.682  13.221  71.025  1.00  0.00    -0.374 C  
BRANCH  21  22
HETATM   22  C   UNL     1     -13.491  12.375  72.010  1.00  0.00    -0.460 C  
BRANCH  22  23
HETATM   23  C   UNL     1     -13.143  10.892  71.868  1.00  0.00    -0.537 C  
BRANCH  23  24
HETATM   24  C   UNL     1     -12.024  10.667  70.852  1.00  0.00    -0.469 C  
BRANCH  24  25
HETATM   25  C   UNL     1     -11.599   9.198  70.818  1.00  0.00    -0.329 C  
HETATM   26  C   UNL     1     -10.658   8.862  71.962  1.00  0.00    -0.388 C  
ENDBRANCH  24  25
ENDBRANCH  23  24
ENDBRANCH  22  23
ENDBRANCH  21  22
ENDBRANCH  20  21
ENDBRANCH  17  20
ENDBRANCH  15  17
ENDBRANCH   1  15
BRANCH   1  27
HETATM   27  C   UNL     1      -9.591  16.497  68.491  1.00  0.00    -0.233 C  
BRANCH  27  28
HETATM   28  N   UNL     1      -8.174  16.573  68.924  1.00  0.00    -0.242 NA 
HETATM   29  C   UNL     1      -7.306  16.768  67.739  1.00  0.00    -0.151 C  
HETATM   30  C   UNL     1      -7.721  15.336  69.562  1.00  0.00    -0.212 C  
HETATM   31  C   UNL     1      -6.067  15.902  67.919  1.00  0.00    -0.151 C  
HETATM   32  C   UNL     1      -6.242  15.216  69.253  1.00  0.00    -0.112 C  
ENDBRANCH  27  28
ENDBRANCH   1  27
TORSDOF 12
ENDMDL
MODEL      108
REMARK 921   NORMALIZED FREE ENERGY PREDICTED BY IDOCK:   -5.06 KCAL/MOL
REMARK 922        TOTAL FREE ENERGY PREDICTED BY IDOCK:  -10.67 KCAL/MOL
REMARK 923 INTER-LIGAND FREE ENERGY PREDICTED BY IDOCK:   -9.30 KCAL/MOL
REMARK 924 INTRA-LIGAND FREE ENERGY PREDICTED BY IDOCK:   -1.37 KCAL/MOL
REMARK 927      BINDING AFFINITY PREDICTED BY RF-SCORE:    0.00 PKD
ROOT
HETATM    1  C   UNL     1     -11.219  13.885  69.460  1.00  0.00    -0.184 C  
ENDROOT
BRANCH   1   2
HETATM    2  C   UNL     1     -10.054  14.208  68.468  1.00  0.00    -0.243 C  
HETATM    3  O   UNL     1      -8.775  14.105  69.107  1.00  0.00    -0.371 OA 
HETATM    4  H   UNL     1      -8.067  14.301  68.504  1.00  0.00     0.000 HD 
BRANCH   2   5
HETATM    5  C   UNL     1     -10.215  15.558  67.764  1.00  0.00    -0.243 A  
HETATM    6  C   UNL     1      -8.981  20.041  67.680  1.00  0.00    -0.331 C  
HETATM    7  C   UNL     1      -9.956  17.980  67.828  1.00  0.00    -0.326 A  
HETATM    8  C   UNL     1     -10.550  15.669  66.401  1.00  0.00    -0.308 A  
HETATM    9  C   UNL     1     -10.301  18.076  66.479  1.00  0.00    -0.373 A  
HETATM   10  C   UNL     1      -9.969  20.393  66.580  1.00  0.00    -0.355 C  
HETATM   11  C   UNL     1      -9.954  16.744  68.479  1.00  0.00    -0.271 A  
HETATM   12  O   UNL     1     -10.300  19.253  65.776  1.00  0.00    -0.478 OA 
HETATM   13  O   UNL     1      -9.554  19.069  68.562  1.00  0.00    -0.341 OA 
HETATM   14  C   UNL     1     -10.617  16.919  65.771  1.00  0.00    -0.238 A  
ENDBRANCH   2   5
ENDBRANCH   1   2
BRANCH   1  15
HETATM   15  N   UNL     1     -11.760  12.558  69.120  1.00  0.00    -0.309 NA 
HETATM   16  H   UNL     1     -12.125  12.002  69.894  1.00  0.00     0.000 HD 
BRANCH  15  17
HETATM   17  C   UNL     1     -11.820  12.031  67.963  1.00  0.00    -0.269 C  
HETATM   18  H   UNL     1     -12.429  12.182  66.021  1.00  0.00     0.000 HD 
HETATM   19  O   UNL     1     -12.384  12.575  66.885  1.00  0.00    -0.431 OA 
BRANCH  17  20
HETATM   20  C   UNL     1     -11.227  10.665  67.722  1.00  0.00    -0.383 C  
BRANCH  20  21
HETATM   21  C   UNL     1      -9.704  10.687  67.658  1.00  0.00    -0.186 C  
BRANCH  21  22
HETATM   22  C   UNL     1      -9.163  11.270  66.350  1.00  0.00    -0.206 C  
BRANCH  22  23
HETATM   23  C   UNL     1      -9.843  10.623  65.142  1.00  0.00    -0.344 C  
BRANCH  23  24
HETATM   24  C   UNL     1      -9.072   9.399  64.647  1.00  0.00    -0.228 C  
BRANCH  24  25
HETATM   25  C   UNL     1      -7.605   9.465  65.071  1.00  0.00    -0.109 C  
HETATM   26  C   UNL     1      -6.737  10.083  63.987  1.00  0.00    -0.128 C  
ENDBRANCH  24  25
ENDBRANCH  23  24
ENDBRANCH  22  23
ENDBRANCH  21  22
ENDBRANCH  20  21
ENDBRANCH  17  20
ENDBRANCH  15  17
ENDBRANCH   1  15
BRANCH   1  27
HETATM   27  C   UNL     1     -12.477  14.822  69.411  1.00  0.00    -0.053 C  
BRANCH  27  28
HETATM   28  N   UNL     1     -12.872  15.683  70.552  1.00  0.00    -0.408 NA 
HETATM   29  C   UNL     1     -11.723  15.834  71.476  1.00  0.00    -0.453 C  
HETATM   30  C   UNL     1     -13.955  15.095  71.342  1.00  0.00    -0.506 C  
HETATM   31  C   UNL     1     -12.255  15.755  72.901  1.00  0.00    -0.586 C  
HETATM   32  C   UNL     1     -13.748  15.569  72.766  1.00  0.00    -0.642 C  
ENDBRANCH  27  28
ENDBRANCH   1  27
TORSDOF 12
ENDMDL
MODEL      109
REMARK 921   NORMALIZED FREE ENERGY PREDICTED BY IDOCK:   -5.06 KCAL/MOL
REMARK 922        TOTAL FREE ENERGY PREDICTED BY IDOCK:  -10.66 KCAL/MOL
REMARK 923 INTER-LIGAND FREE ENERGY PREDICTED BY IDOCK:   -8.31 KCAL/MOL
REMARK 924 INTRA-LIGAND FREE ENERGY PREDICTED BY IDOCK:   -2.35 KCAL/MOL
REMARK 927      BINDING AFFINITY PREDICTED BY RF-SCORE:    0.00 PKD
ROOT
HETATM    1  C   UNL     1      -9.241  11.193  66.120  1.00  0.00    -0.198 C  
ENDROOT
BRANCH   1   2
HETATM    2  C   UNL     1      -9.446  12.044  67.417  1.00  0.00    -0.177 C  
HETATM    3  O   UNL     1      -8.372  12.973  67.611  1.00  0.00    -0.155 OA 
HETATM    4  H   UNL     1      -8.496  13.490  68.399  1.00  0.00     0.000 HD 
BRANCH   2   5
HETATM    5  C   UNL     1      -9.678  11.194  68.668  1.00  0.00    -0.202 A  
HETATM    6  C   UNL     1     -12.789   8.926  71.278  1.00  0.00    -0.229 C  
HETATM    7  C   UNL     1     -11.233  10.296  70.314  1.00  0.00    -0.323 A  
HETATM    8  C   UNL     1      -8.677  10.373  69.223  1.00  0.00    -0.160 A  
HETATM    9  C   UNL     1     -10.229   9.496  70.862  1.00  0.00    -0.286 A  
HETATM   10  C   UNL     1     -11.785   8.615  72.376  1.00  0.00    -0.323 C  
HETATM   11  C   UNL     1     -10.956  11.168  69.258  1.00  0.00    -0.300 A  
HETATM   12  O   UNL     1     -10.439   8.603  71.881  1.00  0.00    -0.284 OA 
HETATM   13  O   UNL     1     -12.537  10.230  70.739  1.00  0.00    -0.325 OA 
HETATM   14  C   UNL     1      -8.945   9.551  70.327  1.00  0.00    -0.288 A  
ENDBRANCH   2   5
ENDBRANCH   1   2
BRANCH   1  15
HETATM   15  N   UNL     1      -9.460  12.069  64.956  1.00  0.00    -0.439 NA 
HETATM   16  H   UNL     1      -9.072  13.011  65.015  1.00  0.00     0.000 HD 
BRANCH  15  17
HETATM   17  C   UNL     1     -10.080  11.775  63.885  1.00  0.00    -0.368 C  
HETATM   18  H   UNL     1     -10.134  10.691  62.156  1.00  0.00     0.000 HD 
HETATM   19  O   UNL     1      -9.671  10.911  62.956  1.00  0.00    -0.309 OA 
BRANCH  17  20
HETATM   20  C   UNL     1     -11.400  12.435  63.570  1.00  0.00    -0.553 C  
BRANCH  20  21
HETATM   21  C   UNL     1     -11.639  13.696  64.393  1.00  0.00    -0.421 C  
BRANCH  21  22
HETATM   22  C   UNL     1     -12.762  13.543  65.420  1.00  0.00    -0.495 C  
BRANCH  22  23
HETATM   23  C   UNL     1     -12.261  13.868  66.829  1.00  0.00    -0.438 C  
BRANCH  23  24
HETATM   24  C   UNL     1     -11.256  15.019  66.821  1.00  0.00    -0.322 C  
BRANCH  24  25
HETATM   25  C   UNL     1     -10.920  15.465  68.244  1.00  0.00    -0.288 C  
HETATM   26  C   UNL     1     -11.800  14.772  69.270  1.00  0.00    -0.352 C  
ENDBRANCH  24  25
ENDBRANCH  23  24
ENDBRANCH  22  23
ENDBRANCH  21  22
ENDBRANCH  20  21
ENDBRANCH  17  20
ENDBRANCH  15  17
ENDBRANCH   1  15
BRANCH   1  27
HETATM   27  C   UNL     1     -10.237  10.006  65.883  1.00  0.00    -0.205 C  
BRANCH  27  28
HETATM   28  N   UNL     1      -9.816   8.586  65.965  1.00  0.00    -0.159 NA 
HETATM   29  C   UNL     1     -10.499   7.934  67.108  1.00  0.00    -0.344 C  
HETATM   30  C   UNL     1      -8.380   8.447  66.217  1.00  0.00    -0.122 C  
HETATM   31  C   UNL     1      -9.491   7.029  67.802  1.00  0.00    -0.132 C  
HETATM   32  C   UNL     1      -8.210   7.169  67.013  1.00  0.00    -0.117 C  
ENDBRANCH  27  28
ENDBRANCH   1  27
TORSDOF 12
ENDMDL
MODEL      110
REMARK 921   NORMALIZED FREE ENERGY PREDICTED BY IDOCK:   -5.06 KCAL/MOL
REMARK 922        TOTAL FREE ENERGY PREDICTED BY IDOCK:  -10.66 KCAL/MOL
REMARK 923 INTER-LIGAND FREE ENERGY PREDICTED BY IDOCK:   -8.25 KCAL/MOL
REMARK 924 INTRA-LIGAND FREE ENERGY PREDICTED BY IDOCK:   -2.40 KCAL/MOL
REMARK 927      BINDING AFFINITY PREDICTED BY RF-SCORE:    0.00 PKD
ROOT
HETATM    1  C   UNL     1     -11.432  13.782  68.663  1.00  0.00    -0.301 C  
ENDROOT
BRANCH   1   2
HETATM    2  C   UNL     1     -11.684  12.239  68.718  1.00  0.00    -0.340 C  
HETATM    3  O   UNL     1     -11.201  11.670  69.943  1.00  0.00    -0.457 OA 
HETATM    4  H   UNL     1     -11.354  10.733  69.976  1.00  0.00     0.000 HD 
BRANCH   2   5
HETATM    5  C   UNL     1     -11.128  11.492  67.503  1.00  0.00    -0.329 A  
HETATM    6  C   UNL     1      -9.635  11.828  63.111  1.00  0.00    -0.236 C  
HETATM    7  C   UNL     1     -10.682  11.456  65.108  1.00  0.00    -0.269 A  
HETATM    8  C   UNL     1     -10.385  10.301  67.619  1.00  0.00    -0.264 A  
HETATM    9  C   UNL     1      -9.959  10.270  65.236  1.00  0.00    -0.317 A  
HETATM   10  C   UNL     1      -9.503  10.324  62.939  1.00  0.00    -0.301 C  
HETATM   11  C   UNL     1     -11.299  12.041  66.217  1.00  0.00    -0.415 A  
HETATM   12  O   UNL     1      -9.312   9.657  64.194  1.00  0.00    -0.236 OA 
HETATM   13  O   UNL     1     -10.781  12.131  63.916  1.00  0.00    -0.331 OA 
HETATM   14  C   UNL     1      -9.828   9.682  66.491  1.00  0.00    -0.298 A  
ENDBRANCH   2   5
ENDBRANCH   1   2
BRANCH   1  15
HETATM   15  N   UNL     1     -10.014  14.028  68.979  1.00  0.00    -0.421 NA 
HETATM   16  H   UNL     1      -9.713  13.803  69.927  1.00  0.00     0.000 HD 
BRANCH  15  17
HETATM   17  C   UNL     1      -9.126  14.490  68.194  1.00  0.00    -0.191 C  
HETATM   18  H   UNL     1      -8.648  15.786  66.690  1.00  0.00     0.000 HD 
HETATM   19  O   UNL     1      -9.311  15.440  67.277  1.00  0.00    -0.204 OA 
BRANCH  17  20
HETATM   20  C   UNL     1      -7.718  13.953  68.245  1.00  0.00    -0.136 C  
BRANCH  20  21
HETATM   21  C   UNL     1      -7.518  12.738  67.345  1.00  0.00    -0.145 C  
BRANCH  21  22
HETATM   22  C   UNL     1      -6.092  12.185  67.385  1.00  0.00    -0.143 C  
BRANCH  22  23
HETATM   23  C   UNL     1      -6.085  10.675  67.139  1.00  0.00    -0.061 C  
BRANCH  23  24
HETATM   24  C   UNL     1      -6.057  10.344  65.647  1.00  0.00    -0.123 C  
BRANCH  24  25
HETATM   25  C   UNL     1      -6.280   8.850  65.411  1.00  0.00    -0.063 C  
HETATM   26  C   UNL     1      -6.141   8.054  66.697  1.00  0.00    -0.049 C  
ENDBRANCH  24  25
ENDBRANCH  23  24
ENDBRANCH  22  23
ENDBRANCH  21  22
ENDBRANCH  20  21
ENDBRANCH  17  20
ENDBRANCH  15  17
ENDBRANCH   1  15
BRANCH   1  27
HETATM   27  C   UNL     1     -12.202  14.665  69.705  1.00  0.00    -0.302 C  
BRANCH  27  28
HETATM   28  N   UNL     1     -11.962  14.563  71.166  1.00  0.00    -0.343 NA 
HETATM   29  C   UNL     1     -13.224  14.193  71.848  1.00  0.00    -0.387 C  
HETATM   30  C   UNL     1     -11.543  15.839  71.750  1.00  0.00    -0.456 C  
HETATM   31  C   UNL     1     -13.320  15.007  73.131  1.00  0.00    -0.525 C  
HETATM   32  C   UNL     1     -12.064  15.846  73.173  1.00  0.00    -0.611 C  
ENDBRANCH  27  28
ENDBRANCH   1  27
TORSDOF 12
ENDMDL
MODEL      111
REMARK 921   NORMALIZED FREE ENERGY PREDICTED BY IDOCK:   -5.05 KCAL/MOL
REMARK 922        TOTAL FREE ENERGY PREDICTED BY IDOCK:  -10.65 KCAL/MOL
REMARK 923 INTER-LIGAND FREE ENERGY PREDICTED BY IDOCK:   -9.33 KCAL/MOL
REMARK 924 INTRA-LIGAND FREE ENERGY PREDICTED BY IDOCK:   -1.32 KCAL/MOL
REMARK 927      BINDING AFFINITY PREDICTED BY RF-SCORE:    0.00 PKD
ROOT
HETATM    1  C   UNL     1      -9.284  10.238  69.274  1.00  0.00    -0.202 C  
ENDROOT
BRANCH   1   2
HETATM    2  C   UNL     1     -10.840  10.129  69.388  1.00  0.00    -0.241 C  
HETATM    3  O   UNL     1     -11.406   9.468  68.248  1.00  0.00    -0.505 OA 
HETATM    4  H   UNL     1     -12.351   9.402  68.317  1.00  0.00     0.000 HD 
BRANCH   2   5
HETATM    5  C   UNL     1     -11.524  11.474  69.644  1.00  0.00    -0.373 A  
HETATM    6  C   UNL     1     -13.309  14.356  72.828  1.00  0.00    -0.513 C  
HETATM    7  C   UNL     1     -12.819  12.898  71.138  1.00  0.00    -0.238 A  
HETATM    8  C   UNL     1     -11.354  12.585  68.795  1.00  0.00    -0.337 A  
HETATM    9  C   UNL     1     -12.653  13.987  70.282  1.00  0.00    -0.291 A  
HETATM   10  C   UNL     1     -13.846  15.327  71.788  1.00  0.00    -0.521 C  
HETATM   11  C   UNL     1     -12.300  11.643  70.807  1.00  0.00    -0.454 A  
HETATM   12  O   UNL     1     -13.116  15.248  70.556  1.00  0.00    -0.367 OA 
HETATM   13  O   UNL     1     -13.443  13.010  72.356  1.00  0.00    -0.567 OA 
HETATM   14  C   UNL     1     -11.936  13.824  69.099  1.00  0.00    -0.403 A  
ENDBRANCH   2   5
ENDBRANCH   1   2
BRANCH   1  15
HETATM   15  N   UNL     1      -8.884   9.746  67.944  1.00  0.00    -0.122 NA 
HETATM   16  H   UNL     1      -9.195   8.806  67.693  1.00  0.00     0.000 HD 
BRANCH  15  17
HETATM   17  C   UNL     1      -8.193  10.367  67.075  1.00  0.00    -0.123 C  
HETATM   18  H   UNL     1      -6.391  10.615  66.150  1.00  0.00     0.000 HD 
HETATM   19  O   UNL     1      -6.907  10.151  66.799  1.00  0.00    -0.081 OA 
BRANCH  17  20
HETATM   20  C   UNL     1      -8.820  11.467  66.255  1.00  0.00    -0.196 C  
BRANCH  20  21
HETATM   21  C   UNL     1     -10.049  10.998  65.483  1.00  0.00    -0.316 C  
BRANCH  21  22
HETATM   22  C   UNL     1     -10.089  11.512  64.042  1.00  0.00    -0.366 C  
BRANCH  22  23
HETATM   23  C   UNL     1     -11.333  12.368  63.803  1.00  0.00    -0.536 C  
BRANCH  23  24
HETATM   24  C   UNL     1     -11.579  13.345  64.952  1.00  0.00    -0.354 C  
BRANCH  24  25
HETATM   25  C   UNL     1     -10.633  14.543  64.868  1.00  0.00    -0.450 C  
HETATM   26  C   UNL     1     -10.834  15.497  66.033  1.00  0.00    -0.301 C  
ENDBRANCH  24  25
ENDBRANCH  23  24
ENDBRANCH  22  23
ENDBRANCH  21  22
ENDBRANCH  20  21
ENDBRANCH  17  20
ENDBRANCH  15  17
ENDBRANCH   1  15
BRANCH   1  27
HETATM   27  C   UNL     1      -8.435   9.364  70.262  1.00  0.00    -0.212 C  
BRANCH  27  28
HETATM   28  N   UNL     1      -9.041   8.310  71.111  1.00  0.00    -0.152 NA 
HETATM   29  C   UNL     1      -9.676   7.286  70.248  1.00  0.00    -0.175 C  
HETATM   30  C   UNL     1     -10.103   8.832  71.972  1.00  0.00    -0.327 C  
HETATM   31  C   UNL     1     -10.997   6.885  70.890  1.00  0.00    -0.290 C  
HETATM   32  C   UNL     1     -11.094   7.700  72.159  1.00  0.00    -0.314 C  
ENDBRANCH  27  28
ENDBRANCH   1  27
TORSDOF 12
ENDMDL
MODEL      112
REMARK 921   NORMALIZED FREE ENERGY PREDICTED BY IDOCK:   -5.05 KCAL/MOL
REMARK 922        TOTAL FREE ENERGY PREDICTED BY IDOCK:  -10.65 KCAL/MOL
REMARK 923 INTER-LIGAND FREE ENERGY PREDICTED BY IDOCK:   -8.30 KCAL/MOL
REMARK 924 INTRA-LIGAND FREE ENERGY PREDICTED BY IDOCK:   -2.34 KCAL/MOL
REMARK 927      BINDING AFFINITY PREDICTED BY RF-SCORE:    0.00 PKD
ROOT
HETATM    1  C   UNL     1     -11.166  10.894  69.207  1.00  0.00    -0.265 C  
ENDROOT
BRANCH   1   2
HETATM    2  C   UNL     1     -10.316   9.811  68.463  1.00  0.00    -0.202 C  
HETATM    3  O   UNL     1     -11.149   8.809  67.865  1.00  0.00    -0.487 OA 
HETATM    4  H   UNL     1     -10.633   8.151  67.414  1.00  0.00     0.000 HD 
BRANCH   2   5
HETATM    5  C   UNL     1      -9.235   9.180  69.345  1.00  0.00    -0.156 A  
HETATM    6  C   UNL     1      -8.177   7.490  73.546  1.00  0.00    -0.138 C  
HETATM    7  C   UNL     1      -8.437   8.621  71.578  1.00  0.00    -0.181 A  
HETATM    8  C   UNL     1      -8.177   8.415  68.817  1.00  0.00    -0.119 A  
HETATM    9  C   UNL     1      -7.386   7.876  71.041  1.00  0.00    -0.062 A  
HETATM   10  C   UNL     1      -6.705   7.313  73.211  1.00  0.00    -0.065 C  
HETATM   11  C   UNL     1      -9.328   9.303  70.745  1.00  0.00    -0.322 A  
HETATM   12  O   UNL     1      -6.493   7.165  71.800  1.00  0.00    -0.047 OA 
HETATM   13  O   UNL     1      -8.681   8.680  72.928  1.00  0.00    -0.384 OA 
HETATM   14  C   UNL     1      -7.246   7.790  69.659  1.00  0.00    -0.075 A  
ENDBRANCH   2   5
ENDBRANCH   1   2
BRANCH   1  15
HETATM   15  N   UNL     1     -12.325  10.225  69.824  1.00  0.00    -0.531 NA 
HETATM   16  H   UNL     1     -12.739   9.454  69.299  1.00  0.00     0.000 HD 
BRANCH  15  17
HETATM   17  C   UNL     1     -12.864  10.507  70.941  1.00  0.00    -0.394 C  
HETATM   18  H   UNL     1     -13.320  11.927  72.336  1.00  0.00     0.000 HD 
HETATM   19  O   UNL     1     -12.917  11.716  71.501  1.00  0.00    -0.424 OA 
BRANCH  17  20
HETATM   20  C   UNL     1     -13.510   9.421  71.765  1.00  0.00    -0.485 C  
BRANCH  20  21
HETATM   21  C   UNL     1     -12.515   8.362  72.228  1.00  0.00    -0.417 C  
BRANCH  21  22
HETATM   22  C   UNL     1     -12.808   6.970  71.664  1.00  0.00    -0.408 C  
BRANCH  22  23
HETATM   23  C   UNL     1     -11.761   6.573  70.622  1.00  0.00    -0.436 C  
BRANCH  23  24
HETATM   24  C   UNL     1     -10.679   5.674  71.220  1.00  0.00    -0.312 C  
BRANCH  24  25
HETATM   25  C   UNL     1      -9.794   5.076  70.126  1.00  0.00    -0.303 C  
HETATM   26  C   UNL     1     -10.227   5.535  68.743  1.00  0.00    -0.270 C  
ENDBRANCH  24  25
ENDBRANCH  23  24
ENDBRANCH  22  23
ENDBRANCH  21  22
ENDBRANCH  20  21
ENDBRANCH  17  20
ENDBRANCH  15  17
ENDBRANCH   1  15
BRANCH   1  27
HETATM   27  C   UNL     1     -11.813  12.019  68.326  1.00  0.00    -0.287 C  
BRANCH  27  28
HETATM   28  N   UNL     1     -11.005  12.921  67.470  1.00  0.00    -0.249 NA 
HETATM   29  C   UNL     1     -10.816  14.219  68.162  1.00  0.00    -0.244 C  
HETATM   30  C   UNL     1     -11.670  13.229  66.204  1.00  0.00    -0.374 C  
HETATM   31  C   UNL     1     -10.961  15.327  67.128  1.00  0.00    -0.331 C  
HETATM   32  C   UNL     1     -11.224  14.625  65.816  1.00  0.00    -0.336 C  
ENDBRANCH  27  28
ENDBRANCH   1  27
TORSDOF 12
ENDMDL
MODEL      113
REMARK 921   NORMALIZED FREE ENERGY PREDICTED BY IDOCK:   -5.05 KCAL/MOL
REMARK 922        TOTAL FREE ENERGY PREDICTED BY IDOCK:  -10.64 KCAL/MOL
REMARK 923 INTER-LIGAND FREE ENERGY PREDICTED BY IDOCK:   -8.81 KCAL/MOL
REMARK 924 INTRA-LIGAND FREE ENERGY PREDICTED BY IDOCK:   -1.83 KCAL/MOL
REMARK 927      BINDING AFFINITY PREDICTED BY RF-SCORE:    0.00 PKD
ROOT
HETATM    1  C   UNL     1      -9.970  11.476  65.497  1.00  0.00    -0.242 C  
ENDROOT
BRANCH   1   2
HETATM    2  C   UNL     1      -9.405  11.981  66.866  1.00  0.00    -0.200 C  
HETATM    3  O   UNL     1      -8.173  11.329  67.199  1.00  0.00    -0.137 OA 
HETATM    4  H   UNL     1      -7.830  11.635  68.031  1.00  0.00     0.000 HD 
BRANCH   2   5
HETATM    5  C   UNL     1     -10.415  11.879  68.012  1.00  0.00    -0.228 A  
HETATM    6  C   UNL     1     -11.837   9.428  71.700  1.00  0.00    -0.394 C  
HETATM    7  C   UNL     1     -11.491  10.514  69.719  1.00  0.00    -0.294 A  
HETATM    8  C   UNL     1     -11.044  13.007  68.572  1.00  0.00    -0.298 A  
HETATM    9  C   UNL     1     -12.117  11.639  70.257  1.00  0.00    -0.358 A  
HETATM   10  C   UNL     1     -13.070  10.289  71.918  1.00  0.00    -0.463 C  
HETATM   11  C   UNL     1     -10.684  10.619  68.583  1.00  0.00    -0.239 A  
HETATM   12  O   UNL     1     -12.902  11.608  71.381  1.00  0.00    -0.409 OA 
HETATM   13  O   UNL     1     -11.590   9.272  70.297  1.00  0.00    -0.225 OA 
HETATM   14  C   UNL     1     -11.908  12.884  69.670  1.00  0.00    -0.387 A  
ENDBRANCH   2   5
ENDBRANCH   1   2
BRANCH   1  15
HETATM   15  N   UNL     1     -11.413  11.766  65.459  1.00  0.00    -0.238 NA 
HETATM   16  H   UNL     1     -11.999  11.249  66.116  1.00  0.00     0.000 HD 
BRANCH  15  17
HETATM   17  C   UNL     1     -12.007  12.593  64.696  1.00  0.00    -0.402 C  
HETATM   18  H   UNL     1     -12.608  13.083  62.807  1.00  0.00     0.000 HD 
HETATM   19  O   UNL     1     -12.165  12.465  63.378  1.00  0.00    -0.520 OA 
BRANCH  17  20
HETATM   20  C   UNL     1     -12.600  13.857  65.265  1.00  0.00    -0.508 C  
BRANCH  20  21
HETATM   21  C   UNL     1     -11.906  15.115  64.755  1.00  0.00    -0.291 C  
BRANCH  21  22
HETATM   22  C   UNL     1     -10.380  15.040  64.838  1.00  0.00    -0.317 C  
BRANCH  22  23
HETATM   23  C   UNL     1      -9.865  15.780  66.074  1.00  0.00    -0.366 C  
BRANCH  23  24
HETATM   24  C   UNL     1     -10.159  17.278  66.000  1.00  0.00    -0.275 C  
BRANCH  24  25
HETATM   25  C   UNL     1     -10.416  17.857  67.392  1.00  0.00    -0.390 C  
HETATM   26  C   UNL     1     -10.689  19.351  67.335  1.00  0.00    -0.594 C  
ENDBRANCH  24  25
ENDBRANCH  23  24
ENDBRANCH  22  23
ENDBRANCH  21  22
ENDBRANCH  20  21
ENDBRANCH  17  20
ENDBRANCH  15  17
ENDBRANCH   1  15
BRANCH   1  27
HETATM   27  C   UNL     1      -9.894   9.933  65.223  1.00  0.00    -0.303 C  
BRANCH  27  28
HETATM   28  N   UNL     1      -8.730   9.110  65.630  1.00  0.00    -0.163 NA 
HETATM   29  C   UNL     1      -8.083   8.541  64.424  1.00  0.00    -0.163 C  
HETATM   30  C   UNL     1      -9.119   7.969  66.459  1.00  0.00    -0.173 C  
HETATM   31  C   UNL     1      -7.691   7.103  64.736  1.00  0.00    -0.115 C  
HETATM   32  C   UNL     1      -8.119   6.868  66.166  1.00  0.00    -0.115 C  
ENDBRANCH  27  28
ENDBRANCH   1  27
TORSDOF 12
ENDMDL
MODEL      114
REMARK 921   NORMALIZED FREE ENERGY PREDICTED BY IDOCK:   -5.04 KCAL/MOL
REMARK 922        TOTAL FREE ENERGY PREDICTED BY IDOCK:  -10.64 KCAL/MOL
REMARK 923 INTER-LIGAND FREE ENERGY PREDICTED BY IDOCK:   -9.21 KCAL/MOL
REMARK 924 INTRA-LIGAND FREE ENERGY PREDICTED BY IDOCK:   -1.42 KCAL/MOL
REMARK 927      BINDING AFFINITY PREDICTED BY RF-SCORE:    0.00 PKD
ROOT
HETATM    1  C   UNL     1     -10.794  11.666  66.453  1.00  0.00    -0.287 C  
ENDROOT
BRANCH   1   2
HETATM    2  C   UNL     1     -10.106  12.537  67.555  1.00  0.00    -0.207 C  
HETATM    3  O   UNL     1      -8.782  12.068  67.846  1.00  0.00    -0.154 OA 
HETATM    4  H   UNL     1      -8.364  12.597  68.516  1.00  0.00     0.000 HD 
BRANCH   2   5
HETATM    5  C   UNL     1     -10.940  12.668  68.832  1.00  0.00    -0.273 A  
HETATM    6  C   UNL     1     -13.911  15.304  71.252  1.00  0.00    -0.478 C  
HETATM    7  C   UNL     1     -12.188  14.094  70.364  1.00  0.00    -0.356 A  
HETATM    8  C   UNL     1     -11.417  11.551  69.544  1.00  0.00    -0.378 A  
HETATM    9  C   UNL     1     -12.643  12.979  71.068  1.00  0.00    -0.299 A  
HETATM   10  C   UNL     1     -13.879  14.393  72.468  1.00  0.00    -0.456 C  
HETATM   11  C   UNL     1     -11.311  13.949  69.285  1.00  0.00    -0.321 A  
HETATM   12  O   UNL     1     -13.520  13.049  72.119  1.00  0.00    -0.509 OA 
HETATM   13  O   UNL     1     -12.610  15.368  70.653  1.00  0.00    -0.387 OA 
HETATM   14  C   UNL     1     -12.240  11.707  70.668  1.00  0.00    -0.461 A  
ENDBRANCH   2   5
ENDBRANCH   1   2
BRANCH   1  15
HETATM   15  N   UNL     1     -12.129  12.228  66.189  1.00  0.00    -0.627 NA 
HETATM   16  H   UNL     1     -12.836  12.083  66.911  1.00  0.00     0.000 HD 
BRANCH  15  17
HETATM   17  C   UNL     1     -12.495  12.876  65.157  1.00  0.00    -0.501 C  
HETATM   18  H   UNL     1     -13.127  12.830  63.217  1.00  0.00     0.000 HD 
HETATM   19  O   UNL     1     -12.854  12.346  63.988  1.00  0.00    -0.717 OA 
BRANCH  17  20
HETATM   20  C   UNL     1     -12.541  14.383  65.187  1.00  0.00    -0.323 C  
BRANCH  20  21
HETATM   21  C   UNL     1     -11.234  15.022  64.729  1.00  0.00    -0.393 C  
BRANCH  21  22
HETATM   22  C   UNL     1     -10.619  15.956  65.773  1.00  0.00    -0.368 C  
BRANCH  22  23
HETATM   23  C   UNL     1      -9.195  15.520  66.123  1.00  0.00    -0.379 C  
BRANCH  23  24
HETATM   24  C   UNL     1      -8.345  16.695  66.604  1.00  0.00    -0.296 C  
BRANCH  24  25
HETATM   25  C   UNL     1      -6.905  16.257  66.876  1.00  0.00    -0.195 C  
HETATM   26  C   UNL     1      -6.734  15.747  68.297  1.00  0.00    -0.123 C  
ENDBRANCH  24  25
ENDBRANCH  23  24
ENDBRANCH  22  23
ENDBRANCH  21  22
ENDBRANCH  20  21
ENDBRANCH  17  20
ENDBRANCH  15  17
ENDBRANCH   1  15
BRANCH   1  27
HETATM   27  C   UNL     1     -11.087  10.167  66.811  1.00  0.00     0.147 C  
BRANCH  27  28
HETATM   28  N   UNL     1     -10.151   9.070  66.464  1.00  0.00    -0.288 NA 
HETATM   29  C   UNL     1      -9.339   8.719  67.654  1.00  0.00    -0.137 C  
HETATM   30  C   UNL     1      -9.199   9.460  65.423  1.00  0.00    -0.244 C  
HETATM   31  C   UNL     1      -7.910   8.474  67.190  1.00  0.00    -0.097 C  
HETATM   32  C   UNL     1      -7.929   8.679  65.693  1.00  0.00    -0.105 C  
ENDBRANCH  27  28
ENDBRANCH   1  27
TORSDOF 12
ENDMDL
MODEL      115
REMARK 921   NORMALIZED FREE ENERGY PREDICTED BY IDOCK:   -5.04 KCAL/MOL
REMARK 922        TOTAL FREE ENERGY PREDICTED BY IDOCK:  -10.63 KCAL/MOL
REMARK 923 INTER-LIGAND FREE ENERGY PREDICTED BY IDOCK:   -9.50 KCAL/MOL
REMARK 924 INTRA-LIGAND FREE ENERGY PREDICTED BY IDOCK:   -1.12 KCAL/MOL
REMARK 927      BINDING AFFINITY PREDICTED BY RF-SCORE:    0.00 PKD
ROOT
HETATM    1  C   UNL     1     -11.186  14.940  66.580  1.00  0.00    -0.335 C  
ENDROOT
BRANCH   1   2
HETATM    2  C   UNL     1     -11.641  13.894  65.509  1.00  0.00    -0.327 C  
HETATM    3  O   UNL     1     -13.063  13.914  65.327  1.00  0.00    -0.777 OA 
HETATM    4  H   UNL     1     -13.339  13.278  64.676  1.00  0.00     0.000 HD 
BRANCH   2   5
HETATM    5  C   UNL     1     -11.138  12.477  65.796  1.00  0.00    -0.343 A  
HETATM    6  C   UNL     1      -7.671   9.424  65.258  1.00  0.00    -0.108 C  
HETATM    7  C   UNL     1      -9.583  10.676  65.273  1.00  0.00    -0.241 A  
HETATM    8  C   UNL     1     -11.563  11.734  66.914  1.00  0.00    -0.310 A  
HETATM    9  C   UNL     1     -10.022   9.945  66.378  1.00  0.00    -0.244 A  
HETATM   10  C   UNL     1      -8.459   8.276  65.867  1.00  0.00    -0.140 C  
HETATM   11  C   UNL     1     -10.161  11.908  64.956  1.00  0.00    -0.316 A  
HETATM   12  O   UNL     1      -9.482   8.743  66.757  1.00  0.00    -0.163 OA 
HETATM   13  O   UNL     1      -8.541  10.258  64.483  1.00  0.00    -0.171 OA 
HETATM   14  C   UNL     1     -11.027  10.467  67.188  1.00  0.00    -0.294 A  
ENDBRANCH   2   5
ENDBRANCH   1   2
BRANCH   1  15
HETATM   15  N   UNL     1     -10.383  15.973  65.902  1.00  0.00    -0.349 NA 
HETATM   16  H   UNL     1      -9.369  15.871  65.956  1.00  0.00     0.000 HD 
BRANCH  15  17
HETATM   17  C   UNL     1     -10.820  16.979  65.256  1.00  0.00    -0.071 C  
HETATM   18  H   UNL     1     -11.831  17.687  63.630  1.00  0.00     0.000 HD 
HETATM   19  O   UNL     1     -11.505  16.936  64.113  1.00  0.00    -1.174 OA 
BRANCH  17  20
HETATM   20  C   UNL     1     -10.567  18.374  65.768  1.00  0.00    -0.236 C  
BRANCH  20  21
HETATM   21  C   UNL     1     -10.754  18.492  67.277  1.00  0.00    -0.417 C  
BRANCH  21  22
HETATM   22  C   UNL     1      -9.748  19.435  67.939  1.00  0.00    -0.445 C  
BRANCH  22  23
HETATM   23  C   UNL     1      -8.575  19.726  67.002  1.00  0.00    -0.378 C  
BRANCH  23  24
HETATM   24  C   UNL     1      -7.415  18.757  67.227  1.00  0.00    -0.230 C  
BRANCH  24  25
HETATM   25  C   UNL     1      -7.287  18.387  68.705  1.00  0.00    -0.311 C  
HETATM   26  C   UNL     1      -6.500  17.101  68.893  1.00  0.00    -0.192 C  
ENDBRANCH  24  25
ENDBRANCH  23  24
ENDBRANCH  22  23
ENDBRANCH  21  22
ENDBRANCH  20  21
ENDBRANCH  17  20
ENDBRANCH  15  17
ENDBRANCH   1  15
BRANCH   1  27
HETATM   27  C   UNL     1     -10.240  14.426  67.721  1.00  0.00    -0.230 C  
BRANCH  27  28
HETATM   28  N   UNL     1     -10.633  14.453  69.151  1.00  0.00    -0.241 NA 
HETATM   29  C   UNL     1     -12.106  14.337  69.260  1.00  0.00    -0.313 C  
HETATM   30  C   UNL     1     -10.275  15.714  69.801  1.00  0.00    -0.300 C  
HETATM   31  C   UNL     1     -12.572  15.292  70.350  1.00  0.00    -0.421 C  
HETATM   32  C   UNL     1     -11.318  15.950  70.875  1.00  0.00    -0.428 C  
ENDBRANCH  27  28
ENDBRANCH   1  27
TORSDOF 12
ENDMDL
MODEL      116
REMARK 921   NORMALIZED FREE ENERGY PREDICTED BY IDOCK:   -5.03 KCAL/MOL
REMARK 922        TOTAL FREE ENERGY PREDICTED BY IDOCK:  -10.61 KCAL/MOL
REMARK 923 INTER-LIGAND FREE ENERGY PREDICTED BY IDOCK:   -9.72 KCAL/MOL
REMARK 924 INTRA-LIGAND FREE ENERGY PREDICTED BY IDOCK:   -0.89 KCAL/MOL
REMARK 927      BINDING AFFINITY PREDICTED BY RF-SCORE:    0.00 PKD
ROOT
HETATM    1  C   UNL     1     -13.066  10.506  70.721  1.00  0.00    -0.257 C  
ENDROOT
BRANCH   1   2
HETATM    2  C   UNL     1     -13.367   9.203  71.533  1.00  0.00    -0.355 C  
HETATM    3  O   UNL     1     -13.870   9.505  72.842  1.00  0.00    -0.713 OA 
HETATM    4  H   UNL     1     -14.053   8.713  73.335  1.00  0.00     0.000 HD 
BRANCH   2   5
HETATM    5  C   UNL     1     -12.175   8.246  71.604  1.00  0.00    -0.350 A  
HETATM    6  C   UNL     1      -9.554   5.162  69.312  1.00  0.00    -0.160 C  
HETATM    7  C   UNL     1     -10.967   6.354  70.656  1.00  0.00    -0.298 A  
HETATM    8  C   UNL     1     -11.097   8.441  72.489  1.00  0.00    -0.397 A  
HETATM    9  C   UNL     1      -9.911   6.552  71.546  1.00  0.00    -0.168 A  
HETATM   10  C   UNL     1      -8.764   4.769  70.550  1.00  0.00    -0.103 C  
HETATM   11  C   UNL     1     -12.107   7.161  70.708  1.00  0.00    -0.331 A  
HETATM   12  O   UNL     1      -8.756   5.813  71.533  1.00  0.00    -0.131 OA 
HETATM   13  O   UNL     1     -10.922   5.408  69.662  1.00  0.00    -0.232 OA 
HETATM   14  C   UNL     1      -9.986   7.585  72.476  1.00  0.00    -0.248 A  
ENDBRANCH   2   5
ENDBRANCH   1   2
BRANCH   1  15
HETATM   15  N   UNL     1     -11.874  10.265  69.889  1.00  0.00    -0.417 NA 
HETATM   16  H   UNL     1     -11.329   9.430  70.105  1.00  0.00     0.000 HD 
BRANCH  15  17
HETATM   17  C   UNL     1     -11.453  10.987  68.930  1.00  0.00    -0.296 C  
HETATM   18  H   UNL     1     -11.896  12.123  67.293  1.00  0.00     0.000 HD 
HETATM   19  O   UNL     1     -12.210  11.584  68.010  1.00  0.00    -0.582 OA 
BRANCH  17  20
HETATM   20  C   UNL     1      -9.973  11.222  68.753  1.00  0.00    -0.203 C  
BRANCH  20  21
HETATM   21  C   UNL     1      -9.290  10.108  67.966  1.00  0.00    -0.149 C  
BRANCH  21  22
HETATM   22  C   UNL     1     -10.248   9.337  67.056  1.00  0.00    -0.331 C  
BRANCH  22  23
HETATM   23  C   UNL     1      -9.900   9.562  65.583  1.00  0.00    -0.343 C  
BRANCH  23  24
HETATM   24  C   UNL     1     -10.069  11.026  65.178  1.00  0.00    -0.346 C  
BRANCH  24  25
HETATM   25  C   UNL     1     -10.528  11.144  63.724  1.00  0.00    -0.444 C  
HETATM   26  C   UNL     1      -9.388  10.884  62.754  1.00  0.00    -0.366 C  
ENDBRANCH  24  25
ENDBRANCH  23  24
ENDBRANCH  22  23
ENDBRANCH  21  22
ENDBRANCH  20  21
ENDBRANCH  17  20
ENDBRANCH  15  17
ENDBRANCH   1  15
BRANCH   1  27
HETATM   27  C   UNL     1     -12.690  11.787  71.544  1.00  0.00    -0.295 C  
BRANCH  27  28
HETATM   28  N   UNL     1     -13.273  13.119  71.252  1.00  0.00    -0.191 NA 
HETATM   29  C   UNL     1     -12.209  14.025  70.757  1.00  0.00    -0.367 C  
HETATM   30  C   UNL     1     -13.827  13.757  72.447  1.00  0.00    -0.579 C  
HETATM   31  C   UNL     1     -12.429  15.394  71.386  1.00  0.00    -0.457 C  
HETATM   32  C   UNL     1     -13.663  15.251  72.247  1.00  0.00    -0.614 C  
ENDBRANCH  27  28
ENDBRANCH   1  27
TORSDOF 12
ENDMDL
MODEL      117
REMARK 921   NORMALIZED FREE ENERGY PREDICTED BY IDOCK:   -5.03 KCAL/MOL
REMARK 922        TOTAL FREE ENERGY PREDICTED BY IDOCK:  -10.61 KCAL/MOL
REMARK 923 INTER-LIGAND FREE ENERGY PREDICTED BY IDOCK:   -8.07 KCAL/MOL
REMARK 924 INTRA-LIGAND FREE ENERGY PREDICTED BY IDOCK:   -2.54 KCAL/MOL
REMARK 927      BINDING AFFINITY PREDICTED BY RF-SCORE:    0.00 PKD
ROOT
HETATM    1  C   UNL     1      -9.631  11.553  66.988  1.00  0.00    -0.185 C  
ENDROOT
BRANCH   1   2
HETATM    2  C   UNL     1     -10.550  12.802  67.197  1.00  0.00    -0.237 C  
HETATM    3  O   UNL     1      -9.842  14.023  66.945  1.00  0.00    -0.252 OA 
HETATM    4  H   UNL     1     -10.400  14.782  67.072  1.00  0.00     0.000 HD 
BRANCH   2   5
HETATM    5  C   UNL     1     -11.232  12.829  68.567  1.00  0.00    -0.314 A  
HETATM    6  C   UNL     1     -14.112  15.129  71.403  1.00  0.00    -0.504 C  
HETATM    7  C   UNL     1     -12.408  14.101  70.280  1.00  0.00    -0.356 A  
HETATM    8  C   UNL     1     -11.518  11.658  69.295  1.00  0.00    -0.364 A  
HETATM    9  C   UNL     1     -12.674  12.934  70.998  1.00  0.00    -0.251 A  
HETATM   10  C   UNL     1     -13.852  14.199  72.578  1.00  0.00    -0.485 C  
HETATM   11  C   UNL     1     -11.659  14.060  69.101  1.00  0.00    -0.356 A  
HETATM   12  O   UNL     1     -13.420  12.902  72.147  1.00  0.00    -0.523 OA 
HETATM   13  O   UNL     1     -12.905  15.324  70.657  1.00  0.00    -0.397 OA 
HETATM   14  C   UNL     1     -12.210  11.714  70.513  1.00  0.00    -0.451 A  
ENDBRANCH   2   5
ENDBRANCH   1   2
BRANCH   1  15
HETATM   15  N   UNL     1      -8.230  11.984  67.136  1.00  0.00    -0.175 NA 
HETATM   16  H   UNL     1      -7.977  12.871  66.700  1.00  0.00     0.000 HD 
BRANCH  15  17
HETATM   17  C   UNL     1      -7.301  11.367  67.750  1.00  0.00    -0.098 C  
HETATM   18  H   UNL     1      -5.451  10.507  67.679  1.00  0.00     0.000 HD 
HETATM   19  O   UNL     1      -6.145  10.968  67.220  1.00  0.00    -0.057 OA 
BRANCH  17  20
HETATM   20  C   UNL     1      -7.462  11.015  69.208  1.00  0.00    -0.100 C  
BRANCH  20  21
HETATM   21  C   UNL     1      -7.860   9.559  69.422  1.00  0.00    -0.097 C  
BRANCH  21  22
HETATM   22  C   UNL     1      -8.964   9.382  70.467  1.00  0.00    -0.303 C  
BRANCH  22  23
HETATM   23  C   UNL     1      -9.451   7.932  70.505  1.00  0.00    -0.162 C  
BRANCH  23  24
HETATM   24  C   UNL     1     -10.970   7.841  70.357  1.00  0.00    -0.255 C  
BRANCH  24  25
HETATM   25  C   UNL     1     -11.395   6.441  69.912  1.00  0.00    -0.500 C  
HETATM   26  C   UNL     1     -10.250   5.449  70.017  1.00  0.00    -0.349 C  
ENDBRANCH  24  25
ENDBRANCH  23  24
ENDBRANCH  22  23
ENDBRANCH  21  22
ENDBRANCH  20  21
ENDBRANCH  17  20
ENDBRANCH  15  17
ENDBRANCH   1  15
BRANCH   1  27
HETATM   27  C   UNL     1      -9.663  10.874  65.575  1.00  0.00    -0.233 C  
BRANCH  27  28
HETATM   28  N   UNL     1      -9.741   9.403  65.402  1.00  0.00    -0.249 NA 
HETATM   29  C   UNL     1     -10.271   8.788  66.642  1.00  0.00    -0.270 C  
HETATM   30  C   UNL     1      -8.426   8.800  65.179  1.00  0.00    -0.174 C  
HETATM   31  C   UNL     1      -9.482   7.513  66.907  1.00  0.00    -0.219 C  
HETATM   32  C   UNL     1      -8.491   7.406  65.772  1.00  0.00    -0.149 C  
ENDBRANCH  27  28
ENDBRANCH   1  27
TORSDOF 12
ENDMDL
MODEL      118
REMARK 921   NORMALIZED FREE ENERGY PREDICTED BY IDOCK:   -5.02 KCAL/MOL
REMARK 922        TOTAL FREE ENERGY PREDICTED BY IDOCK:  -10.60 KCAL/MOL
REMARK 923 INTER-LIGAND FREE ENERGY PREDICTED BY IDOCK:   -9.93 KCAL/MOL
REMARK 924 INTRA-LIGAND FREE ENERGY PREDICTED BY IDOCK:   -0.67 KCAL/MOL
REMARK 927      BINDING AFFINITY PREDICTED BY RF-SCORE:    0.00 PKD
ROOT
HETATM    1  C   UNL     1     -10.983  12.456  65.955  1.00  0.00    -0.289 C  
ENDROOT
BRANCH   1   2
HETATM    2  C   UNL     1     -10.713  13.737  65.098  1.00  0.00    -0.358 C  
HETATM    3  O   UNL     1     -10.002  13.422  63.893  1.00  0.00    -0.715 OA 
HETATM    4  H   UNL     1      -9.837  14.200  63.372  1.00  0.00     0.000 HD 
BRANCH   2   5
HETATM    5  C   UNL     1     -10.012  14.851  65.880  1.00  0.00    -0.357 A  
HETATM    6  C   UNL     1     -10.457  19.011  67.913  1.00  0.00    -0.393 C  
HETATM    7  C   UNL     1     -10.002  17.165  66.645  1.00  0.00    -0.295 A  
HETATM    8  C   UNL     1      -8.898  14.613  66.707  1.00  0.00    -0.269 A  
HETATM    9  C   UNL     1      -8.890  16.917  67.451  1.00  0.00    -0.204 A  
HETATM   10  C   UNL     1      -8.970  19.134  68.205  1.00  0.00    -0.336 C  
HETATM   11  C   UNL     1     -10.534  16.159  65.833  1.00  0.00    -0.366 A  
HETATM   12  O   UNL     1      -8.334  17.851  68.286  1.00  0.00    -0.267 OA 
HETATM   13  O   UNL     1     -10.655  18.372  66.646  1.00  0.00    -0.382 OA 
HETATM   14  C   UNL     1      -8.326  15.644  67.466  1.00  0.00    -0.186 A  
ENDBRANCH   2   5
ENDBRANCH   1   2
BRANCH   1  15
HETATM   15  N   UNL     1     -12.104  12.741  66.867  1.00  0.00    -0.468 NA 
HETATM   16  H   UNL     1     -13.040  12.722  66.460  1.00  0.00     0.000 HD 
BRANCH  15  17
HETATM   17  C   UNL     1     -12.030  13.009  68.109  1.00  0.00    -0.280 C  
HETATM   18  H   UNL     1     -11.831  14.424  69.567  1.00  0.00     0.000 HD 
HETATM   19  O   UNL     1     -11.887  14.224  68.639  1.00  0.00    -0.323 OA 
BRANCH  17  20
HETATM   20  C   UNL     1     -12.093  11.899  69.127  1.00  0.00    -0.261 C  
BRANCH  20  21
HETATM   21  C   UNL     1     -11.972  12.406  70.560  1.00  0.00    -0.284 C  
BRANCH  21  22
HETATM   22  C   UNL     1     -13.135  11.974  71.455  1.00  0.00    -0.362 C  
BRANCH  22  23
HETATM   23  C   UNL     1     -13.534  13.099  72.412  1.00  0.00    -0.643 C  
BRANCH  23  24
HETATM   24  C   UNL     1     -13.936  14.367  71.661  1.00  0.00    -0.506 C  
BRANCH  24  25
HETATM   25  C   UNL     1     -13.735  15.608  72.530  1.00  0.00    -0.651 C  
HETATM   26  C   UNL     1     -12.272  16.016  72.592  1.00  0.00    -0.619 C  
ENDBRANCH  24  25
ENDBRANCH  23  24
ENDBRANCH  22  23
ENDBRANCH  21  22
ENDBRANCH  20  21
ENDBRANCH  17  20
ENDBRANCH  15  17
ENDBRANCH   1  15
BRANCH   1  27
HETATM   27  C   UNL     1      -9.835  11.987  66.915  1.00  0.00    -0.204 C  
BRANCH  27  28
HETATM   28  N   UNL     1      -9.349  10.586  66.948  1.00  0.00    -0.158 NA 
HETATM   29  C   UNL     1     -10.430   9.679  66.493  1.00  0.00    -0.143 C  
HETATM   30  C   UNL     1      -8.998  10.152  68.301  1.00  0.00    -0.120 C  
HETATM   31  C   UNL     1     -10.413   8.445  67.383  1.00  0.00    -0.354 C  
HETATM   32  C   UNL     1      -9.277   8.663  68.356  1.00  0.00    -0.138 C  
ENDBRANCH  27  28
ENDBRANCH   1  27
TORSDOF 12
ENDMDL
MODEL      119
REMARK 921   NORMALIZED FREE ENERGY PREDICTED BY IDOCK:   -5.01 KCAL/MOL
REMARK 922        TOTAL FREE ENERGY PREDICTED BY IDOCK:  -10.58 KCAL/MOL
REMARK 923 INTER-LIGAND FREE ENERGY PREDICTED BY IDOCK:   -8.01 KCAL/MOL
REMARK 924 INTRA-LIGAND FREE ENERGY PREDICTED BY IDOCK:   -2.57 KCAL/MOL
REMARK 927      BINDING AFFINITY PREDICTED BY RF-SCORE:    0.00 PKD
ROOT
HETATM    1  C   UNL     1     -10.862  12.053  69.290  1.00  0.00    -0.076 C  
ENDROOT
BRANCH   1   2
HETATM    2  C   UNL     1     -10.733  10.826  68.328  1.00  0.00    -0.213 C  
HETATM    3  O   UNL     1     -11.989  10.508  67.712  1.00  0.00    -0.611 OA 
HETATM    4  H   UNL     1     -11.911   9.763  67.127  1.00  0.00     0.000 HD 
BRANCH   2   5
HETATM    5  C   UNL     1     -10.117   9.594  68.997  1.00  0.00    -0.193 A  
HETATM    6  C   UNL     1      -8.289   5.365  68.366  1.00  0.00    -0.094 C  
HETATM    7  C   UNL     1      -9.496   7.243  68.854  1.00  0.00    -0.143 A  
HETATM    8  C   UNL     1      -9.431   9.661  70.225  1.00  0.00    -0.300 A  
HETATM    9  C   UNL     1      -8.830   7.320  70.078  1.00  0.00    -0.141 A  
HETATM   10  C   UNL     1      -8.202   5.074  69.855  1.00  0.00    -0.074 C  
HETATM   11  C   UNL     1     -10.171   8.351  68.336  1.00  0.00    -0.239 A  
HETATM   12  O   UNL     1      -8.131   6.278  70.631  1.00  0.00    -0.109 OA 
HETATM   13  O   UNL     1      -9.480   6.108  68.080  1.00  0.00    -0.115 OA 
HETATM   14  C   UNL     1      -8.815   8.527  70.772  1.00  0.00    -0.187 A  
ENDBRANCH   2   5
ENDBRANCH   1   2
BRANCH   1  15
HETATM   15  N   UNL     1     -12.249  12.109  69.782  1.00  0.00    -0.197 NA 
HETATM   16  H   UNL     1     -12.983  12.136  69.073  1.00  0.00     0.000 HD 
BRANCH  15  17
HETATM   17  C   UNL     1     -12.630  12.127  70.996  1.00  0.00    -0.263 C  
HETATM   18  H   UNL     1     -13.280  13.223  72.591  1.00  0.00     0.000 HD 
HETATM   19  O   UNL     1     -12.996  13.209  71.684  1.00  0.00    -0.370 OA 
BRANCH  17  20
HETATM   20  C   UNL     1     -12.686  10.847  71.790  1.00  0.00    -0.435 C  
BRANCH  20  21
HETATM   21  C   UNL     1     -13.390   9.719  71.041  1.00  0.00    -0.301 C  
BRANCH  21  22
HETATM   22  C   UNL     1     -14.096   8.728  71.968  1.00  0.00    -0.508 C  
BRANCH  22  23
HETATM   23  C   UNL     1     -13.874   7.289  71.498  1.00  0.00    -0.463 C  
BRANCH  23  24
HETATM   24  C   UNL     1     -12.424   7.046  71.080  1.00  0.00    -0.407 C  
BRANCH  24  25
HETATM   25  C   UNL     1     -11.647   6.328  72.185  1.00  0.00    -0.367 C  
HETATM   26  C   UNL     1     -11.052   7.311  73.179  1.00  0.00    -0.336 C  
ENDBRANCH  24  25
ENDBRANCH  23  24
ENDBRANCH  22  23
ENDBRANCH  21  22
ENDBRANCH  20  21
ENDBRANCH  17  20
ENDBRANCH  15  17
ENDBRANCH   1  15
BRANCH   1  27
HETATM   27  C   UNL     1     -10.631  13.473  68.666  1.00  0.00    -0.244 C  
BRANCH  27  28
HETATM   28  N   UNL     1     -10.386  13.674  67.217  1.00  0.00    -0.248 NA 
HETATM   29  C   UNL     1      -9.357  14.725  67.032  1.00  0.00    -0.233 C  
HETATM   30  C   UNL     1     -11.579  14.146  66.513  1.00  0.00    -0.375 C  
HETATM   31  C   UNL     1      -9.784  15.599  65.862  1.00  0.00    -0.388 C  
HETATM   32  C   UNL     1     -11.085  15.009  65.369  1.00  0.00    -0.377 C  
ENDBRANCH  27  28
ENDBRANCH   1  27
TORSDOF 12
ENDMDL
MODEL      120
REMARK 921   NORMALIZED FREE ENERGY PREDICTED BY IDOCK:   -5.01 KCAL/MOL
REMARK 922        TOTAL FREE ENERGY PREDICTED BY IDOCK:  -10.57 KCAL/MOL
REMARK 923 INTER-LIGAND FREE ENERGY PREDICTED BY IDOCK:   -8.48 KCAL/MOL
REMARK 924 INTRA-LIGAND FREE ENERGY PREDICTED BY IDOCK:   -2.09 KCAL/MOL
REMARK 927      BINDING AFFINITY PREDICTED BY RF-SCORE:    0.00 PKD
ROOT
HETATM    1  C   UNL     1      -9.948   9.719  69.674  1.00  0.00    -0.223 C  
ENDROOT
BRANCH   1   2
HETATM    2  C   UNL     1     -10.742   9.492  68.346  1.00  0.00    -0.186 C  
HETATM    3  O   UNL     1     -10.068   8.566  67.483  1.00  0.00    -0.187 OA 
HETATM    4  H   UNL     1     -10.550   8.428  66.675  1.00  0.00     0.000 HD 
BRANCH   2   5
HETATM    5  C   UNL     1     -11.077  10.792  67.611  1.00  0.00    -0.384 A  
HETATM    6  C   UNL     1     -12.205  12.753  63.547  1.00  0.00    -0.525 C  
HETATM    7  C   UNL     1     -11.298  11.991  65.501  1.00  0.00    -0.328 A  
HETATM    8  C   UNL     1     -11.651  11.903  68.258  1.00  0.00    -0.390 A  
HETATM    9  C   UNL     1     -11.855  13.090  66.157  1.00  0.00    -0.409 A  
HETATM   10  C   UNL     1     -12.107  14.168  64.093  1.00  0.00    -0.406 C  
HETATM   11  C   UNL     1     -10.872  10.871  66.219  1.00  0.00    -0.191 A  
HETATM   12  O   UNL     1     -12.313  14.209  65.511  1.00  0.00    -0.426 OA 
HETATM   13  O   UNL     1     -11.189  11.930  64.134  1.00  0.00    -0.332 OA 
HETATM   14  C   UNL     1     -12.012  13.052  67.540  1.00  0.00    -0.360 A  
ENDBRANCH   2   5
ENDBRANCH   1   2
BRANCH   1  15
HETATM   15  N   UNL     1      -8.510   9.621  69.373  1.00  0.00    -0.142 NA 
HETATM   16  H   UNL     1      -8.182   8.729  69.001  1.00  0.00     0.000 HD 
BRANCH  15  17
HETATM   17  C   UNL     1      -7.633  10.530  69.528  1.00  0.00    -0.145 C  
HETATM   18  H   UNL     1      -6.137  11.317  70.672  1.00  0.00     0.000 HD 
HETATM   19  O   UNL     1      -6.792  10.638  70.556  1.00  0.00    -0.309 OA 
BRANCH  17  20
HETATM   20  C   UNL     1      -7.484  11.620  68.496  1.00  0.00    -0.113 C  
BRANCH  20  21
HETATM   21  C   UNL     1      -6.641  12.790  68.993  1.00  0.00    -0.099 C  
BRANCH  21  22
HETATM   22  C   UNL     1      -6.985  14.115  68.310  1.00  0.00    -0.106 C  
BRANCH  22  23
HETATM   23  C   UNL     1      -8.173  13.947  67.361  1.00  0.00    -0.198 C  
BRANCH  23  24
HETATM   24  C   UNL     1      -9.149  15.119  67.462  1.00  0.00    -0.187 C  
BRANCH  24  25
HETATM   25  C   UNL     1      -9.168  15.932  66.167  1.00  0.00    -0.384 C  
HETATM   26  C   UNL     1      -8.082  16.994  66.157  1.00  0.00    -0.292 C  
ENDBRANCH  24  25
ENDBRANCH  23  24
ENDBRANCH  22  23
ENDBRANCH  21  22
ENDBRANCH  20  21
ENDBRANCH  17  20
ENDBRANCH  15  17
ENDBRANCH   1  15
BRANCH   1  27
HETATM   27  C   UNL     1     -10.160   8.667  70.819  1.00  0.00    -0.198 C  
BRANCH  27  28
HETATM   28  N   UNL     1     -11.279   8.762  71.788  1.00  0.00    -0.315 NA 
HETATM   29  C   UNL     1     -12.163   7.582  71.638  1.00  0.00    -0.322 C  
HETATM   30  C   UNL     1     -12.123   9.934  71.549  1.00  0.00    -0.410 C  
HETATM   31  C   UNL     1     -13.604   8.058  71.751  1.00  0.00    -0.395 C  
HETATM   32  C   UNL     1     -13.521   9.548  71.986  1.00  0.00    -0.522 C  
ENDBRANCH  27  28
ENDBRANCH   1  27
TORSDOF 12
ENDMDL
MODEL      121
REMARK 921   NORMALIZED FREE ENERGY PREDICTED BY IDOCK:   -5.00 KCAL/MOL
REMARK 922        TOTAL FREE ENERGY PREDICTED BY IDOCK:  -10.57 KCAL/MOL
REMARK 923 INTER-LIGAND FREE ENERGY PREDICTED BY IDOCK:   -9.30 KCAL/MOL
REMARK 924 INTRA-LIGAND FREE ENERGY PREDICTED BY IDOCK:   -1.27 KCAL/MOL
REMARK 927      BINDING AFFINITY PREDICTED BY RF-SCORE:    0.00 PKD
ROOT
HETATM    1  C   UNL     1      -9.665  12.153  67.017  1.00  0.00    -0.202 C  
ENDROOT
BRANCH   1   2
HETATM    2  C   UNL     1     -11.217  12.067  67.196  1.00  0.00    -0.316 C  
HETATM    3  O   UNL     1     -11.901  12.908  66.258  1.00  0.00    -0.378 OA 
HETATM    4  H   UNL     1     -12.844  12.856  66.366  1.00  0.00     0.000 HD 
BRANCH   2   5
HETATM    5  C   UNL     1     -11.677  12.345  68.629  1.00  0.00    -0.372 A  
HETATM    6  C   UNL     1     -13.938  15.258  71.463  1.00  0.00    -0.532 C  
HETATM    7  C   UNL     1     -12.494  13.943  70.278  1.00  0.00    -0.314 A  
HETATM    8  C   UNL     1     -11.918  11.318  69.561  1.00  0.00    -0.421 A  
HETATM    9  C   UNL     1     -12.717  12.916  71.196  1.00  0.00    -0.276 A  
HETATM   10  C   UNL     1     -13.557  14.487  72.717  1.00  0.00    -0.433 C  
HETATM   11  C   UNL     1     -11.939  13.672  69.024  1.00  0.00    -0.392 A  
HETATM   12  O   UNL     1     -13.277  13.110  72.432  1.00  0.00    -0.483 OA 
HETATM   13  O   UNL     1     -12.850  15.244  70.531  1.00  0.00    -0.394 OA 
HETATM   14  C   UNL     1     -12.409  11.605  70.843  1.00  0.00    -0.436 A  
ENDBRANCH   2   5
ENDBRANCH   1   2
BRANCH   1  15
HETATM   15  N   UNL     1      -9.347  13.440  66.374  1.00  0.00    -0.414 NA 
HETATM   16  H   UNL     1      -9.426  13.473  65.357  1.00  0.00     0.000 HD 
BRANCH  15  17
HETATM   17  C   UNL     1      -8.983  14.513  66.953  1.00  0.00    -0.246 C  
HETATM   18  H   UNL     1      -8.353  15.432  68.663  1.00  0.00     0.000 HD 
HETATM   19  O   UNL     1      -8.624  14.630  68.231  1.00  0.00    -0.154 OA 
BRANCH  17  20
HETATM   20  C   UNL     1      -8.943  15.810  66.184  1.00  0.00    -0.372 C  
BRANCH  20  21
HETATM   21  C   UNL     1      -7.724  16.661  66.527  1.00  0.00    -0.337 C  
BRANCH  21  22
HETATM   22  C   UNL     1      -8.087  18.045  67.068  1.00  0.00    -0.241 C  
BRANCH  22  23
HETATM   23  C   UNL     1      -7.801  18.136  68.568  1.00  0.00    -0.308 C  
BRANCH  23  24
HETATM   24  C   UNL     1      -7.429  19.557  68.989  1.00  0.00    -0.380 C  
BRANCH  24  25
HETATM   25  C   UNL     1      -6.209  20.059  68.214  1.00  0.00    -0.300 C  
HETATM   26  C   UNL     1      -6.595  21.100  67.177  1.00  0.00    -0.424 C  
ENDBRANCH  24  25
ENDBRANCH  23  24
ENDBRANCH  22  23
ENDBRANCH  21  22
ENDBRANCH  20  21
ENDBRANCH  17  20
ENDBRANCH  15  17
ENDBRANCH   1  15
BRANCH   1  27
HETATM   27  C   UNL     1      -8.998  11.092  66.073  1.00  0.00    -0.200 C  
BRANCH  27  28
HETATM   28  N   UNL     1      -8.755   9.692  66.498  1.00  0.00    -0.133 NA 
HETATM   29  C   UNL     1      -9.964   8.879  66.229  1.00  0.00    -0.266 C  
HETATM   30  C   UNL     1      -8.504   9.583  67.936  1.00  0.00    -0.119 C  
HETATM   31  C   UNL     1     -10.169   7.939  67.409  1.00  0.00    -0.320 C  
HETATM   32  C   UNL     1      -9.030   8.226  68.358  1.00  0.00    -0.136 C  
ENDBRANCH  27  28
ENDBRANCH   1  27
TORSDOF 12
ENDMDL
MODEL      122
REMARK 921   NORMALIZED FREE ENERGY PREDICTED BY IDOCK:   -5.00 KCAL/MOL
REMARK 922        TOTAL FREE ENERGY PREDICTED BY IDOCK:  -10.57 KCAL/MOL
REMARK 923 INTER-LIGAND FREE ENERGY PREDICTED BY IDOCK:   -9.27 KCAL/MOL
REMARK 924 INTRA-LIGAND FREE ENERGY PREDICTED BY IDOCK:   -1.30 KCAL/MOL
REMARK 927      BINDING AFFINITY PREDICTED BY RF-SCORE:    0.00 PKD
ROOT
HETATM    1  C   UNL     1     -11.080  14.708  68.226  1.00  0.00    -0.271 C  
ENDROOT
BRANCH   1   2
HETATM    2  C   UNL     1     -10.855  15.827  67.156  1.00  0.00    -0.289 C  
HETATM    3  O   UNL     1     -11.093  15.341  65.829  1.00  0.00    -0.338 OA 
HETATM    4  H   UNL     1     -10.957  16.021  65.179  1.00  0.00     0.000 HD 
BRANCH   2   5
HETATM    5  C   UNL     1      -9.484  16.499  67.263  1.00  0.00    -0.237 A  
HETATM    6  C   UNL     1      -6.884  19.636  69.506  1.00  0.00    -0.315 C  
HETATM    7  C   UNL     1      -8.136  18.353  68.088  1.00  0.00    -0.290 A  
HETATM    8  C   UNL     1      -8.294  15.864  66.860  1.00  0.00    -0.281 A  
HETATM    9  C   UNL     1      -6.965  17.717  67.673  1.00  0.00    -0.181 A  
HETATM   10  C   UNL     1      -5.714  19.495  68.546  1.00  0.00    -0.206 C  
HETATM   11  C   UNL     1      -9.386  17.777  67.850  1.00  0.00    -0.266 A  
HETATM   12  O   UNL     1      -5.708  18.217  67.895  1.00  0.00    -0.157 OA 
HETATM   13  O   UNL     1      -8.121  19.534  68.789  1.00  0.00    -0.357 OA 
HETATM   14  C   UNL     1      -7.048  16.480  67.040  1.00  0.00    -0.247 A  
ENDBRANCH   2   5
ENDBRANCH   1   2
BRANCH   1  15
HETATM   15  N   UNL     1     -12.153  13.820  67.744  1.00  0.00    -0.414 NA 
HETATM   16  H   UNL     1     -13.102  14.194  67.772  1.00  0.00     0.000 HD 
BRANCH  15  17
HETATM   17  C   UNL     1     -12.021  12.636  67.295  1.00  0.00    -0.253 C  
HETATM   18  H   UNL     1     -12.069  11.378  65.689  1.00  0.00     0.000 HD 
HETATM   19  O   UNL     1     -12.167  12.262  66.024  1.00  0.00    -0.646 OA 
BRANCH  17  20
HETATM   20  C   UNL     1     -11.680  11.506  68.233  1.00  0.00    -0.371 C  
BRANCH  20  21
HETATM   21  C   UNL     1     -10.937  10.368  67.539  1.00  0.00    -0.358 C  
BRANCH  21  22
HETATM   22  C   UNL     1      -9.419  10.559  67.524  1.00  0.00    -0.166 C  
BRANCH  22  23
HETATM   23  C   UNL     1      -8.778   9.738  66.403  1.00  0.00    -0.144 C  
BRANCH  23  24
HETATM   24  C   UNL     1      -9.605   9.788  65.119  1.00  0.00    -0.356 C  
BRANCH  24  25
HETATM   25  C   UNL     1      -9.068  10.850  64.159  1.00  0.00    -0.166 C  
HETATM   26  C   UNL     1     -10.166  11.406  63.270  1.00  0.00    -0.430 C  
ENDBRANCH  24  25
ENDBRANCH  23  24
ENDBRANCH  22  23
ENDBRANCH  21  22
ENDBRANCH  20  21
ENDBRANCH  17  20
ENDBRANCH  15  17
ENDBRANCH   1  15
BRANCH   1  27
HETATM   27  C   UNL     1     -11.585  15.164  69.639  1.00  0.00    -0.311 C  
BRANCH  27  28
HETATM   28  N   UNL     1     -12.839  14.648  70.240  1.00  0.00    -0.276 NA 
HETATM   29  C   UNL     1     -13.409  15.672  71.147  1.00  0.00    -0.367 C  
HETATM   30  C   UNL     1     -12.611  13.459  71.063  1.00  0.00    -0.343 C  
HETATM   31  C   UNL     1     -13.931  14.962  72.388  1.00  0.00    -0.582 C  
HETATM   32  C   UNL     1     -13.656  13.494  72.160  1.00  0.00    -0.651 C  
ENDBRANCH  27  28
ENDBRANCH   1  27
TORSDOF 12
ENDMDL
MODEL      123
REMARK 921   NORMALIZED FREE ENERGY PREDICTED BY IDOCK:   -4.99 KCAL/MOL
REMARK 922        TOTAL FREE ENERGY PREDICTED BY IDOCK:  -10.54 KCAL/MOL
REMARK 923 INTER-LIGAND FREE ENERGY PREDICTED BY IDOCK:   -9.15 KCAL/MOL
REMARK 924 INTRA-LIGAND FREE ENERGY PREDICTED BY IDOCK:   -1.39 KCAL/MOL
REMARK 927      BINDING AFFINITY PREDICTED BY RF-SCORE:    0.00 PKD
ROOT
HETATM    1  C   UNL     1     -11.197  12.709  66.049  1.00  0.00    -0.306 C  
ENDROOT
BRANCH   1   2
HETATM    2  C   UNL     1      -9.890  12.038  66.586  1.00  0.00    -0.204 C  
HETATM    3  O   UNL     1      -8.973  11.750  65.522  1.00  0.00    -0.403 OA 
HETATM    4  H   UNL     1      -8.178  11.342  65.848  1.00  0.00     0.000 HD 
BRANCH   2   5
HETATM    5  C   UNL     1     -10.155  10.796  67.441  1.00  0.00    -0.227 A  
HETATM    6  C   UNL     1     -10.372   6.151  67.543  1.00  0.00    -0.208 C  
HETATM    7  C   UNL     1     -10.670   8.417  67.549  1.00  0.00    -0.137 A  
HETATM    8  C   UNL     1      -9.946  10.775  68.833  1.00  0.00    -0.213 A  
HETATM    9  C   UNL     1     -10.471   8.413  68.930  1.00  0.00    -0.189 A  
HETATM   10  C   UNL     1     -10.907   6.112  68.966  1.00  0.00    -0.350 C  
HETATM   11  C   UNL     1     -10.558   9.600  66.814  1.00  0.00    -0.209 A  
HETATM   12  O   UNL     1     -10.544   7.285  69.706  1.00  0.00    -0.224 OA 
HETATM   13  O   UNL     1     -10.929   7.269  66.841  1.00  0.00    -0.343 OA 
HETATM   14  C   UNL     1     -10.128   9.599  69.574  1.00  0.00    -0.223 A  
ENDBRANCH   2   5
ENDBRANCH   1   2
BRANCH   1  15
HETATM   15  N   UNL     1     -10.824  13.660  64.988  1.00  0.00    -0.331 NA 
HETATM   16  H   UNL     1     -10.055  13.382  64.377  1.00  0.00     0.000 HD 
BRANCH  15  17
HETATM   17  C   UNL     1     -11.359  14.790  64.751  1.00  0.00    -0.397 C  
HETATM   18  H   UNL     1     -12.939  15.833  63.987  1.00  0.00     0.000 HD 
HETATM   19  O   UNL     1     -12.539  14.988  64.164  1.00  0.00    -0.770 OA 
BRANCH  17  20
HETATM   20  C   UNL     1     -10.643  16.061  65.135  1.00  0.00    -0.394 C  
BRANCH  20  21
HETATM   21  C   UNL     1      -9.384  15.803  65.956  1.00  0.00    -0.384 C  
BRANCH  21  22
HETATM   22  C   UNL     1      -8.467  17.024  66.055  1.00  0.00    -0.171 C  
BRANCH  22  23
HETATM   23  C   UNL     1      -7.936  17.192  67.480  1.00  0.00    -0.190 C  
BRANCH  23  24
HETATM   24  C   UNL     1      -8.837  18.098  68.318  1.00  0.00    -0.293 C  
BRANCH  24  25
HETATM   25  C   UNL     1      -9.368  19.266  67.486  1.00  0.00    -0.369 C  
HETATM   26  C   UNL     1     -10.881  19.375  67.577  1.00  0.00    -0.521 C  
ENDBRANCH  24  25
ENDBRANCH  23  24
ENDBRANCH  22  23
ENDBRANCH  21  22
ENDBRANCH  20  21
ENDBRANCH  17  20
ENDBRANCH  15  17
ENDBRANCH   1  15
BRANCH   1  27
HETATM   27  C   UNL     1     -12.014  13.586  67.061  1.00  0.00    -0.394 C  
BRANCH  27  28
HETATM   28  N   UNL     1     -11.437  14.070  68.339  1.00  0.00    -0.287 NA 
HETATM   29  C   UNL     1     -12.038  13.319  69.467  1.00  0.00    -0.258 C  
HETATM   30  C   UNL     1     -11.736  15.481  68.585  1.00  0.00    -0.348 C  
HETATM   31  C   UNL     1     -12.304  14.304  70.597  1.00  0.00    -0.431 C  
HETATM   32  C   UNL     1     -11.821  15.643  70.089  1.00  0.00    -0.381 C  
ENDBRANCH  27  28
ENDBRANCH   1  27
TORSDOF 12
ENDMDL
MODEL      124
REMARK 921   NORMALIZED FREE ENERGY PREDICTED BY IDOCK:   -4.98 KCAL/MOL
REMARK 922        TOTAL FREE ENERGY PREDICTED BY IDOCK:  -10.52 KCAL/MOL
REMARK 923 INTER-LIGAND FREE ENERGY PREDICTED BY IDOCK:   -8.34 KCAL/MOL
REMARK 924 INTRA-LIGAND FREE ENERGY PREDICTED BY IDOCK:   -2.18 KCAL/MOL
REMARK 927      BINDING AFFINITY PREDICTED BY RF-SCORE:    0.00 PKD
ROOT
HETATM    1  C   UNL     1     -10.031  16.093  68.007  1.00  0.00    -0.238 C  
ENDROOT
BRANCH   1   2
HETATM    2  C   UNL     1     -10.703  14.750  68.444  1.00  0.00    -0.243 C  
HETATM    3  O   UNL     1     -10.485  14.482  69.836  1.00  0.00    -0.446 OA 
HETATM    4  H   UNL     1     -10.893  13.666  70.102  1.00  0.00     0.000 HD 
BRANCH   2   5
HETATM    5  C   UNL     1     -10.289  13.556  67.579  1.00  0.00    -0.237 A  
HETATM    6  C   UNL     1      -9.982  11.829  63.272  1.00  0.00    -0.410 C  
HETATM    7  C   UNL     1     -10.419  12.392  65.443  1.00  0.00    -0.277 A  
HETATM    8  C   UNL     1      -9.287  12.648  67.970  1.00  0.00    -0.209 A  
HETATM    9  C   UNL     1      -9.433  11.491  65.848  1.00  0.00    -0.230 A  
HETATM   10  C   UNL     1      -9.551  10.453  63.751  1.00  0.00    -0.310 C  
HETATM   11  C   UNL     1     -10.877  13.387  66.310  1.00  0.00    -0.294 A  
HETATM   12  O   UNL     1      -8.924  10.507  65.040  1.00  0.00    -0.183 OA 
HETATM   13  O   UNL     1     -10.946  12.383  64.175  1.00  0.00    -0.312 OA 
HETATM   14  C   UNL     1      -8.881  11.609  67.120  1.00  0.00    -0.172 A  
ENDBRANCH   2   5
ENDBRANCH   1   2
BRANCH   1  15
HETATM   15  N   UNL     1      -8.679  16.142  68.588  1.00  0.00    -0.202 NA 
HETATM   16  H   UNL     1      -8.620  16.144  69.607  1.00  0.00     0.000 HD 
BRANCH  15  17
HETATM   17  C   UNL     1      -7.576  16.181  67.955  1.00  0.00    -0.134 C  
HETATM   18  H   UNL     1      -6.155  15.178  66.887  1.00  0.00     0.000 HD 
HETATM   19  O   UNL     1      -6.979  15.148  67.360  1.00  0.00    -0.187 OA 
BRANCH  17  20
HETATM   20  C   UNL     1      -6.818  17.480  67.836  1.00  0.00    -0.188 C  
BRANCH  20  21
HETATM   21  C   UNL     1      -6.955  18.357  69.076  1.00  0.00    -0.272 C  
BRANCH  21  22
HETATM   22  C   UNL     1      -6.546  19.812  68.834  1.00  0.00    -0.352 C  
BRANCH  22  23
HETATM   23  C   UNL     1      -5.546  19.913  67.681  1.00  0.00    -0.199 C  
BRANCH  23  24
HETATM   24  C   UNL     1      -5.951  20.986  66.672  1.00  0.00    -0.324 C  
BRANCH  24  25
HETATM   25  C   UNL     1      -5.308  20.729  65.308  1.00  0.00    -0.231 C  
HETATM   26  C   UNL     1      -6.315  20.871  64.179  1.00  0.00    -0.325 C  
ENDBRANCH  24  25
ENDBRANCH  23  24
ENDBRANCH  22  23
ENDBRANCH  21  22
ENDBRANCH  20  21
ENDBRANCH  17  20
ENDBRANCH  15  17
ENDBRANCH   1  15
BRANCH   1  27
HETATM   27  C   UNL     1     -10.700  17.420  68.511  1.00  0.00    -0.279 C  
BRANCH  27  28
HETATM   28  N   UNL     1     -10.803  18.630  67.660  1.00  0.00    -0.376 NA 
HETATM   29  C   UNL     1     -10.090  18.397  66.382  1.00  0.00    -0.403 C  
HETATM   30  C   UNL     1     -10.165  19.796  68.274  1.00  0.00    -0.447 C  
HETATM   31  C   UNL     1      -9.336  19.671  66.026  1.00  0.00    -0.331 C  
HETATM   32  C   UNL     1      -9.650  20.650  67.133  1.00  0.00    -0.534 C  
ENDBRANCH  27  28
ENDBRANCH   1  27
TORSDOF 12
ENDMDL
MODEL      125
REMARK 921   NORMALIZED FREE ENERGY PREDICTED BY IDOCK:   -4.95 KCAL/MOL
REMARK 922        TOTAL FREE ENERGY PREDICTED BY IDOCK:  -10.48 KCAL/MOL
REMARK 923 INTER-LIGAND FREE ENERGY PREDICTED BY IDOCK:   -9.21 KCAL/MOL
REMARK 924 INTRA-LIGAND FREE ENERGY PREDICTED BY IDOCK:   -1.27 KCAL/MOL
REMARK 927      BINDING AFFINITY PREDICTED BY RF-SCORE:    0.00 PKD
ROOT
HETATM    1  C   UNL     1     -11.595   9.128  71.216  1.00  0.00    -0.331 C  
ENDROOT
BRANCH   1   2
HETATM    2  C   UNL     1     -12.309   8.158  72.214  1.00  0.00    -0.323 C  
HETATM    3  O   UNL     1     -13.067   8.879  73.195  1.00  0.00    -0.788 OA 
HETATM    4  H   UNL     1     -13.501   8.290  73.802  1.00  0.00     0.000 HD 
BRANCH   2   5
HETATM    5  C   UNL     1     -11.354   7.161  72.875  1.00  0.00    -0.257 A  
HETATM    6  C   UNL     1      -9.827   2.769  72.987  1.00  0.00    -0.114 C  
HETATM    7  C   UNL     1     -10.736   4.842  73.299  1.00  0.00    -0.255 A  
HETATM    8  C   UNL     1     -10.142   7.553  73.474  1.00  0.00    -0.378 A  
HETATM    9  C   UNL     1      -9.543   5.246  73.900  1.00  0.00    -0.141 A  
HETATM   10  C   UNL     1      -8.968   2.998  74.220  1.00  0.00    -0.078 C  
HETATM   11  C   UNL     1     -11.655   5.785  72.830  1.00  0.00    -0.266 A  
HETATM   12  O   UNL     1      -8.590   4.374  74.360  1.00  0.00    -0.096 OA 
HETATM   13  O   UNL     1     -11.042   3.520  73.091  1.00  0.00    -0.156 OA 
HETATM   14  C   UNL     1      -9.256   6.604  74.005  1.00  0.00    -0.200 A  
ENDBRANCH   2   5
ENDBRANCH   1   2
BRANCH   1  15
HETATM   15  N   UNL     1     -12.630   9.831  70.438  1.00  0.00    -0.504 NA 
HETATM   16  H   UNL     1     -13.523   9.351  70.329  1.00  0.00     0.000 HD 
BRANCH  15  17
HETATM   17  C   UNL     1     -12.528  10.975  69.889  1.00  0.00    -0.219 C  
HETATM   18  H   UNL     1     -12.330  12.060  68.172  1.00  0.00     0.000 HD 
HETATM   19  O   UNL     1     -12.406  11.206  68.582  1.00  0.00    -0.549 OA 
BRANCH  17  20
HETATM   20  C   UNL     1     -12.529  12.223  70.736  1.00  0.00    -0.356 C  
BRANCH  20  21
HETATM   21  C   UNL     1     -12.227  13.482  69.929  1.00  0.00    -0.356 C  
BRANCH  21  22
HETATM   22  C   UNL     1     -11.854  14.683  70.801  1.00  0.00    -0.372 C  
BRANCH  22  23
HETATM   23  C   UNL     1     -13.031  15.652  70.928  1.00  0.00    -0.471 C  
BRANCH  23  24
HETATM   24  C   UNL     1     -13.846  15.392  72.194  1.00  0.00    -0.636 C  
BRANCH  24  25
HETATM   25  C   UNL     1     -13.273  16.163  73.384  1.00  0.00    -0.563 C  
HETATM   26  C   UNL     1     -12.393  15.280  74.251  1.00  0.00    -0.755 C  
ENDBRANCH  24  25
ENDBRANCH  23  24
ENDBRANCH  22  23
ENDBRANCH  21  22
ENDBRANCH  20  21
ENDBRANCH  17  20
ENDBRANCH  15  17
ENDBRANCH   1  15
BRANCH   1  27
HETATM   27  C   UNL     1     -10.686   8.475  70.117  1.00  0.00    -0.235 C  
BRANCH  27  28
HETATM   28  N   UNL     1     -11.230   7.592  69.057  1.00  0.00     0.158 NA 
HETATM   29  C   UNL     1     -10.700   6.220  69.238  1.00  0.00    -0.305 C  
HETATM   30  C   UNL     1     -10.818   8.013  67.717  1.00  0.00    -0.011 C  
HETATM   31  C   UNL     1     -10.363   5.662  67.862  1.00  0.00    -0.260 C  
HETATM   32  C   UNL     1     -10.731   6.751  66.882  1.00  0.00    -0.394 C  
ENDBRANCH  27  28
ENDBRANCH   1  27
TORSDOF 12
ENDMDL
MODEL      126
REMARK 921   NORMALIZED FREE ENERGY PREDICTED BY IDOCK:   -4.95 KCAL/MOL
REMARK 922        TOTAL FREE ENERGY PREDICTED BY IDOCK:  -10.48 KCAL/MOL
REMARK 923 INTER-LIGAND FREE ENERGY PREDICTED BY IDOCK:   -8.23 KCAL/MOL
REMARK 924 INTRA-LIGAND FREE ENERGY PREDICTED BY IDOCK:   -2.25 KCAL/MOL
REMARK 927      BINDING AFFINITY PREDICTED BY RF-SCORE:    0.00 PKD
ROOT
HETATM    1  C   UNL     1     -10.853   9.367  70.163  1.00  0.00    -0.249 C  
ENDROOT
BRANCH   1   2
HETATM    2  C   UNL     1     -11.851  10.537  70.447  1.00  0.00    -0.340 C  
HETATM    3  O   UNL     1     -13.204  10.068  70.524  1.00  0.00    -0.604 OA 
HETATM    4  H   UNL     1     -13.811  10.779  70.696  1.00  0.00     0.000 HD 
BRANCH   2   5
HETATM    5  C   UNL     1     -11.723  11.696  69.454  1.00  0.00    -0.405 A  
HETATM    6  C   UNL     1     -12.309  13.102  65.060  1.00  0.00    -0.459 C  
HETATM    7  C   UNL     1     -11.622  12.451  67.140  1.00  0.00    -0.365 A  
HETATM    8  C   UNL     1     -11.792  13.045  69.851  1.00  0.00    -0.377 A  
HETATM    9  C   UNL     1     -11.679  13.784  67.548  1.00  0.00    -0.375 A  
HETATM   10  C   UNL     1     -11.650  14.450  65.302  1.00  0.00    -0.353 C  
HETATM   11  C   UNL     1     -11.600  11.416  68.079  1.00  0.00    -0.357 A  
HETATM   12  O   UNL     1     -11.727  14.844  66.679  1.00  0.00    -0.325 OA 
HETATM   13  O   UNL     1     -11.639  12.087  65.816  1.00  0.00    -0.352 OA 
HETATM   14  C   UNL     1     -11.744  14.081  68.907  1.00  0.00    -0.375 A  
ENDBRANCH   2   5
ENDBRANCH   1   2
BRANCH   1  15
HETATM   15  N   UNL     1     -11.080   8.315  71.168  1.00  0.00    -0.243 NA 
HETATM   16  H   UNL     1     -10.667   8.467  72.089  1.00  0.00     0.000 HD 
BRANCH  15  17
HETATM   17  C   UNL     1     -11.738   7.236  71.010  1.00  0.00    -0.307 C  
HETATM   18  H   UNL     1     -13.480   6.212  71.298  1.00  0.00     0.000 HD 
HETATM   19  O   UNL     1     -12.989   7.017  71.415  1.00  0.00    -0.382 OA 
BRANCH  17  20
HETATM   20  C   UNL     1     -11.100   6.056  70.321  1.00  0.00    -0.415 C  
BRANCH  20  21
HETATM   21  C   UNL     1      -9.746   5.687  70.916  1.00  0.00    -0.223 C  
BRANCH  21  22
HETATM   22  C   UNL     1      -8.909   4.788  70.003  1.00  0.00    -0.122 C  
BRANCH  22  23
HETATM   23  C   UNL     1      -9.762   4.221  68.866  1.00  0.00    -0.195 C  
BRANCH  23  24
HETATM   24  C   UNL     1      -8.921   3.907  67.629  1.00  0.00    -0.156 C  
BRANCH  24  25
HETATM   25  C   UNL     1      -9.643   4.334  66.351  1.00  0.00    -0.209 C  
HETATM   26  C   UNL     1     -10.705   5.384  66.632  1.00  0.00    -0.309 C  
ENDBRANCH  24  25
ENDBRANCH  23  24
ENDBRANCH  22  23
ENDBRANCH  21  22
ENDBRANCH  20  21
ENDBRANCH  17  20
ENDBRANCH  15  17
ENDBRANCH   1  15
BRANCH   1  27
HETATM   27  C   UNL     1      -9.324   9.687  70.301  1.00  0.00    -0.242 C  
BRANCH  27  28
HETATM   28  N   UNL     1      -8.354   9.414  69.212  1.00  0.00    -0.124 NA 
HETATM   29  C   UNL     1      -9.005   8.591  68.166  1.00  0.00    -0.142 C  
HETATM   30  C   UNL     1      -7.201   8.641  69.677  1.00  0.00    -0.052 C  
HETATM   31  C   UNL     1      -8.002   7.546  67.698  1.00  0.00    -0.117 C  
HETATM   32  C   UNL     1      -6.747   7.803  68.499  1.00  0.00    -0.058 C  
ENDBRANCH  27  28
ENDBRANCH   1  27
TORSDOF 12
ENDMDL
MODEL      127
REMARK 921   NORMALIZED FREE ENERGY PREDICTED BY IDOCK:   -4.95 KCAL/MOL
REMARK 922        TOTAL FREE ENERGY PREDICTED BY IDOCK:  -10.48 KCAL/MOL
REMARK 923 INTER-LIGAND FREE ENERGY PREDICTED BY IDOCK:   -8.93 KCAL/MOL
REMARK 924 INTRA-LIGAND FREE ENERGY PREDICTED BY IDOCK:   -1.55 KCAL/MOL
REMARK 927      BINDING AFFINITY PREDICTED BY RF-SCORE:    0.00 PKD
ROOT
HETATM    1  C   UNL     1     -10.758  13.494  67.445  1.00  0.00    -0.263 C  
ENDROOT
BRANCH   1   2
HETATM    2  C   UNL     1     -12.035  13.234  68.309  1.00  0.00    -0.302 C  
HETATM    3  O   UNL     1     -12.447  14.416  69.008  1.00  0.00    -0.561 OA 
HETATM    4  H   UNL     1     -13.223  14.258  69.534  1.00  0.00     0.000 HD 
BRANCH   2   5
HETATM    5  C   UNL     1     -11.887  12.048  69.266  1.00  0.00    -0.377 A  
HETATM    6  C   UNL     1      -9.191   8.526  70.665  1.00  0.00    -0.163 C  
HETATM    7  C   UNL     1     -10.762   9.963  69.835  1.00  0.00    -0.280 A  
HETATM    8  C   UNL     1     -12.529  11.999  70.518  1.00  0.00    -0.292 A  
HETATM    9  C   UNL     1     -11.414   9.921  71.069  1.00  0.00    -0.388 A  
HETATM   10  C   UNL     1     -10.252   7.955  71.592  1.00  0.00    -0.192 C  
HETATM   11  C   UNL     1     -11.025  10.988  68.922  1.00  0.00    -0.277 A  
HETATM   12  O   UNL     1     -11.185   8.958  72.017  1.00  0.00    -0.353 OA 
HETATM   13  O   UNL     1      -9.805   9.045  69.479  1.00  0.00    -0.172 OA 
HETATM   14  C   UNL     1     -12.313  10.931  71.401  1.00  0.00    -0.403 A  
ENDBRANCH   2   5
ENDBRANCH   1   2
BRANCH   1  15
HETATM   15  N   UNL     1     -10.543  14.950  67.368  1.00  0.00    -0.259 NA 
HETATM   16  H   UNL     1     -11.106  15.527  67.993  1.00  0.00     0.000 HD 
BRANCH  15  17
HETATM   17  C   UNL     1      -9.730  15.563  66.605  1.00  0.00    -0.247 C  
HETATM   18  H   UNL     1      -9.398  16.500  64.822  1.00  0.00     0.000 HD 
HETATM   19  O   UNL     1     -10.006  16.042  65.392  1.00  0.00    -0.445 OA 
BRANCH  17  20
HETATM   20  C   UNL     1      -8.306  15.794  67.047  1.00  0.00    -0.259 C  
BRANCH  20  21
HETATM   21  C   UNL     1      -8.204  16.751  68.230  1.00  0.00    -0.204 C  
BRANCH  21  22
HETATM   22  C   UNL     1      -7.319  17.967  67.948  1.00  0.00    -0.222 C  
BRANCH  22  23
HETATM   23  C   UNL     1      -7.861  19.211  68.654  1.00  0.00    -0.390 C  
BRANCH  23  24
HETATM   24  C   UNL     1      -9.310  19.499  68.263  1.00  0.00    -0.420 C  
BRANCH  24  25
HETATM   25  C   UNL     1      -9.394  20.073  66.849  1.00  0.00    -0.515 C  
HETATM   26  C   UNL     1     -10.498  19.411  66.041  1.00  0.00    -0.596 C  
ENDBRANCH  24  25
ENDBRANCH  23  24
ENDBRANCH  22  23
ENDBRANCH  21  22
ENDBRANCH  20  21
ENDBRANCH  17  20
ENDBRANCH  15  17
ENDBRANCH   1  15
BRANCH   1  27
HETATM   27  C   UNL     1     -10.812  13.048  65.943  1.00  0.00    -0.272 C  
BRANCH  27  28
HETATM   28  N   UNL     1      -9.825  12.107  65.357  1.00  0.00    -0.239 NA 
HETATM   29  C   UNL     1     -10.490  10.816  65.062  1.00  0.00    -0.237 C  
HETATM   30  C   UNL     1      -8.734  11.800  66.282  1.00  0.00    -0.106 C  
HETATM   31  C   UNL     1      -9.535   9.697  65.451  1.00  0.00    -0.343 C  
HETATM   32  C   UNL     1      -8.292  10.385  65.965  1.00  0.00    -0.149 C  
ENDBRANCH  27  28
ENDBRANCH   1  27
TORSDOF 12
ENDMDL
MODEL      128
REMARK 921   NORMALIZED FREE ENERGY PREDICTED BY IDOCK:   -4.94 KCAL/MOL
REMARK 922        TOTAL FREE ENERGY PREDICTED BY IDOCK:  -10.46 KCAL/MOL
REMARK 923 INTER-LIGAND FREE ENERGY PREDICTED BY IDOCK:   -9.24 KCAL/MOL
REMARK 924 INTRA-LIGAND FREE ENERGY PREDICTED BY IDOCK:   -1.22 KCAL/MOL
REMARK 927      BINDING AFFINITY PREDICTED BY RF-SCORE:    0.00 PKD
ROOT
HETATM    1  C   UNL     1     -10.975  14.249  68.175  1.00  0.00    -0.246 C  
ENDROOT
BRANCH   1   2
HETATM    2  C   UNL     1     -11.277  15.507  67.296  1.00  0.00    -0.226 C  
HETATM    3  O   UNL     1     -11.336  15.172  65.903  1.00  0.00    -0.319 OA 
HETATM    4  H   UNL     1     -11.520  15.936  65.368  1.00  0.00     0.000 HD 
BRANCH   2   5
HETATM    5  C   UNL     1     -10.311  16.667  67.546  1.00  0.00    -0.294 A  
HETATM    6  C   UNL     1      -7.123  19.507  65.702  1.00  0.00    -0.285 C  
HETATM    7  C   UNL     1      -8.376  17.956  66.819  1.00  0.00    -0.252 A  
HETATM    8  C   UNL     1     -10.527  17.631  68.550  1.00  0.00    -0.337 A  
HETATM    9  C   UNL     1      -8.594  18.897  67.826  1.00  0.00    -0.292 A  
HETATM   10  C   UNL     1      -6.766  20.133  67.041  1.00  0.00    -0.223 C  
HETATM   11  C   UNL     1      -9.194  16.830  66.703  1.00  0.00    -0.279 A  
HETATM   12  O   UNL     1      -7.844  20.034  67.981  1.00  0.00    -0.290 OA 
HETATM   13  O   UNL     1      -7.395  18.111  65.871  1.00  0.00    -0.415 OA 
HETATM   14  C   UNL     1      -9.660  18.722  68.705  1.00  0.00    -0.432 A  
ENDBRANCH   2   5
ENDBRANCH   1   2
BRANCH   1  15
HETATM   15  N   UNL     1     -11.808  13.136  67.689  1.00  0.00    -0.366 NA 
HETATM   16  H   UNL     1     -12.689  13.389  67.241  1.00  0.00     0.000 HD 
BRANCH  15  17
HETATM   17  C   UNL     1     -11.546  11.894  67.769  1.00  0.00    -0.323 C  
HETATM   18  H   UNL     1     -11.922  10.098  68.663  1.00  0.00     0.000 HD 
HETATM   19  O   UNL     1     -12.118  11.026  68.604  1.00  0.00    -0.551 OA 
BRANCH  17  20
HETATM   20  C   UNL     1     -10.496  11.283  66.874  1.00  0.00    -0.286 C  
BRANCH  20  21
HETATM   21  C   UNL     1     -10.241   9.812  67.184  1.00  0.00    -0.288 C  
BRANCH  21  22
HETATM   22  C   UNL     1      -9.717   9.024  65.981  1.00  0.00    -0.339 C  
BRANCH  22  23
HETATM   23  C   UNL     1      -9.551   9.934  64.763  1.00  0.00    -0.339 C  
BRANCH  23  24
HETATM   24  C   UNL     1      -8.117   9.923  64.237  1.00  0.00    -0.152 C  
BRANCH  24  25
HETATM   25  C   UNL     1      -7.121  10.258  65.349  1.00  0.00    -0.139 C  
HETATM   26  C   UNL     1      -5.923   9.324  65.327  1.00  0.00    -0.062 C  
ENDBRANCH  24  25
ENDBRANCH  23  24
ENDBRANCH  22  23
ENDBRANCH  21  22
ENDBRANCH  20  21
ENDBRANCH  17  20
ENDBRANCH  15  17
ENDBRANCH   1  15
BRANCH   1  27
HETATM   27  C   UNL     1     -11.335  14.344  69.699  1.00  0.00    -0.263 C  
BRANCH  27  28
HETATM   28  N   UNL     1     -12.709  14.115  70.206  1.00  0.00    -0.298 NA 
HETATM   29  C   UNL     1     -13.196  15.340  70.883  1.00  0.00    -0.450 C  
HETATM   30  C   UNL     1     -12.761  13.049  71.209  1.00  0.00    -0.293 C  
HETATM   31  C   UNL     1     -13.948  14.917  72.137  1.00  0.00    -0.598 C  
HETATM   32  C   UNL     1     -13.893  13.407  72.152  1.00  0.00    -0.605 C  
ENDBRANCH  27  28
ENDBRANCH   1  27
TORSDOF 12
ENDMDL
MODEL      129
REMARK 921   NORMALIZED FREE ENERGY PREDICTED BY IDOCK:   -4.93 KCAL/MOL
REMARK 922        TOTAL FREE ENERGY PREDICTED BY IDOCK:  -10.44 KCAL/MOL
REMARK 923 INTER-LIGAND FREE ENERGY PREDICTED BY IDOCK:   -8.40 KCAL/MOL
REMARK 924 INTRA-LIGAND FREE ENERGY PREDICTED BY IDOCK:   -2.04 KCAL/MOL
REMARK 927      BINDING AFFINITY PREDICTED BY RF-SCORE:    0.00 PKD
ROOT
HETATM    1  C   UNL     1     -11.175   9.159  70.406  1.00  0.00    -0.240 C  
ENDROOT
BRANCH   1   2
HETATM    2  C   UNL     1     -12.214  10.307  70.632  1.00  0.00    -0.329 C  
HETATM    3  O   UNL     1     -13.560   9.820  70.552  1.00  0.00    -0.591 OA 
HETATM    4  H   UNL     1     -14.192  10.518  70.689  1.00  0.00     0.000 HD 
BRANCH   2   5
HETATM    5  C   UNL     1     -12.002  11.506  69.704  1.00  0.00    -0.407 A  
HETATM    6  C   UNL     1     -12.501  13.195  65.399  1.00  0.00    -0.481 C  
HETATM    7  C   UNL     1     -11.855  12.378  67.433  1.00  0.00    -0.289 A  
HETATM    8  C   UNL     1     -11.965  12.832  70.174  1.00  0.00    -0.371 A  
HETATM    9  C   UNL     1     -11.808  13.687  67.914  1.00  0.00    -0.366 A  
HETATM   10  C   UNL     1     -11.739  14.473  65.708  1.00  0.00    -0.344 C  
HETATM   11  C   UNL     1     -11.907  11.294  68.314  1.00  0.00    -0.299 A  
HETATM   12  O   UNL     1     -11.778  14.794  67.105  1.00  0.00    -0.376 OA 
HETATM   13  O   UNL     1     -11.907  12.090  66.092  1.00  0.00    -0.546 OA 
HETATM   14  C   UNL     1     -11.843  13.912  69.288  1.00  0.00    -0.394 A  
ENDBRANCH   2   5
ENDBRANCH   1   2
BRANCH   1  15
HETATM   15  N   UNL     1     -11.332   8.176  71.492  1.00  0.00    -0.254 NA 
HETATM   16  H   UNL     1     -10.866   8.392  72.373  1.00  0.00     0.000 HD 
BRANCH  15  17
HETATM   17  C   UNL     1     -11.989   7.087  71.448  1.00  0.00    -0.340 C  
HETATM   18  H   UNL     1     -13.792   6.159  71.214  1.00  0.00     0.000 HD 
HETATM   19  O   UNL     1     -13.302   6.973  71.246  1.00  0.00    -0.346 OA 
BRANCH  17  20
HETATM   20  C   UNL     1     -11.281   5.770  71.644  1.00  0.00    -0.258 C  
BRANCH  20  21
HETATM   21  C   UNL     1     -11.563   5.147  73.008  1.00  0.00    -0.301 C  
BRANCH  21  22
HETATM   22  C   UNL     1     -10.415   4.276  73.523  1.00  0.00    -0.265 C  
BRANCH  22  23
HETATM   23  C   UNL     1      -9.125   4.564  72.753  1.00  0.00    -0.134 C  
BRANCH  23  24
HETATM   24  C   UNL     1      -8.141   5.387  73.584  1.00  0.00    -0.113 C  
BRANCH  24  25
HETATM   25  C   UNL     1      -7.984   6.797  73.013  1.00  0.00    -0.107 C  
HETATM   26  C   UNL     1      -8.620   7.840  73.917  1.00  0.00    -0.313 C  
ENDBRANCH  24  25
ENDBRANCH  23  24
ENDBRANCH  22  23
ENDBRANCH  21  22
ENDBRANCH  20  21
ENDBRANCH  17  20
ENDBRANCH  15  17
ENDBRANCH   1  15
BRANCH   1  27
HETATM   27  C   UNL     1      -9.658   9.549  70.476  1.00  0.00    -0.251 C  
BRANCH  27  28
HETATM   28  N   UNL     1      -8.747   9.408  69.313  1.00  0.00    -0.138 NA 
HETATM   29  C   UNL     1      -8.391  10.752  68.800  1.00  0.00    -0.147 C  
HETATM   30  C   UNL     1      -9.376   8.700  68.197  1.00  0.00    -0.137 C  
HETATM   31  C   UNL     1      -8.401  10.691  67.279  1.00  0.00    -0.120 C  
HETATM   32  C   UNL     1      -8.759   9.264  66.933  1.00  0.00    -0.136 C  
ENDBRANCH  27  28
ENDBRANCH   1  27
TORSDOF 12
ENDMDL
MODEL      130
REMARK 921   NORMALIZED FREE ENERGY PREDICTED BY IDOCK:   -4.92 KCAL/MOL
REMARK 922        TOTAL FREE ENERGY PREDICTED BY IDOCK:  -10.43 KCAL/MOL
REMARK 923 INTER-LIGAND FREE ENERGY PREDICTED BY IDOCK:   -8.89 KCAL/MOL
REMARK 924 INTRA-LIGAND FREE ENERGY PREDICTED BY IDOCK:   -1.54 KCAL/MOL
REMARK 927      BINDING AFFINITY PREDICTED BY RF-SCORE:    0.00 PKD
ROOT
HETATM    1  C   UNL     1     -10.332  15.406  69.541  1.00  0.00    -0.266 C  
ENDROOT
BRANCH   1   2
HETATM    2  C   UNL     1     -11.208  16.551  68.934  1.00  0.00    -0.257 C  
HETATM    3  O   UNL     1     -12.248  16.028  68.097  1.00  0.00    -0.150 OA 
HETATM    4  H   UNL     1     -12.781  16.724  67.727  1.00  0.00     0.000 HD 
BRANCH   2   5
HETATM    5  C   UNL     1     -10.388  17.615  68.199  1.00  0.00    -0.386 A  
HETATM    6  C   UNL     1      -6.414  20.028  68.078  1.00  0.00    -0.255 C  
HETATM    7  C   UNL     1      -8.539  19.202  68.227  1.00  0.00    -0.335 A  
HETATM    8  C   UNL     1     -10.535  17.869  66.822  1.00  0.00    -0.315 A  
HETATM    9  C   UNL     1      -8.704  19.453  66.864  1.00  0.00    -0.303 A  
HETATM   10  C   UNL     1      -6.875  20.916  66.934  1.00  0.00    -0.307 C  
HETATM   11  C   UNL     1      -9.396  18.328  68.901  1.00  0.00    -0.205 A  
HETATM   12  O   UNL     1      -7.886  20.280  66.139  1.00  0.00    -0.258 OA 
HETATM   13  O   UNL     1      -7.512  19.749  68.955  1.00  0.00    -0.332 OA 
HETATM   14  C   UNL     1      -9.716  18.799  66.166  1.00  0.00    -0.280 A  
ENDBRANCH   2   5
ENDBRANCH   1   2
BRANCH   1  15
HETATM   15  N   UNL     1      -9.339  15.001  68.532  1.00  0.00    -0.190 NA 
HETATM   16  H   UNL     1      -8.784  15.748  68.112  1.00  0.00     0.000 HD 
BRANCH  15  17
HETATM   17  C   UNL     1      -9.099  13.818  68.127  1.00  0.00    -0.194 C  
HETATM   18  H   UNL     1      -8.036  12.091  68.357  1.00  0.00     0.000 HD 
HETATM   19  O   UNL     1      -8.215  12.974  68.660  1.00  0.00    -0.101 OA 
BRANCH  17  20
HETATM   20  C   UNL     1      -9.839  13.262  66.937  1.00  0.00    -0.247 C  
BRANCH  20  21
HETATM   21  C   UNL     1      -9.988  14.277  65.808  1.00  0.00    -0.346 C  
BRANCH  21  22
HETATM   22  C   UNL     1     -11.415  14.369  65.264  1.00  0.00    -0.350 C  
BRANCH  22  23
HETATM   23  C   UNL     1     -11.564  13.545  63.983  1.00  0.00    -0.394 C  
BRANCH  23  24
HETATM   24  C   UNL     1     -12.038  12.122  64.277  1.00  0.00    -0.465 C  
BRANCH  24  25
HETATM   25  C   UNL     1     -10.886  11.124  64.161  1.00  0.00    -0.355 C  
HETATM   26  C   UNL     1      -9.802  11.628  63.223  1.00  0.00    -0.428 C  
ENDBRANCH  24  25
ENDBRANCH  23  24
ENDBRANCH  22  23
ENDBRANCH  21  22
ENDBRANCH  20  21
ENDBRANCH  17  20
ENDBRANCH  15  17
ENDBRANCH   1  15
BRANCH   1  27
HETATM   27  C   UNL     1     -11.063  14.066  69.901  1.00  0.00     0.015 C  
BRANCH  27  28
HETATM   28  N   UNL     1     -12.396  14.037  70.551  1.00  0.00    -0.346 NA 
HETATM   29  C   UNL     1     -12.425  15.021  71.659  1.00  0.00    -0.339 C  
HETATM   30  C   UNL     1     -12.692  12.737  71.155  1.00  0.00    -0.263 C  
HETATM   31  C   UNL     1     -13.168  14.389  72.828  1.00  0.00    -0.611 C  
HETATM   32  C   UNL     1     -13.578  13.015  72.352  1.00  0.00    -0.628 C  
ENDBRANCH  27  28
ENDBRANCH   1  27
TORSDOF 12
ENDMDL
MODEL      131
REMARK 921   NORMALIZED FREE ENERGY PREDICTED BY IDOCK:   -4.92 KCAL/MOL
REMARK 922        TOTAL FREE ENERGY PREDICTED BY IDOCK:  -10.42 KCAL/MOL
REMARK 923 INTER-LIGAND FREE ENERGY PREDICTED BY IDOCK:   -8.72 KCAL/MOL
REMARK 924 INTRA-LIGAND FREE ENERGY PREDICTED BY IDOCK:   -1.71 KCAL/MOL
REMARK 927      BINDING AFFINITY PREDICTED BY RF-SCORE:    0.00 PKD
ROOT
HETATM    1  C   UNL     1     -11.235  15.643  67.134  1.00  0.00    -0.152 C  
ENDROOT
BRANCH   1   2
HETATM    2  C   UNL     1     -10.643  16.924  66.459  1.00  0.00    -0.185 C  
HETATM    3  O   UNL     1     -10.751  16.864  65.031  1.00  0.00    -0.700 OA 
HETATM    4  H   UNL     1     -10.391  17.642  64.620  1.00  0.00     0.000 HD 
BRANCH   2   5
HETATM    5  C   UNL     1      -9.207  17.228  66.894  1.00  0.00    -0.265 A  
HETATM    6  C   UNL     1      -6.479  19.518  69.885  1.00  0.00    -0.259 C  
HETATM    7  C   UNL     1      -7.667  18.650  68.136  1.00  0.00    -0.281 A  
HETATM    8  C   UNL     1      -8.141  16.335  66.672  1.00  0.00    -0.323 A  
HETATM    9  C   UNL     1      -6.618  17.761  67.898  1.00  0.00    -0.189 A  
HETATM   10  C   UNL     1      -5.199  19.132  69.162  1.00  0.00    -0.196 C  
HETATM   11  C   UNL     1      -8.938  18.414  67.606  1.00  0.00    -0.282 A  
HETATM   12  O   UNL     1      -5.355  17.922  68.408  1.00  0.00    -0.152 OA 
HETATM   13  O   UNL     1      -7.524  19.758  68.935  1.00  0.00    -0.332 OA 
HETATM   14  C   UNL     1      -6.853  16.612  67.148  1.00  0.00    -0.223 A  
ENDBRANCH   2   5
ENDBRANCH   1   2
BRANCH   1  15
HETATM   15  N   UNL     1     -10.670  15.534  68.490  1.00  0.00    -0.250 NA 
HETATM   16  H   UNL     1      -9.674  15.319  68.553  1.00  0.00     0.000 HD 
BRANCH  15  17
HETATM   17  C   UNL     1     -11.291  15.679  69.590  1.00  0.00    -0.329 C  
HETATM   18  H   UNL     1     -11.519  16.731  71.325  1.00  0.00     0.000 HD 
HETATM   19  O   UNL     1     -11.055  16.622  70.503  1.00  0.00    -0.260 OA 
BRANCH  17  20
HETATM   20  C   UNL     1     -12.400  14.728  69.964  1.00  0.00    -0.365 C  
BRANCH  20  21
HETATM   21  C   UNL     1     -11.890  13.328  70.290  1.00  0.00    -0.307 C  
BRANCH  21  22
HETATM   22  C   UNL     1     -12.204  12.302  69.199  1.00  0.00    -0.075 C  
BRANCH  22  23
HETATM   23  C   UNL     1     -11.273  11.092  69.303  1.00  0.00    -0.331 C  
BRANCH  23  24
HETATM   24  C   UNL     1     -11.235  10.292  68.002  1.00  0.00    -0.303 C  
BRANCH  24  25
HETATM   25  C   UNL     1     -10.025  10.681  67.153  1.00  0.00    -0.234 C  
HETATM   26  C   UNL     1      -9.855   9.752  65.962  1.00  0.00    -0.342 C  
ENDBRANCH  24  25
ENDBRANCH  23  24
ENDBRANCH  22  23
ENDBRANCH  21  22
ENDBRANCH  20  21
ENDBRANCH  17  20
ENDBRANCH  15  17
ENDBRANCH   1  15
BRANCH   1  27
HETATM   27  C   UNL     1     -10.882  14.264  66.474  1.00  0.00    -0.304 C  
BRANCH  27  28
HETATM   28  N   UNL     1     -11.279  13.923  65.086  1.00  0.00    -0.314 NA 
HETATM   29  C   UNL     1     -12.476  13.049  65.116  1.00  0.00    -0.496 C  
HETATM   30  C   UNL     1     -10.242  13.168  64.381  1.00  0.00    -0.297 C  
HETATM   31  C   UNL     1     -12.296  11.971  64.056  1.00  0.00    -0.504 C  
HETATM   32  C   UNL     1     -10.964  12.262  63.404  1.00  0.00    -0.467 C  
ENDBRANCH  27  28
ENDBRANCH   1  27
TORSDOF 12
ENDMDL
MODEL      132
REMARK 921   NORMALIZED FREE ENERGY PREDICTED BY IDOCK:   -4.92 KCAL/MOL
REMARK 922        TOTAL FREE ENERGY PREDICTED BY IDOCK:  -10.42 KCAL/MOL
REMARK 923 INTER-LIGAND FREE ENERGY PREDICTED BY IDOCK:   -8.65 KCAL/MOL
REMARK 924 INTRA-LIGAND FREE ENERGY PREDICTED BY IDOCK:   -1.77 KCAL/MOL
REMARK 927      BINDING AFFINITY PREDICTED BY RF-SCORE:    0.00 PKD
ROOT
HETATM    1  C   UNL     1     -11.842  13.209  67.537  1.00  0.00    -0.360 C  
ENDROOT
BRANCH   1   2
HETATM    2  C   UNL     1     -11.588  14.043  68.836  1.00  0.00    -0.315 C  
HETATM    3  O   UNL     1     -12.817  14.497  69.419  1.00  0.00    -0.509 OA 
HETATM    4  H   UNL     1     -12.662  15.003  70.208  1.00  0.00     0.000 HD 
BRANCH   2   5
HETATM    5  C   UNL     1     -10.611  15.203  68.628  1.00  0.00    -0.234 A  
HETATM    6  C   UNL     1     -10.132  19.794  68.058  1.00  0.00    -0.446 C  
HETATM    7  C   UNL     1     -10.242  17.514  67.950  1.00  0.00    -0.350 A  
HETATM    8  C   UNL     1      -9.278  15.163  69.079  1.00  0.00    -0.221 A  
HETATM    9  C   UNL     1      -8.918  17.456  68.390  1.00  0.00    -0.277 A  
HETATM   10  C   UNL     1      -8.640  19.702  67.783  1.00  0.00    -0.322 C  
HETATM   11  C   UNL     1     -11.070  16.391  68.025  1.00  0.00    -0.292 A  
HETATM   12  O   UNL     1      -8.061  18.526  68.366  1.00  0.00    -0.305 OA 
HETATM   13  O   UNL     1     -10.808  18.672  67.477  1.00  0.00    -0.435 OA 
HETATM   14  C   UNL     1      -8.432  16.272  68.937  1.00  0.00    -0.253 A  
ENDBRANCH   2   5
ENDBRANCH   1   2
BRANCH   1  15
HETATM   15  N   UNL     1     -11.948  11.789  67.916  1.00  0.00    -0.597 NA 
HETATM   16  H   UNL     1     -12.209  11.138  67.174  1.00  0.00     0.000 HD 
BRANCH  15  17
HETATM   17  C   UNL     1     -11.747  11.288  69.068  1.00  0.00    -0.342 C  
HETATM   18  H   UNL     1     -12.412  11.020  70.980  1.00  0.00     0.000 HD 
HETATM   19  O   UNL     1     -12.561  11.394  70.119  1.00  0.00    -0.200 OA 
BRANCH  17  20
HETATM   20  C   UNL     1     -10.491  10.501  69.342  1.00  0.00    -0.264 C  
BRANCH  20  21
HETATM   21  C   UNL     1      -9.946   9.808  68.097  1.00  0.00    -0.179 C  
BRANCH  21  22
HETATM   22  C   UNL     1      -8.612  10.386  67.620  1.00  0.00    -0.118 C  
BRANCH  22  23
HETATM   23  C   UNL     1      -8.258  11.655  68.397  1.00  0.00    -0.155 C  
BRANCH  23  24
HETATM   24  C   UNL     1      -6.890  11.547  69.068  1.00  0.00    -0.107 C  
BRANCH  24  25
HETATM   25  C   UNL     1      -6.216  12.916  69.168  1.00  0.00    -0.101 C  
HETATM   26  C   UNL     1      -5.514  13.289  67.873  1.00  0.00    -0.118 C  
ENDBRANCH  24  25
ENDBRANCH  23  24
ENDBRANCH  22  23
ENDBRANCH  21  22
ENDBRANCH  20  21
ENDBRANCH  17  20
ENDBRANCH  15  17
ENDBRANCH   1  15
BRANCH   1  27
HETATM   27  C   UNL     1     -10.711  13.220  66.451  1.00  0.00    -0.285 C  
BRANCH  27  28
HETATM   28  N   UNL     1     -11.003  13.159  64.998  1.00  0.00    -0.293 NA 
HETATM   29  C   UNL     1     -12.469  13.080  64.793  1.00  0.00    -0.427 C  
HETATM   30  C   UNL     1     -10.439  11.965  64.368  1.00  0.00    -0.311 C  
HETATM   31  C   UNL     1     -12.732  12.085  63.671  1.00  0.00    -0.550 C  
HETATM   32  C   UNL     1     -11.369  11.607  63.226  1.00  0.00    -0.288 C  
ENDBRANCH  27  28
ENDBRANCH   1  27
TORSDOF 12
ENDMDL
MODEL      133
REMARK 921   NORMALIZED FREE ENERGY PREDICTED BY IDOCK:   -4.91 KCAL/MOL
REMARK 922        TOTAL FREE ENERGY PREDICTED BY IDOCK:  -10.42 KCAL/MOL
REMARK 923 INTER-LIGAND FREE ENERGY PREDICTED BY IDOCK:   -9.89 KCAL/MOL
REMARK 924 INTRA-LIGAND FREE ENERGY PREDICTED BY IDOCK:   -0.53 KCAL/MOL
REMARK 927      BINDING AFFINITY PREDICTED BY RF-SCORE:    0.00 PKD
ROOT
HETATM    1  C   UNL     1     -10.434  14.350  66.450  1.00  0.00    -0.295 C  
ENDROOT
BRANCH   1   2
HETATM    2  C   UNL     1     -11.737  13.573  66.831  1.00  0.00    -0.384 C  
HETATM    3  O   UNL     1     -12.751  14.458  67.327  1.00  0.00    -0.437 OA 
HETATM    4  H   UNL     1     -13.543  13.987  67.558  1.00  0.00     0.000 HD 
BRANCH   2   5
HETATM    5  C   UNL     1     -11.490  12.415  67.802  1.00  0.00    -0.383 A  
HETATM    6  C   UNL     1     -12.913  10.233  71.655  1.00  0.00    -0.465 C  
HETATM    7  C   UNL     1     -11.889  11.411  69.986  1.00  0.00    -0.359 A  
HETATM    8  C   UNL     1     -10.852  11.222  67.413  1.00  0.00    -0.311 A  
HETATM    9  C   UNL     1     -11.243  10.239  69.590  1.00  0.00    -0.269 A  
HETATM   10  C   UNL     1     -11.715   9.298  71.683  1.00  0.00    -0.392 C  
HETATM   11  C   UNL     1     -11.976  12.506  69.121  1.00  0.00    -0.287 A  
HETATM   12  O   UNL     1     -11.143   9.123  70.380  1.00  0.00    -0.241 OA 
HETATM   13  O   UNL     1     -12.510  11.532  71.204  1.00  0.00    -0.376 OA 
HETATM   14  C   UNL     1     -10.707  10.153  68.308  1.00  0.00    -0.277 A  
ENDBRANCH   2   5
ENDBRANCH   1   2
BRANCH   1  15
HETATM   15  N   UNL     1     -10.521  15.704  67.023  1.00  0.00    -0.297 NA 
HETATM   16  H   UNL     1     -10.977  15.786  67.933  1.00  0.00     0.000 HD 
BRANCH  15  17
HETATM   17  C   UNL     1     -10.088  16.782  66.505  1.00  0.00    -0.315 C  
HETATM   18  H   UNL     1     -10.451  18.399  65.312  1.00  0.00     0.000 HD 
HETATM   19  O   UNL     1     -10.775  17.593  65.700  1.00  0.00    -0.495 OA 
BRANCH  17  20
HETATM   20  C   UNL     1      -8.676  17.238  66.776  1.00  0.00    -0.275 C  
BRANCH  20  21
HETATM   21  C   UNL     1      -8.517  17.875  68.153  1.00  0.00    -0.268 C  
BRANCH  21  22
HETATM   22  C   UNL     1      -8.564  19.404  68.120  1.00  0.00    -0.374 C  
BRANCH  22  23
HETATM   23  C   UNL     1      -7.156  19.995  68.215  1.00  0.00    -0.323 C  
BRANCH  23  24
HETATM   24  C   UNL     1      -6.366  19.395  69.377  1.00  0.00    -0.349 C  
BRANCH  24  25
HETATM   25  C   UNL     1      -5.780  20.491  70.268  1.00  0.00    -0.336 C  
HETATM   26  C   UNL     1      -5.849  20.112  71.738  1.00  0.00    -0.342 C  
ENDBRANCH  24  25
ENDBRANCH  23  24
ENDBRANCH  22  23
ENDBRANCH  21  22
ENDBRANCH  20  21
ENDBRANCH  17  20
ENDBRANCH  15  17
ENDBRANCH   1  15
BRANCH   1  27
HETATM   27  C   UNL     1     -10.180  14.609  64.924  1.00  0.00    -0.287 C  
BRANCH  27  28
HETATM   28  N   UNL     1     -10.470  13.589  63.886  1.00  0.00    -0.075 NA 
HETATM   29  C   UNL     1     -11.937  13.433  63.745  1.00  0.00    -0.461 C  
HETATM   30  C   UNL     1      -9.954  12.268  64.247  1.00  0.00    -0.217 C  
HETATM   31  C   UNL     1     -12.237  11.950  63.583  1.00  0.00    -0.586 C  
HETATM   32  C   UNL     1     -10.894  11.258  63.620  1.00  0.00    -0.410 C  
ENDBRANCH  27  28
ENDBRANCH   1  27
TORSDOF 12
ENDMDL
MODEL      134
REMARK 921   NORMALIZED FREE ENERGY PREDICTED BY IDOCK:   -4.91 KCAL/MOL
REMARK 922        TOTAL FREE ENERGY PREDICTED BY IDOCK:  -10.41 KCAL/MOL
REMARK 923 INTER-LIGAND FREE ENERGY PREDICTED BY IDOCK:   -9.06 KCAL/MOL
REMARK 924 INTRA-LIGAND FREE ENERGY PREDICTED BY IDOCK:   -1.35 KCAL/MOL
REMARK 927      BINDING AFFINITY PREDICTED BY RF-SCORE:    0.00 PKD
ROOT
HETATM    1  C   UNL     1     -10.060  11.555  68.277  1.00  0.00    -0.199 C  
ENDROOT
BRANCH   1   2
HETATM    2  C   UNL     1     -11.062  10.411  68.642  1.00  0.00    -0.262 C  
HETATM    3  O   UNL     1     -12.408  10.898  68.726  1.00  0.00    -0.783 OA 
HETATM    4  H   UNL     1     -13.017  10.203  68.948  1.00  0.00     0.000 HD 
BRANCH   2   5
HETATM    5  C   UNL     1     -10.670   9.645  69.908  1.00  0.00    -0.283 A  
HETATM    6  C   UNL     1      -7.223   8.465  72.799  1.00  0.00    -0.069 C  
HETATM    7  C   UNL     1      -8.919   8.649  71.278  1.00  0.00    -0.210 A  
HETATM    8  C   UNL     1     -11.577   9.398  70.956  1.00  0.00    -0.400 A  
HETATM    9  C   UNL     1      -9.831   8.399  72.304  1.00  0.00    -0.313 A  
HETATM   10  C   UNL     1      -8.094   7.515  73.604  1.00  0.00    -0.138 C  
HETATM   11  C   UNL     1      -9.336   9.224  70.074  1.00  0.00    -0.232 A  
HETATM   12  O   UNL     1      -9.483   7.859  73.515  1.00  0.00    -0.281 OA 
HETATM   13  O   UNL     1      -7.576   8.396  71.412  1.00  0.00    -0.079 OA 
HETATM   14  C   UNL     1     -11.165   8.757  72.134  1.00  0.00    -0.408 A  
ENDBRANCH   2   5
ENDBRANCH   1   2
BRANCH   1  15
HETATM   15  N   UNL     1     -10.341  12.709  69.148  1.00  0.00    -0.423 NA 
HETATM   16  H   UNL     1      -9.910  12.698  70.073  1.00  0.00     0.000 HD 
BRANCH  15  17
HETATM   17  C   UNL     1     -11.064  13.718  68.870  1.00  0.00    -0.266 C  
HETATM   18  H   UNL     1     -12.925  14.557  68.826  1.00  0.00     0.000 HD 
HETATM   19  O   UNL     1     -12.385  13.803  69.034  1.00  0.00    -0.302 OA 
BRANCH  17  20
HETATM   20  C   UNL     1     -10.437  14.961  68.290  1.00  0.00    -0.239 C  
BRANCH  20  21
HETATM   21  C   UNL     1      -9.764  15.830  69.348  1.00  0.00    -0.286 C  
BRANCH  21  22
HETATM   22  C   UNL     1      -8.259  15.994  69.127  1.00  0.00    -0.241 C  
BRANCH  22  23
HETATM   23  C   UNL     1      -7.976  17.059  68.067  1.00  0.00    -0.195 C  
BRANCH  23  24
HETATM   24  C   UNL     1      -8.788  18.331  68.310  1.00  0.00    -0.301 C  
BRANCH  24  25
HETATM   25  C   UNL     1      -9.322  18.902  66.996  1.00  0.00    -0.329 C  
HETATM   26  C   UNL     1     -10.761  19.372  67.135  1.00  0.00    -0.593 C  
ENDBRANCH  24  25
ENDBRANCH  23  24
ENDBRANCH  22  23
ENDBRANCH  21  22
ENDBRANCH  20  21
ENDBRANCH  17  20
ENDBRANCH  15  17
ENDBRANCH   1  15
BRANCH   1  27
HETATM   27  C   UNL     1     -10.158  12.152  66.829  1.00  0.00    -0.200 C  
BRANCH  27  28
HETATM   28  N   UNL     1     -11.173  11.695  65.849  1.00  0.00    -0.280 NA 
HETATM   29  C   UNL     1     -10.494  11.245  64.610  1.00  0.00    -0.325 C  
HETATM   30  C   UNL     1     -12.080  12.771  65.447  1.00  0.00    -0.462 C  
HETATM   31  C   UNL     1     -11.310  11.737  63.423  1.00  0.00    -0.437 C  
HETATM   32  C   UNL     1     -12.489  12.472  64.019  1.00  0.00    -0.527 C  
ENDBRANCH  27  28
ENDBRANCH   1  27
TORSDOF 12
ENDMDL
MODEL      135
REMARK 921   NORMALIZED FREE ENERGY PREDICTED BY IDOCK:   -4.91 KCAL/MOL
REMARK 922        TOTAL FREE ENERGY PREDICTED BY IDOCK:  -10.40 KCAL/MOL
REMARK 923 INTER-LIGAND FREE ENERGY PREDICTED BY IDOCK:   -8.97 KCAL/MOL
REMARK 924 INTRA-LIGAND FREE ENERGY PREDICTED BY IDOCK:   -1.44 KCAL/MOL
REMARK 927      BINDING AFFINITY PREDICTED BY RF-SCORE:    0.00 PKD
ROOT
HETATM    1  C   UNL     1     -11.292  11.322  68.701  1.00  0.00    -0.273 C  
ENDROOT
BRANCH   1   2
HETATM    2  C   UNL     1     -12.125  11.213  70.020  1.00  0.00    -0.359 C  
HETATM    3  O   UNL     1     -12.029  12.410  70.803  1.00  0.00    -0.482 OA 
HETATM    4  H   UNL     1     -12.535  12.344  71.605  1.00  0.00     0.000 HD 
BRANCH   2   5
HETATM    5  C   UNL     1     -11.779   9.976  70.854  1.00  0.00    -0.462 A  
HETATM    6  C   UNL     1      -8.687   7.971  73.690  1.00  0.00    -0.268 C  
HETATM    7  C   UNL     1     -10.096   8.666  72.031  1.00  0.00    -0.331 A  
HETATM    8  C   UNL     1     -12.763   9.127  71.395  1.00  0.00    -0.383 A  
HETATM    9  C   UNL     1     -11.081   7.824  72.550  1.00  0.00    -0.346 A  
HETATM   10  C   UNL     1      -9.427   6.643  73.715  1.00  0.00    -0.176 C  
HETATM   11  C   UNL     1     -10.431   9.704  71.157  1.00  0.00    -0.281 A  
HETATM   12  O   UNL     1     -10.823   6.804  73.429  1.00  0.00    -0.291 OA 
HETATM   13  O   UNL     1      -8.774   8.555  72.385  1.00  0.00    -0.246 OA 
HETATM   14  C   UNL     1     -12.414   8.045  72.215  1.00  0.00    -0.302 A  
ENDBRANCH   2   5
ENDBRANCH   1   2
BRANCH   1  15
HETATM   15  N   UNL     1     -12.048  12.150  67.746  1.00  0.00    -0.471 NA 
HETATM   16  H   UNL     1     -13.064  12.144  67.841  1.00  0.00     0.000 HD 
BRANCH  15  17
HETATM   17  C   UNL     1     -11.568  12.874  66.816  1.00  0.00    -0.360 C  
HETATM   18  H   UNL     1     -11.710  13.538  64.890  1.00  0.00     0.000 HD 
HETATM   19  O   UNL     1     -12.068  12.998  65.586  1.00  0.00    -0.406 OA 
BRANCH  17  20
HETATM   20  C   UNL     1     -10.318  13.683  67.054  1.00  0.00    -0.260 C  
BRANCH  20  21
HETATM   21  C   UNL     1     -10.342  15.029  66.338  1.00  0.00    -0.293 C  
BRANCH  21  22
HETATM   22  C   UNL     1     -10.149  16.218  67.282  1.00  0.00    -0.264 C  
BRANCH  22  23
HETATM   23  C   UNL     1     -11.284  16.292  68.305  1.00  0.00    -0.324 C  
BRANCH  23  24
HETATM   24  C   UNL     1     -10.765  16.622  69.704  1.00  0.00    -0.286 C  
BRANCH  24  25
HETATM   25  C   UNL     1     -11.131  15.521  70.700  1.00  0.00    -0.378 C  
HETATM   26  C   UNL     1     -11.893  16.077  71.892  1.00  0.00    -0.619 C  
ENDBRANCH  24  25
ENDBRANCH  23  24
ENDBRANCH  22  23
ENDBRANCH  21  22
ENDBRANCH  20  21
ENDBRANCH  17  20
ENDBRANCH  15  17
ENDBRANCH   1  15
BRANCH   1  27
HETATM   27  C   UNL     1     -11.032   9.991  67.911  1.00  0.00    -0.252 C  
BRANCH  27  28
HETATM   28  N   UNL     1      -9.717   9.672  67.304  1.00  0.00    -0.160 NA 
HETATM   29  C   UNL     1      -8.675  10.542  67.898  1.00  0.00    -0.126 C  
HETATM   30  C   UNL     1      -9.693   9.933  65.864  1.00  0.00    -0.262 C  
HETATM   31  C   UNL     1      -7.740  10.983  66.780  1.00  0.00    -0.146 C  
HETATM   32  C   UNL     1      -8.268  10.326  65.526  1.00  0.00    -0.158 C  
ENDBRANCH  27  28
ENDBRANCH   1  27
TORSDOF 12
ENDMDL
MODEL      136
REMARK 921   NORMALIZED FREE ENERGY PREDICTED BY IDOCK:   -4.90 KCAL/MOL
REMARK 922        TOTAL FREE ENERGY PREDICTED BY IDOCK:  -10.40 KCAL/MOL
REMARK 923 INTER-LIGAND FREE ENERGY PREDICTED BY IDOCK:   -8.79 KCAL/MOL
REMARK 924 INTRA-LIGAND FREE ENERGY PREDICTED BY IDOCK:   -1.61 KCAL/MOL
REMARK 927      BINDING AFFINITY PREDICTED BY RF-SCORE:    0.00 PKD
ROOT
HETATM    1  C   UNL     1     -11.797   8.853  71.052  1.00  0.00    -0.276 C  
ENDROOT
BRANCH   1   2
HETATM    2  C   UNL     1     -13.004   9.732  71.520  1.00  0.00    -0.407 C  
HETATM    3  O   UNL     1     -14.233   9.298  70.922  1.00  0.00    -0.447 OA 
HETATM    4  H   UNL     1     -14.966   9.832  71.206  1.00  0.00     0.000 HD 
BRANCH   2   5
HETATM    5  C   UNL     1     -12.781  11.231  71.302  1.00  0.00    -0.510 A  
HETATM    6  C   UNL     1     -11.717  14.575  68.250  1.00  0.00    -0.335 C  
HETATM    7  C   UNL     1     -11.876  13.019  69.916  1.00  0.00    -0.307 A  
HETATM    8  C   UNL     1     -13.398  12.213  72.099  1.00  0.00    -0.438 A  
HETATM    9  C   UNL     1     -12.485  13.983  70.722  1.00  0.00    -0.372 A  
HETATM   10  C   UNL     1     -11.647  15.658  69.315  1.00  0.00    -0.366 C  
HETATM   11  C   UNL     1     -11.983  11.660  70.223  1.00  0.00    -0.445 A  
HETATM   12  O   UNL     1     -12.438  15.329  70.464  1.00  0.00    -0.354 OA 
HETATM   13  O   UNL     1     -11.197  13.345  68.768  1.00  0.00    -0.248 OA 
HETATM   14  C   UNL     1     -13.230  13.578  71.826  1.00  0.00    -0.490 A  
ENDBRANCH   2   5
ENDBRANCH   1   2
BRANCH   1  15
HETATM   15  N   UNL     1     -12.265   7.462  70.921  1.00  0.00    -0.487 NA 
HETATM   16  H   UNL     1     -13.248   7.332  70.681  1.00  0.00     0.000 HD 
BRANCH  15  17
HETATM   17  C   UNL     1     -11.573   6.406  71.076  1.00  0.00    -0.325 C  
HETATM   18  H   UNL     1     -10.964   4.899  72.312  1.00  0.00     0.000 HD 
HETATM   19  O   UNL     1     -11.481   5.689  72.197  1.00  0.00    -0.258 OA 
BRANCH  17  20
HETATM   20  C   UNL     1     -10.749   5.866  69.934  1.00  0.00    -0.406 C  
BRANCH  20  21
HETATM   21  C   UNL     1     -11.111   6.502  68.595  1.00  0.00    -0.348 C  
BRANCH  21  22
HETATM   22  C   UNL     1     -10.617   5.697  67.391  1.00  0.00    -0.312 C  
BRANCH  22  23
HETATM   23  C   UNL     1      -9.091   5.581  67.403  1.00  0.00    -0.110 C  
BRANCH  23  24
HETATM   24  C   UNL     1      -8.451   6.412  66.291  1.00  0.00    -0.131 C  
BRANCH  24  25
HETATM   25  C   UNL     1      -8.387   5.622  64.983  1.00  0.00    -0.146 C  
HETATM   26  C   UNL     1      -7.903   4.200  65.212  1.00  0.00    -0.086 C  
ENDBRANCH  24  25
ENDBRANCH  23  24
ENDBRANCH  22  23
ENDBRANCH  21  22
ENDBRANCH  20  21
ENDBRANCH  17  20
ENDBRANCH  15  17
ENDBRANCH   1  15
BRANCH   1  27
HETATM   27  C   UNL     1     -10.576   8.743  72.030  1.00  0.00    -0.344 C  
BRANCH  27  28
HETATM   28  N   UNL     1      -9.184   9.016  71.596  1.00  0.00    -0.340 NA 
HETATM   29  C   UNL     1      -9.162   9.268  70.136  1.00  0.00    -0.225 C  
HETATM   30  C   UNL     1      -8.297   7.874  71.825  1.00  0.00    -0.118 C  
HETATM   31  C   UNL     1      -7.937   8.574  69.558  1.00  0.00    -0.106 C  
HETATM   32  C   UNL     1      -7.244   7.928  70.736  1.00  0.00    -0.053 C  
ENDBRANCH  27  28
ENDBRANCH   1  27
TORSDOF 12
ENDMDL
MODEL      137
REMARK 921   NORMALIZED FREE ENERGY PREDICTED BY IDOCK:   -4.90 KCAL/MOL
REMARK 922        TOTAL FREE ENERGY PREDICTED BY IDOCK:  -10.40 KCAL/MOL
REMARK 923 INTER-LIGAND FREE ENERGY PREDICTED BY IDOCK:   -9.27 KCAL/MOL
REMARK 924 INTRA-LIGAND FREE ENERGY PREDICTED BY IDOCK:   -1.13 KCAL/MOL
REMARK 927      BINDING AFFINITY PREDICTED BY RF-SCORE:    0.00 PKD
ROOT
HETATM    1  C   UNL     1     -10.754  11.016  68.413  1.00  0.00    -0.203 C  
ENDROOT
BRANCH   1   2
HETATM    2  C   UNL     1      -9.823  10.214  67.445  1.00  0.00    -0.187 C  
HETATM    3  O   UNL     1     -10.127  10.495  66.072  1.00  0.00    -0.238 OA 
HETATM    4  H   UNL     1      -9.562  10.008  65.483  1.00  0.00     0.000 HD 
BRANCH   2   5
HETATM    5  C   UNL     1      -9.823   8.707  67.715  1.00  0.00    -0.218 A  
HETATM    6  C   UNL     1      -9.011   5.340  70.818  1.00  0.00    -0.136 C  
HETATM    7  C   UNL     1      -9.084   6.843  69.099  1.00  0.00    -0.136 A  
HETATM    8  C   UNL     1     -10.665   7.813  67.028  1.00  0.00    -0.316 A  
HETATM    9  C   UNL     1      -9.915   5.966  68.402  1.00  0.00    -0.150 A  
HETATM   10  C   UNL     1      -9.221   4.225  69.807  1.00  0.00    -0.137 C  
HETATM   11  C   UNL     1      -9.001   8.190  68.736  1.00  0.00    -0.144 A  
HETATM   12  O   UNL     1     -10.059   4.640  68.720  1.00  0.00    -0.121 OA 
HETATM   13  O   UNL     1      -8.355   6.450  70.194  1.00  0.00    -0.129 OA 
HETATM   14  C   UNL     1     -10.692   6.449  67.352  1.00  0.00    -0.411 A  
ENDBRANCH   2   5
ENDBRANCH   1   2
BRANCH   1  15
HETATM   15  N   UNL     1     -11.610  10.055  69.129  1.00  0.00    -0.477 NA 
HETATM   16  H   UNL     1     -12.114   9.378  68.555  1.00  0.00     0.000 HD 
BRANCH  15  17
HETATM   17  C   UNL     1     -11.788   9.978  70.387  1.00  0.00    -0.262 C  
HETATM   18  H   UNL     1     -10.987   9.624  72.231  1.00  0.00     0.000 HD 
HETATM   19  O   UNL     1     -10.854   9.681  71.291  1.00  0.00    -0.350 OA 
BRANCH  17  20
HETATM   20  C   UNL     1     -13.155  10.225  70.974  1.00  0.00    -0.458 C  
BRANCH  20  21
HETATM   21  C   UNL     1     -13.157  11.343  72.011  1.00  0.00    -0.423 C  
BRANCH  21  22
HETATM   22  C   UNL     1     -13.002  12.736  71.398  1.00  0.00    -0.359 C  
BRANCH  22  23
HETATM   23  C   UNL     1     -13.720  13.788  72.245  1.00  0.00    -0.673 C  
BRANCH  23  24
HETATM   24  C   UNL     1     -13.386  15.208  71.789  1.00  0.00    -0.506 C  
BRANCH  24  25
HETATM   25  C   UNL     1     -12.188  15.766  72.558  1.00  0.00    -0.570 C  
HETATM   26  C   UNL     1     -12.338  15.555  74.055  1.00  0.00    -0.791 C  
ENDBRANCH  24  25
ENDBRANCH  23  24
ENDBRANCH  22  23
ENDBRANCH  21  22
ENDBRANCH  20  21
ENDBRANCH  17  20
ENDBRANCH  15  17
ENDBRANCH   1  15
BRANCH   1  27
HETATM   27  C   UNL     1     -11.778  12.008  67.758  1.00  0.00    -0.309 C  
BRANCH  27  28
HETATM   28  N   UNL     1     -11.824  13.448  68.109  1.00  0.00    -0.358 NA 
HETATM   29  C   UNL     1     -11.929  14.254  66.870  1.00  0.00    -0.438 C  
HETATM   30  C   UNL     1     -10.604  13.895  68.783  1.00  0.00    -0.246 C  
HETATM   31  C   UNL     1     -11.029  15.472  67.025  1.00  0.00    -0.283 C  
HETATM   32  C   UNL     1     -10.415  15.349  68.401  1.00  0.00    -0.239 C  
ENDBRANCH  27  28
ENDBRANCH   1  27
TORSDOF 12
ENDMDL
MODEL      138
REMARK 921   NORMALIZED FREE ENERGY PREDICTED BY IDOCK:   -4.89 KCAL/MOL
REMARK 922        TOTAL FREE ENERGY PREDICTED BY IDOCK:  -10.37 KCAL/MOL
REMARK 923 INTER-LIGAND FREE ENERGY PREDICTED BY IDOCK:   -8.87 KCAL/MOL
REMARK 924 INTRA-LIGAND FREE ENERGY PREDICTED BY IDOCK:   -1.50 KCAL/MOL
REMARK 927      BINDING AFFINITY PREDICTED BY RF-SCORE:    0.00 PKD
ROOT
HETATM    1  C   UNL     1      -9.408  12.070  67.722  1.00  0.00    -0.190 C  
ENDROOT
BRANCH   1   2
HETATM    2  C   UNL     1      -9.260  13.567  68.153  1.00  0.00    -0.208 C  
HETATM    3  O   UNL     1      -8.050  13.783  68.892  1.00  0.00    -0.313 OA 
HETATM    4  H   UNL     1      -7.959  14.692  69.154  1.00  0.00     0.000 HD 
BRANCH   2   5
HETATM    5  C   UNL     1     -10.476  14.101  68.912  1.00  0.00    -0.229 A  
HETATM    6  C   UNL     1     -13.525  13.350  72.343  1.00  0.00    -0.584 C  
HETATM    7  C   UNL     1     -12.348  13.668  70.410  1.00  0.00    -0.345 A  
HETATM    8  C   UNL     1     -10.761  15.476  69.018  1.00  0.00    -0.243 A  
HETATM    9  C   UNL     1     -12.626  15.033  70.496  1.00  0.00    -0.369 A  
HETATM   10  C   UNL     1     -14.370  14.562  71.988  1.00  0.00    -0.558 C  
HETATM   11  C   UNL     1     -11.315  13.198  69.595  1.00  0.00    -0.182 A  
HETATM   12  O   UNL     1     -13.609  15.560  71.294  1.00  0.00    -0.505 OA 
HETATM   13  O   UNL     1     -13.029  12.732  71.150  1.00  0.00    -0.271 OA 
HETATM   14  C   UNL     1     -11.842  15.935  69.783  1.00  0.00    -0.303 A  
ENDBRANCH   2   5
ENDBRANCH   1   2
BRANCH   1  15
HETATM   15  N   UNL     1      -8.261  11.320  68.260  1.00  0.00    -0.136 NA 
HETATM   16  H   UNL     1      -7.417  11.858  68.459  1.00  0.00     0.000 HD 
BRANCH  15  17
HETATM   17  C   UNL     1      -8.210  10.072  68.505  1.00  0.00    -0.108 C  
HETATM   18  H   UNL     1      -7.137   8.337  68.441  1.00  0.00     0.000 HD 
HETATM   19  O   UNL     1      -7.175   9.269  68.259  1.00  0.00    -0.076 OA 
BRANCH  17  20
HETATM   20  C   UNL     1      -9.397   9.373  69.118  1.00  0.00    -0.159 C  
BRANCH  20  21
HETATM   21  C   UNL     1      -9.684   9.837  70.542  1.00  0.00    -0.195 C  
BRANCH  21  22
HETATM   22  C   UNL     1      -9.579   8.714  71.576  1.00  0.00    -0.327 C  
BRANCH  22  23
HETATM   23  C   UNL     1     -10.926   8.475  72.260  1.00  0.00    -0.426 C  
BRANCH  23  24
HETATM   24  C   UNL     1     -11.959   7.900  71.292  1.00  0.00    -0.321 C  
BRANCH  24  25
HETATM   25  C   UNL     1     -12.547   6.594  71.826  1.00  0.00    -0.323 C  
HETATM   26  C   UNL     1     -11.489   5.742  72.507  1.00  0.00    -0.349 C  
ENDBRANCH  24  25
ENDBRANCH  23  24
ENDBRANCH  22  23
ENDBRANCH  21  22
ENDBRANCH  20  21
ENDBRANCH  17  20
ENDBRANCH  15  17
ENDBRANCH   1  15
BRANCH   1  27
HETATM   27  C   UNL     1      -9.362  11.765  66.184  1.00  0.00    -0.225 C  
BRANCH  27  28
HETATM   28  N   UNL     1     -10.589  11.551  65.379  1.00  0.00    -0.275 NA 
HETATM   29  C   UNL     1     -10.424  12.187  64.050  1.00  0.00    -0.386 C  
HETATM   30  C   UNL     1     -11.766  12.175  65.985  1.00  0.00    -0.321 C  
HETATM   31  C   UNL     1     -11.741  12.858  63.685  1.00  0.00    -0.572 C  
HETATM   32  C   UNL     1     -12.674  12.573  64.839  1.00  0.00    -0.371 C  
ENDBRANCH  27  28
ENDBRANCH   1  27
TORSDOF 12
ENDMDL
MODEL      139
REMARK 921   NORMALIZED FREE ENERGY PREDICTED BY IDOCK:   -4.88 KCAL/MOL
REMARK 922        TOTAL FREE ENERGY PREDICTED BY IDOCK:  -10.36 KCAL/MOL
REMARK 923 INTER-LIGAND FREE ENERGY PREDICTED BY IDOCK:   -9.23 KCAL/MOL
REMARK 924 INTRA-LIGAND FREE ENERGY PREDICTED BY IDOCK:   -1.13 KCAL/MOL
REMARK 927      BINDING AFFINITY PREDICTED BY RF-SCORE:    0.00 PKD
ROOT
HETATM    1  C   UNL     1     -10.396  16.214  68.713  1.00  0.00    -0.248 C  
ENDROOT
BRANCH   1   2
HETATM    2  C   UNL     1     -11.184  14.910  69.067  1.00  0.00    -0.264 C  
HETATM    3  O   UNL     1     -10.718  14.332  70.294  1.00  0.00    -0.417 OA 
HETATM    4  H   UNL     1     -11.197  13.539  70.510  1.00  0.00     0.000 HD 
BRANCH   2   5
HETATM    5  C   UNL     1     -11.189  13.879  67.935  1.00  0.00    -0.302 A  
HETATM    6  C   UNL     1     -12.039  13.092  63.431  1.00  0.00    -0.515 C  
HETATM    7  C   UNL     1     -11.945  13.238  65.710  1.00  0.00    -0.417 A  
HETATM    8  C   UNL     1     -10.339  12.757  67.928  1.00  0.00    -0.228 A  
HETATM    9  C   UNL     1     -11.107  12.123  65.721  1.00  0.00    -0.319 A  
HETATM   10  C   UNL     1     -11.818  11.593  63.553  1.00  0.00    -0.260 C  
HETATM   11  C   UNL     1     -12.023  14.085  66.819  1.00  0.00    -0.473 A  
HETATM   12  O   UNL     1     -10.967  11.266  64.660  1.00  0.00    -0.294 OA 
HETATM   13  O   UNL     1     -12.687  13.588  64.609  1.00  0.00    -0.641 OA 
HETATM   14  C   UNL     1     -10.318  11.872  66.840  1.00  0.00    -0.238 A  
ENDBRANCH   2   5
ENDBRANCH   1   2
BRANCH   1  15
HETATM   15  N   UNL     1     -10.359  16.345  67.246  1.00  0.00    -0.284 NA 
HETATM   16  H   UNL     1     -10.131  15.501  66.718  1.00  0.00     0.000 HD 
BRANCH  15  17
HETATM   17  C   UNL     1     -10.582  17.397  66.567  1.00  0.00    -0.184 C  
HETATM   18  H   UNL     1     -10.823  18.255  64.730  1.00  0.00     0.000 HD 
HETATM   19  O   UNL     1     -10.657  17.469  65.237  1.00  0.00    -0.664 OA 
BRANCH  17  20
HETATM   20  C   UNL     1     -10.778  18.720  67.264  1.00  0.00    -0.490 C  
BRANCH  20  21
HETATM   21  C   UNL     1     -10.173  19.888  66.493  1.00  0.00    -0.611 C  
BRANCH  21  22
HETATM   22  C   UNL     1      -8.913  20.457  67.149  1.00  0.00    -0.453 C  
BRANCH  22  23
HETATM   23  C   UNL     1      -7.810  19.398  67.218  1.00  0.00    -0.285 C  
BRANCH  23  24
HETATM   24  C   UNL     1      -7.091  19.239  65.879  1.00  0.00    -0.304 C  
BRANCH  24  25
HETATM   25  C   UNL     1      -6.701  20.599  65.300  1.00  0.00    -0.215 C  
HETATM   26  C   UNL     1      -5.884  20.451  64.028  1.00  0.00    -0.321 C  
ENDBRANCH  24  25
ENDBRANCH  23  24
ENDBRANCH  22  23
ENDBRANCH  21  22
ENDBRANCH  20  21
ENDBRANCH  17  20
ENDBRANCH  15  17
ENDBRANCH   1  15
BRANCH   1  27
HETATM   27  C   UNL     1      -8.884  16.266  69.127  1.00  0.00    -0.217 C  
BRANCH  27  28
HETATM   28  N   UNL     1      -8.012  15.067  69.105  1.00  0.00    -0.186 NA 
HETATM   29  C   UNL     1      -6.958  15.205  70.138  1.00  0.00    -0.003 C  
HETATM   30  C   UNL     1      -7.312  14.913  67.828  1.00  0.00    -0.166 C  
HETATM   31  C   UNL     1      -5.652  14.692  69.546  1.00  0.00    -0.092 C  
HETATM   32  C   UNL     1      -5.992  14.240  68.145  1.00  0.00    -0.135 C  
ENDBRANCH  27  28
ENDBRANCH   1  27
TORSDOF 12
ENDMDL
MODEL      140
REMARK 921   NORMALIZED FREE ENERGY PREDICTED BY IDOCK:   -4.88 KCAL/MOL
REMARK 922        TOTAL FREE ENERGY PREDICTED BY IDOCK:  -10.36 KCAL/MOL
REMARK 923 INTER-LIGAND FREE ENERGY PREDICTED BY IDOCK:   -9.36 KCAL/MOL
REMARK 924 INTRA-LIGAND FREE ENERGY PREDICTED BY IDOCK:   -1.00 KCAL/MOL
REMARK 927      BINDING AFFINITY PREDICTED BY RF-SCORE:    0.00 PKD
ROOT
HETATM    1  C   UNL     1     -11.308   8.476  70.580  1.00  0.00    -0.217 C  
ENDROOT
BRANCH   1   2
HETATM    2  C   UNL     1     -12.470   9.203  71.334  1.00  0.00    -0.328 C  
HETATM    3  O   UNL     1     -13.732   8.566  71.092  1.00  0.00    -0.556 OA 
HETATM    4  H   UNL     1     -14.439   9.008  71.550  1.00  0.00     0.000 HD 
BRANCH   2   5
HETATM    5  C   UNL     1     -12.539  10.703  71.036  1.00  0.00    -0.516 A  
HETATM    6  C   UNL     1     -13.141  14.966  72.794  1.00  0.00    -0.462 C  
HETATM    7  C   UNL     1     -13.206  12.935  71.748  1.00  0.00    -0.384 A  
HETATM    8  C   UNL     1     -11.867  11.292  69.948  1.00  0.00    -0.436 A  
HETATM    9  C   UNL     1     -12.545  13.505  70.659  1.00  0.00    -0.275 A  
HETATM   10  C   UNL     1     -13.156  15.632  71.428  1.00  0.00    -0.487 C  
HETATM   11  C   UNL     1     -13.243  11.548  71.916  1.00  0.00    -0.479 A  
HETATM   12  O   UNL     1     -12.452  14.857  70.448  1.00  0.00    -0.323 OA 
HETATM   13  O   UNL     1     -13.799  13.695  72.726  1.00  0.00    -0.727 OA 
HETATM   14  C   UNL     1     -11.892  12.679  69.748  1.00  0.00    -0.379 A  
ENDBRANCH   2   5
ENDBRANCH   1   2
BRANCH   1  15
HETATM   15  N   UNL     1     -11.740   7.098  70.288  1.00  0.00    -0.525 NA 
HETATM   16  H   UNL     1     -12.612   6.792  70.720  1.00  0.00     0.000 HD 
BRANCH  15  17
HETATM   17  C   UNL     1     -11.140   6.248  69.554  1.00  0.00    -0.408 C  
HETATM   18  H   UNL     1     -10.669   5.610  67.673  1.00  0.00     0.000 HD 
HETATM   19  O   UNL     1     -11.117   6.245  68.221  1.00  0.00    -0.324 OA 
BRANCH  17  20
HETATM   20  C   UNL     1     -10.376   5.111  70.184  1.00  0.00    -0.340 C  
BRANCH  20  21
HETATM   21  C   UNL     1      -8.900   5.110  69.803  1.00  0.00    -0.130 C  
BRANCH  21  22
HETATM   22  C   UNL     1      -8.435   3.788  69.188  1.00  0.00    -0.100 C  
BRANCH  22  23
HETATM   23  C   UNL     1      -7.597   4.036  67.932  1.00  0.00    -0.067 C  
BRANCH  23  24
HETATM   24  C   UNL     1      -7.884   5.406  67.321  1.00  0.00    -0.101 C  
BRANCH  24  25
HETATM   25  C   UNL     1      -8.194   5.288  65.828  1.00  0.00    -0.119 C  
HETATM   26  C   UNL     1      -9.461   4.487  65.582  1.00  0.00    -0.174 C  
ENDBRANCH  24  25
ENDBRANCH  23  24
ENDBRANCH  22  23
ENDBRANCH  21  22
ENDBRANCH  20  21
ENDBRANCH  17  20
ENDBRANCH  15  17
ENDBRANCH   1  15
BRANCH   1  27
HETATM   27  C   UNL     1      -9.962   8.284  71.362  1.00  0.00    -0.194 C  
BRANCH  27  28
HETATM   28  N   UNL     1      -9.919   8.086  72.832  1.00  0.00    -0.285 NA 
HETATM   29  C   UNL     1      -8.531   7.768  73.245  1.00  0.00    -0.178 C  
HETATM   30  C   UNL     1     -10.741   6.955  73.264  1.00  0.00    -0.320 C  
HETATM   31  C   UNL     1      -8.596   6.675  74.302  1.00  0.00    -0.164 C  
HETATM   32  C   UNL     1     -10.066   6.385  74.495  1.00  0.00    -0.358 C  
ENDBRANCH  27  28
ENDBRANCH   1  27
TORSDOF 12
ENDMDL
MODEL      141
REMARK 921   NORMALIZED FREE ENERGY PREDICTED BY IDOCK:   -4.86 KCAL/MOL
REMARK 922        TOTAL FREE ENERGY PREDICTED BY IDOCK:  -10.33 KCAL/MOL
REMARK 923 INTER-LIGAND FREE ENERGY PREDICTED BY IDOCK:   -9.10 KCAL/MOL
REMARK 924 INTRA-LIGAND FREE ENERGY PREDICTED BY IDOCK:   -1.23 KCAL/MOL
REMARK 927      BINDING AFFINITY PREDICTED BY RF-SCORE:    0.00 PKD
ROOT
HETATM    1  C   UNL     1     -10.281  11.357  67.389  1.00  0.00    -0.193 C  
ENDROOT
BRANCH   1   2
HETATM    2  C   UNL     1     -11.105  10.304  68.200  1.00  0.00    -0.264 C  
HETATM    3  O   UNL     1     -12.423  10.785  68.499  1.00  0.00    -0.748 OA 
HETATM    4  H   UNL     1     -12.924  10.145  68.992  1.00  0.00     0.000 HD 
BRANCH   2   5
HETATM    5  C   UNL     1     -10.392   9.820  69.465  1.00  0.00    -0.247 A  
HETATM    6  C   UNL     1     -10.688   7.236  73.320  1.00  0.00    -0.383 C  
HETATM    7  C   UNL     1     -10.538   8.823  71.683  1.00  0.00    -0.331 A  
HETATM    8  C   UNL     1      -8.990   9.712  69.551  1.00  0.00    -0.203 A  
HETATM    9  C   UNL     1      -9.147   8.732  71.760  1.00  0.00    -0.235 A  
HETATM   10  C   UNL     1      -9.350   7.714  73.860  1.00  0.00    -0.213 C  
HETATM   11  C   UNL     1     -11.157   9.400  70.571  1.00  0.00    -0.330 A  
HETATM   12  O   UNL     1      -8.479   8.159  72.811  1.00  0.00    -0.156 OA 
HETATM   13  O   UNL     1     -11.362   8.312  72.656  1.00  0.00    -0.390 OA 
HETATM   14  C   UNL     1      -8.373   9.196  70.699  1.00  0.00    -0.239 A  
ENDBRANCH   2   5
ENDBRANCH   1   2
BRANCH   1  15
HETATM   15  N   UNL     1     -10.372  12.650  68.088  1.00  0.00    -0.227 NA 
HETATM   16  H   UNL     1     -11.134  12.753  68.759  1.00  0.00     0.000 HD 
BRANCH  15  17
HETATM   17  C   UNL     1      -9.602  13.653  67.944  1.00  0.00    -0.223 C  
HETATM   18  H   UNL     1      -7.701  14.395  67.975  1.00  0.00     0.000 HD 
HETATM   19  O   UNL     1      -8.276  13.646  68.082  1.00  0.00    -0.140 OA 
BRANCH  17  20
HETATM   20  C   UNL     1     -10.176  15.003  67.596  1.00  0.00    -0.236 C  
BRANCH  20  21
HETATM   21  C   UNL     1     -10.352  15.901  68.816  1.00  0.00    -0.228 C  
BRANCH  21  22
HETATM   22  C   UNL     1     -11.809  16.033  69.264  1.00  0.00    -0.264 C  
BRANCH  22  23
HETATM   23  C   UNL     1     -12.109  15.086  70.428  1.00  0.00    -0.384 C  
BRANCH  23  24
HETATM   24  C   UNL     1     -13.518  15.298  70.982  1.00  0.00    -0.516 C  
BRANCH  24  25
HETATM   25  C   UNL     1     -13.521  15.248  72.510  1.00  0.00    -0.588 C  
HETATM   26  C   UNL     1     -12.309  15.953  73.095  1.00  0.00    -0.619 C  
ENDBRANCH  24  25
ENDBRANCH  23  24
ENDBRANCH  22  23
ENDBRANCH  21  22
ENDBRANCH  20  21
ENDBRANCH  17  20
ENDBRANCH  15  17
ENDBRANCH   1  15
BRANCH   1  27
HETATM   27  C   UNL     1     -10.777  11.684  65.937  1.00  0.00    -0.278 C  
BRANCH  27  28
HETATM   28  N   UNL     1     -10.462  10.818  64.776  1.00  0.00    -0.311 NA 
HETATM   29  C   UNL     1      -9.168  10.134  65.007  1.00  0.00    -0.217 C  
HETATM   30  C   UNL     1     -10.302  11.584  63.539  1.00  0.00    -0.433 C  
HETATM   31  C   UNL     1      -8.396  10.135  63.694  1.00  0.00    -0.170 C  
HETATM   32  C   UNL     1      -9.295  10.827  62.696  1.00  0.00    -0.340 C  
ENDBRANCH  27  28
ENDBRANCH   1  27
TORSDOF 12
ENDMDL
MODEL      142
REMARK 921   NORMALIZED FREE ENERGY PREDICTED BY IDOCK:   -4.85 KCAL/MOL
REMARK 922        TOTAL FREE ENERGY PREDICTED BY IDOCK:  -10.32 KCAL/MOL
REMARK 923 INTER-LIGAND FREE ENERGY PREDICTED BY IDOCK:   -8.72 KCAL/MOL
REMARK 924 INTRA-LIGAND FREE ENERGY PREDICTED BY IDOCK:   -1.60 KCAL/MOL
REMARK 927      BINDING AFFINITY PREDICTED BY RF-SCORE:    0.00 PKD
ROOT
HETATM    1  C   UNL     1      -9.932   9.932  67.652  1.00  0.00    -0.171 C  
ENDROOT
BRANCH   1   2
HETATM    2  C   UNL     1     -10.502  10.666  68.910  1.00  0.00    -0.210 C  
HETATM    3  O   UNL     1      -9.723  11.824  69.241  1.00  0.00    -0.392 OA 
HETATM    4  H   UNL     1     -10.069  12.270  70.006  1.00  0.00     0.000 HD 
BRANCH   2   5
HETATM    5  C   UNL     1     -10.670   9.747  70.123  1.00  0.00    -0.339 A  
HETATM    6  C   UNL     1      -8.620   7.827  73.829  1.00  0.00    -0.252 C  
HETATM    7  C   UNL     1      -9.638   8.389  71.862  1.00  0.00    -0.254 A  
HETATM    8  C   UNL     1     -11.910   9.552  70.761  1.00  0.00    -0.350 A  
HETATM    9  C   UNL     1     -10.875   8.194  72.477  1.00  0.00    -0.361 A  
HETATM   10  C   UNL     1      -9.819   6.954  74.161  1.00  0.00    -0.311 C  
HETATM   11  C   UNL     1      -9.536   9.119  70.675  1.00  0.00    -0.312 A  
HETATM   12  O   UNL     1     -11.040   7.509  73.653  1.00  0.00    -0.280 OA 
HETATM   13  O   UNL     1      -8.465   7.928  72.408  1.00  0.00    -0.117 OA 
HETATM   14  C   UNL     1     -12.015   8.761  71.913  1.00  0.00    -0.435 A  
ENDBRANCH   2   5
ENDBRANCH   1   2
BRANCH   1  15
HETATM   15  N   UNL     1     -10.076  10.829  66.492  1.00  0.00    -0.220 NA 
HETATM   16  H   UNL     1     -10.730  11.605  66.594  1.00  0.00     0.000 HD 
BRANCH  15  17
HETATM   17  C   UNL     1      -9.470  10.738  65.377  1.00  0.00    -0.214 C  
HETATM   18  H   UNL     1      -7.698  10.591  64.375  1.00  0.00     0.000 HD 
HETATM   19  O   UNL     1      -8.150  10.659  65.208  1.00  0.00    -0.153 OA 
BRANCH  17  20
HETATM   20  C   UNL     1     -10.255  10.725  64.089  1.00  0.00    -0.412 C  
BRANCH  20  21
HETATM   21  C   UNL     1     -10.539  12.125  63.557  1.00  0.00    -0.501 C  
BRANCH  21  22
HETATM   22  C   UNL     1     -12.001  12.547  63.715  1.00  0.00    -0.598 C  
BRANCH  22  23
HETATM   23  C   UNL     1     -12.101  13.975  64.255  1.00  0.00    -0.476 C  
BRANCH  23  24
HETATM   24  C   UNL     1     -10.806  14.416  64.935  1.00  0.00    -0.430 C  
BRANCH  24  25
HETATM   25  C   UNL     1     -11.033  14.701  66.420  1.00  0.00    -0.325 C  
HETATM   26  C   UNL     1     -11.963  13.677  67.050  1.00  0.00    -0.448 C  
ENDBRANCH  24  25
ENDBRANCH  23  24
ENDBRANCH  22  23
ENDBRANCH  21  22
ENDBRANCH  20  21
ENDBRANCH  17  20
ENDBRANCH  15  17
ENDBRANCH   1  15
BRANCH   1  27
HETATM   27  C   UNL     1     -10.666   8.622  67.200  1.00  0.00    -0.129 C  
BRANCH  27  28
HETATM   28  N   UNL     1      -9.931   7.406  66.774  1.00  0.00    -0.231 NA 
HETATM   29  C   UNL     1     -10.805   6.220  66.933  1.00  0.00    -0.354 C  
HETATM   30  C   UNL     1      -8.749   7.154  67.601  1.00  0.00    -0.121 C  
HETATM   31  C   UNL     1      -9.958   5.084  67.489  1.00  0.00    -0.209 C  
HETATM   32  C   UNL     1      -8.564   5.650  67.630  1.00  0.00    -0.108 C  
ENDBRANCH  27  28
ENDBRANCH   1  27
TORSDOF 12
ENDMDL
MODEL      143
REMARK 921   NORMALIZED FREE ENERGY PREDICTED BY IDOCK:   -4.84 KCAL/MOL
REMARK 922        TOTAL FREE ENERGY PREDICTED BY IDOCK:  -10.30 KCAL/MOL
REMARK 923 INTER-LIGAND FREE ENERGY PREDICTED BY IDOCK:   -8.80 KCAL/MOL
REMARK 924 INTRA-LIGAND FREE ENERGY PREDICTED BY IDOCK:   -1.50 KCAL/MOL
REMARK 927      BINDING AFFINITY PREDICTED BY RF-SCORE:    0.00 PKD
ROOT
HETATM    1  C   UNL     1      -9.879  10.040  65.077  1.00  0.00    -0.304 C  
ENDROOT
BRANCH   1   2
HETATM    2  C   UNL     1     -10.992  10.981  64.508  1.00  0.00    -0.088 C  
HETATM    3  O   UNL     1     -10.852  11.164  63.093  1.00  0.00    -0.775 OA 
HETATM    4  H   UNL     1     -11.528  11.736  62.747  1.00  0.00     0.000 HD 
BRANCH   2   5
HETATM    5  C   UNL     1     -11.077  12.326  65.235  1.00  0.00    -0.359 A  
HETATM    6  C   UNL     1     -11.368  14.484  69.345  1.00  0.00    -0.279 C  
HETATM    7  C   UNL     1     -11.606  13.561  67.268  1.00  0.00    -0.362 A  
HETATM    8  C   UNL     1     -10.550  13.514  64.696  1.00  0.00    -0.441 A  
HETATM    9  C   UNL     1     -11.090  14.735  66.716  1.00  0.00    -0.338 A  
HETATM   10  C   UNL     1     -11.557  15.856  68.719  1.00  0.00    -0.386 C  
HETATM   11  C   UNL     1     -11.642  12.378  66.525  1.00  0.00    -0.447 A  
HETATM   12  O   UNL     1     -11.005  15.922  67.397  1.00  0.00    -0.318 OA 
HETATM   13  O   UNL     1     -12.049  13.493  68.566  1.00  0.00    -0.359 OA 
HETATM   14  C   UNL     1     -10.580  14.714  65.421  1.00  0.00    -0.390 A  
ENDBRANCH   2   5
ENDBRANCH   1   2
BRANCH   1  15
HETATM   15  N   UNL     1     -10.302   9.583  66.412  1.00  0.00    -0.214 NA 
HETATM   16  H   UNL     1     -10.835  10.247  66.974  1.00  0.00     0.000 HD 
BRANCH  15  17
HETATM   17  C   UNL     1     -10.073   8.447  66.939  1.00  0.00    -0.294 C  
HETATM   18  H   UNL     1      -9.447   6.520  66.696  1.00  0.00     0.000 HD 
HETATM   19  O   UNL     1      -9.618   7.368  66.302  1.00  0.00    -0.149 OA 
BRANCH  17  20
HETATM   20  C   UNL     1     -10.327   8.230  68.410  1.00  0.00    -0.237 C  
BRANCH  20  21
HETATM   21  C   UNL     1      -9.274   8.890  69.293  1.00  0.00    -0.145 C  
BRANCH  21  22
HETATM   22  C   UNL     1      -9.841   9.430  70.608  1.00  0.00    -0.340 C  
BRANCH  22  23
HETATM   23  C   UNL     1     -11.366   9.312  70.634  1.00  0.00    -0.330 C  
BRANCH  23  24
HETATM   24  C   UNL     1     -12.040  10.682  70.700  1.00  0.00    -0.461 C  
BRANCH  24  25
HETATM   25  C   UNL     1     -13.139  10.703  71.763  1.00  0.00    -0.571 C  
HETATM   26  C   UNL     1     -13.539   9.298  72.181  1.00  0.00    -0.536 C  
ENDBRANCH  24  25
ENDBRANCH  23  24
ENDBRANCH  22  23
ENDBRANCH  21  22
ENDBRANCH  20  21
ENDBRANCH  17  20
ENDBRANCH  15  17
ENDBRANCH   1  15
BRANCH   1  27
HETATM   27  C   UNL     1      -8.470  10.679  65.333  1.00  0.00    -0.160 C  
BRANCH  27  28
HETATM   28  N   UNL     1      -7.923  10.878  66.698  1.00  0.00    -0.142 NA 
HETATM   29  C   UNL     1      -7.920  12.324  67.021  1.00  0.00    -0.123 C  
HETATM   30  C   UNL     1      -6.533  10.433  66.810  1.00  0.00    -0.076 C  
HETATM   31  C   UNL     1      -6.621  12.639  67.751  1.00  0.00    -0.130 C  
HETATM   32  C   UNL     1      -5.884  11.324  67.850  1.00  0.00    -0.043 C  
ENDBRANCH  27  28
ENDBRANCH   1  27
TORSDOF 12
ENDMDL
MODEL      144
REMARK 921   NORMALIZED FREE ENERGY PREDICTED BY IDOCK:   -4.83 KCAL/MOL
REMARK 922        TOTAL FREE ENERGY PREDICTED BY IDOCK:  -10.28 KCAL/MOL
REMARK 923 INTER-LIGAND FREE ENERGY PREDICTED BY IDOCK:   -8.58 KCAL/MOL
REMARK 924 INTRA-LIGAND FREE ENERGY PREDICTED BY IDOCK:   -1.70 KCAL/MOL
REMARK 927      BINDING AFFINITY PREDICTED BY RF-SCORE:    0.00 PKD
ROOT
HETATM    1  C   UNL     1     -11.141  10.698  69.489  1.00  0.00    -0.274 C  
ENDROOT
BRANCH   1   2
HETATM    2  C   UNL     1     -10.006   9.657  69.765  1.00  0.00    -0.227 C  
HETATM    3  O   UNL     1      -8.759  10.304  70.054  1.00  0.00    -0.375 OA 
HETATM    4  H   UNL     1      -8.069   9.672  70.222  1.00  0.00     0.000 HD 
BRANCH   2   5
HETATM    5  C   UNL     1      -9.848   8.623  68.647  1.00  0.00    -0.180 A  
HETATM    6  C   UNL     1      -6.906   6.499  65.737  1.00  0.00    -0.053 C  
HETATM    7  C   UNL     1      -8.503   7.715  66.829  1.00  0.00    -0.127 A  
HETATM    8  C   UNL     1     -10.720   7.528  68.497  1.00  0.00    -0.115 A  
HETATM    9  C   UNL     1      -9.383   6.641  66.684  1.00  0.00    -0.163 A  
HETATM   10  C   UNL     1      -8.015   5.778  64.989  1.00  0.00    -0.121 C  
HETATM   11  C   UNL     1      -8.751   8.721  67.767  1.00  0.00    -0.136 A  
HETATM   12  O   UNL     1      -9.186   5.612  65.800  1.00  0.00    -0.156 OA 
HETATM   13  O   UNL     1      -7.339   7.814  66.107  1.00  0.00    -0.075 OA 
HETATM   14  C   UNL     1     -10.503   6.560  67.507  1.00  0.00    -0.297 A  
ENDBRANCH   2   5
ENDBRANCH   1   2
BRANCH   1  15
HETATM   15  N   UNL     1     -12.377  10.210  70.124  1.00  0.00    -0.504 NA 
HETATM   16  H   UNL     1     -12.890   9.482  69.625  1.00  0.00     0.000 HD 
BRANCH  15  17
HETATM   17  C   UNL     1     -12.873  10.598  71.229  1.00  0.00    -0.434 C  
HETATM   18  H   UNL     1     -13.421  12.156  72.430  1.00  0.00     0.000 HD 
HETATM   19  O   UNL     1     -13.050  11.866  71.604  1.00  0.00    -0.436 OA 
BRANCH  17  20
HETATM   20  C   UNL     1     -13.311   9.587  72.259  1.00  0.00    -0.526 C  
BRANCH  20  21
HETATM   21  C   UNL     1     -14.321   8.585  71.708  1.00  0.00    -0.522 C  
BRANCH  21  22
HETATM   22  C   UNL     1     -13.869   7.131  71.855  1.00  0.00    -0.308 C  
BRANCH  22  23
HETATM   23  C   UNL     1     -12.382   6.986  71.525  1.00  0.00    -0.420 C  
BRANCH  23  24
HETATM   24  C   UNL     1     -11.734   5.852  72.319  1.00  0.00    -0.309 C  
BRANCH  24  25
HETATM   25  C   UNL     1     -10.358   6.264  72.842  1.00  0.00    -0.226 C  
HETATM   26  C   UNL     1     -10.270   7.765  73.062  1.00  0.00    -0.393 C  
ENDBRANCH  24  25
ENDBRANCH  23  24
ENDBRANCH  22  23
ENDBRANCH  21  22
ENDBRANCH  20  21
ENDBRANCH  17  20
ENDBRANCH  15  17
ENDBRANCH   1  15
BRANCH   1  27
HETATM   27  C   UNL     1     -11.555  10.918  67.992  1.00  0.00    -0.215 C  
BRANCH  27  28
HETATM   28  N   UNL     1     -12.135  12.194  67.508  1.00  0.00    -0.499 NA 
HETATM   29  C   UNL     1     -11.567  12.521  66.178  1.00  0.00    -0.395 C  
HETATM   30  C   UNL     1     -11.801  13.322  68.380  1.00  0.00    -0.360 C  
HETATM   31  C   UNL     1     -11.290  14.017  66.141  1.00  0.00    -0.322 C  
HETATM   32  C   UNL     1     -11.731  14.544  67.486  1.00  0.00    -0.413 C  
ENDBRANCH  27  28
ENDBRANCH   1  27
TORSDOF 12
ENDMDL
MODEL      145
REMARK 921   NORMALIZED FREE ENERGY PREDICTED BY IDOCK:   -4.82 KCAL/MOL
REMARK 922        TOTAL FREE ENERGY PREDICTED BY IDOCK:  -10.26 KCAL/MOL
REMARK 923 INTER-LIGAND FREE ENERGY PREDICTED BY IDOCK:   -8.96 KCAL/MOL
REMARK 924 INTRA-LIGAND FREE ENERGY PREDICTED BY IDOCK:   -1.31 KCAL/MOL
REMARK 927      BINDING AFFINITY PREDICTED BY RF-SCORE:    0.00 PKD
ROOT
HETATM    1  C   UNL     1     -10.589   9.032  67.543  1.00  0.00    -0.237 C  
ENDROOT
BRANCH   1   2
HETATM    2  C   UNL     1     -10.408   7.503  67.819  1.00  0.00    -0.216 C  
HETATM    3  O   UNL     1     -11.531   6.747  67.344  1.00  0.00    -0.723 OA 
HETATM    4  H   UNL     1     -11.421   5.818  67.511  1.00  0.00     0.000 HD 
BRANCH   2   5
HETATM    5  C   UNL     1     -10.105   7.183  69.285  1.00  0.00    -0.178 A  
HETATM    6  C   UNL     1     -11.487   4.935  73.114  1.00  0.00    -0.278 C  
HETATM    7  C   UNL     1     -10.896   6.378  71.444  1.00  0.00    -0.253 A  
HETATM    8  C   UNL     1      -8.797   7.180  69.806  1.00  0.00    -0.142 A  
HETATM    9  C   UNL     1      -9.596   6.391  71.951  1.00  0.00    -0.151 A  
HETATM   10  C   UNL     1     -10.403   5.550  73.984  1.00  0.00    -0.274 C  
HETATM   11  C   UNL     1     -11.160   6.810  70.142  1.00  0.00    -0.365 A  
HETATM   12  O   UNL     1      -9.266   5.960  73.210  1.00  0.00    -0.133 OA 
HETATM   13  O   UNL     1     -11.961   5.899  72.167  1.00  0.00    -0.274 OA 
HETATM   14  C   UNL     1      -8.549   6.811  71.135  1.00  0.00    -0.132 A  
ENDBRANCH   2   5
ENDBRANCH   1   2
BRANCH   1  15
HETATM   15  N   UNL     1      -9.440   9.495  66.747  1.00  0.00    -0.158 NA 
HETATM   16  H   UNL     1      -8.517   9.380  67.167  1.00  0.00     0.000 HD 
BRANCH  15  17
HETATM   17  C   UNL     1      -9.475  10.022  65.589  1.00  0.00    -0.220 C  
HETATM   18  H   UNL     1      -9.113   9.837  63.589  1.00  0.00     0.000 HD 
HETATM   19  O   UNL     1      -9.087   9.442  64.453  1.00  0.00    -0.217 OA 
BRANCH  17  20
HETATM   20  C   UNL     1      -9.982  11.432  65.416  1.00  0.00    -0.289 C  
BRANCH  20  21
HETATM   21  C   UNL     1     -10.383  11.742  63.978  1.00  0.00    -0.401 C  
BRANCH  21  22
HETATM   22  C   UNL     1     -11.892  11.927  63.798  1.00  0.00    -0.558 C  
BRANCH  22  23
HETATM   23  C   UNL     1     -12.206  13.309  63.223  1.00  0.00    -0.387 C  
BRANCH  23  24
HETATM   24  C   UNL     1     -12.100  14.403  64.285  1.00  0.00    -0.461 C  
BRANCH  24  25
HETATM   25  C   UNL     1     -12.758  13.964  65.593  1.00  0.00    -0.534 C  
HETATM   26  C   UNL     1     -11.969  14.437  66.802  1.00  0.00    -0.423 C  
ENDBRANCH  24  25
ENDBRANCH  23  24
ENDBRANCH  22  23
ENDBRANCH  21  22
ENDBRANCH  20  21
ENDBRANCH  17  20
ENDBRANCH  15  17
ENDBRANCH   1  15
BRANCH   1  27
HETATM   27  C   UNL     1     -10.584   9.985  68.789  1.00  0.00    -0.217 C  
BRANCH  27  28
HETATM   28  N   UNL     1     -11.834  10.481  69.415  1.00  0.00    -0.238 NA 
HETATM   29  C   UNL     1     -11.895  11.957  69.291  1.00  0.00    -0.318 C  
HETATM   30  C   UNL     1     -11.890  10.191  70.849  1.00  0.00    -0.374 C  
HETATM   31  C   UNL     1     -12.431  12.516  70.601  1.00  0.00    -0.323 C  
HETATM   32  C   UNL     1     -12.691  11.314  71.478  1.00  0.00    -0.481 C  
ENDBRANCH  27  28
ENDBRANCH   1  27
TORSDOF 12
ENDMDL
MODEL      146
REMARK 921   NORMALIZED FREE ENERGY PREDICTED BY IDOCK:   -4.82 KCAL/MOL
REMARK 922        TOTAL FREE ENERGY PREDICTED BY IDOCK:  -10.26 KCAL/MOL
REMARK 923 INTER-LIGAND FREE ENERGY PREDICTED BY IDOCK:   -9.06 KCAL/MOL
REMARK 924 INTRA-LIGAND FREE ENERGY PREDICTED BY IDOCK:   -1.20 KCAL/MOL
REMARK 927      BINDING AFFINITY PREDICTED BY RF-SCORE:    0.00 PKD
ROOT
HETATM    1  C   UNL     1     -10.821  13.224  68.277  1.00  0.00    -0.256 C  
ENDROOT
BRANCH   1   2
HETATM    2  C   UNL     1     -11.142  14.377  69.285  1.00  0.00    -0.271 C  
HETATM    3  O   UNL     1     -12.555  14.573  69.425  1.00  0.00    -0.566 OA 
HETATM    4  H   UNL     1     -12.751  15.274  70.037  1.00  0.00     0.000 HD 
BRANCH   2   5
HETATM    5  C   UNL     1     -10.430  15.690  68.948  1.00  0.00    -0.220 A  
HETATM    6  C   UNL     1      -6.345  17.807  68.271  1.00  0.00    -0.188 C  
HETATM    7  C   UNL     1      -8.375  16.999  68.940  1.00  0.00    -0.196 A  
HETATM    8  C   UNL     1     -11.036  16.707  68.186  1.00  0.00    -0.327 A  
HETATM    9  C   UNL     1      -8.992  18.005  68.194  1.00  0.00    -0.283 A  
HETATM   10  C   UNL     1      -6.970  19.188  68.159  1.00  0.00    -0.251 C  
HETATM   11  C   UNL     1      -9.093  15.873  69.352  1.00  0.00    -0.222 A  
HETATM   12  O   UNL     1      -8.340  19.122  67.739  1.00  0.00    -0.280 OA 
HETATM   13  O   UNL     1      -7.040  17.034  69.257  1.00  0.00    -0.237 OA 
HETATM   14  C   UNL     1     -10.330  17.866  67.834  1.00  0.00    -0.396 A  
ENDBRANCH   2   5
ENDBRANCH   1   2
BRANCH   1  15
HETATM   15  N   UNL     1     -10.019  12.208  68.980  1.00  0.00    -0.414 NA 
HETATM   16  H   UNL     1      -9.405  12.546  69.722  1.00  0.00     0.000 HD 
BRANCH  15  17
HETATM   17  C   UNL     1     -10.011  10.955  68.761  1.00  0.00    -0.195 C  
HETATM   18  H   UNL     1      -9.054   9.344  67.951  1.00  0.00     0.000 HD 
HETATM   19  O   UNL     1      -9.059  10.280  68.115  1.00  0.00    -0.133 OA 
BRANCH  17  20
HETATM   20  C   UNL     1     -11.155  10.096  69.240  1.00  0.00    -0.270 C  
BRANCH  20  21
HETATM   21  C   UNL     1     -11.777  10.611  70.534  1.00  0.00    -0.451 C  
BRANCH  21  22
HETATM   22  C   UNL     1     -11.923   9.528  71.605  1.00  0.00    -0.474 C  
BRANCH  22  23
HETATM   23  C   UNL     1     -11.812   8.133  70.989  1.00  0.00    -0.279 C  
BRANCH  23  24
HETATM   24  C   UNL     1     -10.593   7.376  71.516  1.00  0.00    -0.226 C  
BRANCH  24  25
HETATM   25  C   UNL     1      -9.840   8.203  72.558  1.00  0.00    -0.363 C  
HETATM   26  C   UNL     1      -9.465   7.367  73.770  1.00  0.00    -0.328 C  
ENDBRANCH  24  25
ENDBRANCH  23  24
ENDBRANCH  22  23
ENDBRANCH  21  22
ENDBRANCH  20  21
ENDBRANCH  17  20
ENDBRANCH  15  17
ENDBRANCH   1  15
BRANCH   1  27
HETATM   27  C   UNL     1      -9.942  13.593  67.031  1.00  0.00    -0.248 C  
BRANCH  27  28
HETATM   28  N   UNL     1     -10.369  13.296  65.642  1.00  0.00    -0.283 NA 
HETATM   29  C   UNL     1     -10.822  14.546  64.987  1.00  0.00    -0.412 C  
HETATM   30  C   UNL     1     -11.507  12.377  65.595  1.00  0.00    -0.367 C  
HETATM   31  C   UNL     1     -12.061  14.222  64.165  1.00  0.00    -0.423 C  
HETATM   32  C   UNL     1     -12.298  12.742  64.355  1.00  0.00    -0.498 C  
ENDBRANCH  27  28
ENDBRANCH   1  27
TORSDOF 12
ENDMDL
MODEL      147
REMARK 921   NORMALIZED FREE ENERGY PREDICTED BY IDOCK:   -4.82 KCAL/MOL
REMARK 922        TOTAL FREE ENERGY PREDICTED BY IDOCK:  -10.25 KCAL/MOL
REMARK 923 INTER-LIGAND FREE ENERGY PREDICTED BY IDOCK:   -9.16 KCAL/MOL
REMARK 924 INTRA-LIGAND FREE ENERGY PREDICTED BY IDOCK:   -1.09 KCAL/MOL
REMARK 927      BINDING AFFINITY PREDICTED BY RF-SCORE:    0.00 PKD
ROOT
HETATM    1  C   UNL     1     -11.670  13.587  67.546  1.00  0.00    -0.367 C  
ENDROOT
BRANCH   1   2
HETATM    2  C   UNL     1     -11.874  12.128  67.020  1.00  0.00    -0.216 C  
HETATM    3  O   UNL     1     -11.711  11.163  68.068  1.00  0.00    -0.517 OA 
HETATM    4  H   UNL     1     -11.835  10.277  67.749  1.00  0.00     0.000 HD 
BRANCH   2   5
HETATM    5  C   UNL     1     -10.992  11.790  65.815  1.00  0.00    -0.353 A  
HETATM    6  C   UNL     1      -7.744   8.950  64.080  1.00  0.00    -0.128 C  
HETATM    7  C   UNL     1      -9.045  10.628  64.923  1.00  0.00    -0.204 A  
HETATM    8  C   UNL     1     -11.358  12.109  64.493  1.00  0.00    -0.393 A  
HETATM    9  C   UNL     1      -9.414  10.962  63.619  1.00  0.00    -0.285 A  
HETATM   10  C   UNL     1      -7.564   9.771  62.814  1.00  0.00    -0.121 C  
HETATM   11  C   UNL     1      -9.797  11.072  66.015  1.00  0.00    -0.273 A  
HETATM   12  O   UNL     1      -8.734  10.541  62.505  1.00  0.00    -0.190 OA 
HETATM   13  O   UNL     1      -7.972   9.816  65.198  1.00  0.00    -0.118 OA 
HETATM   14  C   UNL     1     -10.562  11.720  63.407  1.00  0.00    -0.479 A  
ENDBRANCH   2   5
ENDBRANCH   1   2
BRANCH   1  15
HETATM   15  N   UNL     1     -10.468  14.144  66.902  1.00  0.00    -0.271 NA 
HETATM   16  H   UNL     1      -9.579  13.699  67.132  1.00  0.00     0.000 HD 
BRANCH  15  17
HETATM   17  C   UNL     1     -10.420  15.122  66.089  1.00  0.00    -0.312 C  
HETATM   18  H   UNL     1     -11.346  16.207  64.628  1.00  0.00     0.000 HD 
HETATM   19  O   UNL     1     -11.381  15.476  65.236  1.00  0.00    -0.286 OA 
BRANCH  17  20
HETATM   20  C   UNL     1      -9.191  15.994  66.026  1.00  0.00    -0.375 C  
BRANCH  20  21
HETATM   21  C   UNL     1      -8.108  15.557  67.007  1.00  0.00    -0.272 C  
BRANCH  21  22
HETATM   22  C   UNL     1      -7.282  16.724  67.553  1.00  0.00    -0.172 C  
BRANCH  22  23
HETATM   23  C   UNL     1      -7.674  18.036  66.871  1.00  0.00    -0.245 C  
BRANCH  23  24
HETATM   24  C   UNL     1      -8.105  19.095  67.885  1.00  0.00    -0.323 C  
BRANCH  24  25
HETATM   25  C   UNL     1      -9.595  19.413  67.747  1.00  0.00    -0.422 C  
HETATM   26  C   UNL     1      -9.979  19.673  66.300  1.00  0.00    -0.563 C  
ENDBRANCH  24  25
ENDBRANCH  23  24
ENDBRANCH  22  23
ENDBRANCH  21  22
ENDBRANCH  20  21
ENDBRANCH  17  20
ENDBRANCH  15  17
ENDBRANCH   1  15
BRANCH   1  27
HETATM   27  C   UNL     1     -11.382  13.756  69.078  1.00  0.00    -0.289 C  
BRANCH  27  28
HETATM   28  N   UNL     1     -12.415  14.227  70.033  1.00  0.00    -0.336 NA 
HETATM   29  C   UNL     1     -11.945  15.467  70.697  1.00  0.00    -0.356 C  
HETATM   30  C   UNL     1     -12.661  13.261  71.105  1.00  0.00    -0.320 C  
HETATM   31  C   UNL     1     -12.332  15.388  72.167  1.00  0.00    -0.458 C  
HETATM   32  C   UNL     1     -13.055  14.070  72.325  1.00  0.00    -0.516 C  
ENDBRANCH  27  28
ENDBRANCH   1  27
TORSDOF 12
ENDMDL
MODEL      148
REMARK 921   NORMALIZED FREE ENERGY PREDICTED BY IDOCK:   -4.78 KCAL/MOL
REMARK 922        TOTAL FREE ENERGY PREDICTED BY IDOCK:  -10.19 KCAL/MOL
REMARK 923 INTER-LIGAND FREE ENERGY PREDICTED BY IDOCK:   -8.76 KCAL/MOL
REMARK 924 INTRA-LIGAND FREE ENERGY PREDICTED BY IDOCK:   -1.43 KCAL/MOL
REMARK 927      BINDING AFFINITY PREDICTED BY RF-SCORE:    0.00 PKD
ROOT
HETATM    1  C   UNL     1     -10.630  11.621  66.595  1.00  0.00    -0.243 C  
ENDROOT
BRANCH   1   2
HETATM    2  C   UNL     1     -10.197  12.052  68.035  1.00  0.00    -0.198 C  
HETATM    3  O   UNL     1      -8.776  12.218  68.129  1.00  0.00    -0.175 OA 
HETATM    4  H   UNL     1      -8.513  12.480  69.004  1.00  0.00     0.000 HD 
BRANCH   2   5
HETATM    5  C   UNL     1     -10.720  11.118  69.130  1.00  0.00    -0.262 A  
HETATM    6  C   UNL     1      -9.606   8.256  72.622  1.00  0.00    -0.282 C  
HETATM    7  C   UNL     1     -10.278   9.322  70.716  1.00  0.00    -0.286 A  
HETATM    8  C   UNL     1     -11.989  11.274  69.719  1.00  0.00    -0.431 A  
HETATM    9  C   UNL     1     -11.544   9.481  71.284  1.00  0.00    -0.374 A  
HETATM   10  C   UNL     1     -11.039   7.795  72.830  1.00  0.00    -0.398 C  
HETATM   11  C   UNL     1      -9.882  10.098  69.624  1.00  0.00    -0.254 A  
HETATM   12  O   UNL     1     -11.985   8.769  72.369  1.00  0.00    -0.359 OA 
HETATM   13  O   UNL     1      -9.350   8.448  71.225  1.00  0.00    -0.160 OA 
HETATM   14  C   UNL     1     -12.406  10.446  70.770  1.00  0.00    -0.463 A  
ENDBRANCH   2   5
ENDBRANCH   1   2
BRANCH   1  15
HETATM   15  N   UNL     1     -12.045  11.987  66.411  1.00  0.00    -0.537 NA 
HETATM   16  H   UNL     1     -12.715  11.551  67.045  1.00  0.00     0.000 HD 
BRANCH  15  17
HETATM   17  C   UNL     1     -12.520  12.790  65.546  1.00  0.00    -0.354 C  
HETATM   18  H   UNL     1     -13.601  13.052  63.835  1.00  0.00     0.000 HD 
HETATM   19  O   UNL     1     -13.247  12.452  64.481  1.00  0.00    -0.834 OA 
BRANCH  17  20
HETATM   20  C   UNL     1     -12.268  14.272  65.671  1.00  0.00    -0.409 C  
BRANCH  20  21
HETATM   21  C   UNL     1     -11.131  14.754  64.776  1.00  0.00    -0.393 C  
BRANCH  21  22
HETATM   22  C   UNL     1      -9.926  15.279  65.561  1.00  0.00    -0.383 C  
BRANCH  22  23
HETATM   23  C   UNL     1     -10.252  16.616  66.229  1.00  0.00    -0.344 C  
BRANCH  23  24
HETATM   24  C   UNL     1     -10.421  16.468  67.740  1.00  0.00    -0.308 C  
BRANCH  24  25
HETATM   25  C   UNL     1      -9.276  15.656  68.345  1.00  0.00    -0.191 C  
HETATM   26  C   UNL     1      -7.970  16.433  68.329  1.00  0.00    -0.170 C  
ENDBRANCH  24  25
ENDBRANCH  23  24
ENDBRANCH  22  23
ENDBRANCH  21  22
ENDBRANCH  20  21
ENDBRANCH  17  20
ENDBRANCH  15  17
ENDBRANCH   1  15
BRANCH   1  27
HETATM   27  C   UNL     1     -10.600  10.086  66.273  1.00  0.00    -0.044 C  
BRANCH  27  28
HETATM   28  N   UNL     1      -9.603   9.488  65.352  1.00  0.00    -0.287 NA 
HETATM   29  C   UNL     1      -8.373   9.150  66.107  1.00  0.00    -0.119 C  
HETATM   30  C   UNL     1      -9.191  10.418  64.299  1.00  0.00    -0.255 C  
HETATM   31  C   UNL     1      -7.176   9.521  65.243  1.00  0.00    -0.104 C  
HETATM   32  C   UNL     1      -7.756  10.068  63.960  1.00  0.00    -0.143 C  
ENDBRANCH  27  28
ENDBRANCH   1  27
TORSDOF 12
ENDMDL
MODEL      149
REMARK 921   NORMALIZED FREE ENERGY PREDICTED BY IDOCK:   -4.78 KCAL/MOL
REMARK 922        TOTAL FREE ENERGY PREDICTED BY IDOCK:  -10.18 KCAL/MOL
REMARK 923 INTER-LIGAND FREE ENERGY PREDICTED BY IDOCK:   -8.80 KCAL/MOL
REMARK 924 INTRA-LIGAND FREE ENERGY PREDICTED BY IDOCK:   -1.38 KCAL/MOL
REMARK 927      BINDING AFFINITY PREDICTED BY RF-SCORE:    0.00 PKD
ROOT
HETATM    1  C   UNL     1     -11.278  13.260  66.665  1.00  0.00    -0.306 C  
ENDROOT
BRANCH   1   2
HETATM    2  C   UNL     1     -11.578  12.895  65.173  1.00  0.00    -0.332 C  
HETATM    3  O   UNL     1     -12.935  12.467  65.000  1.00  0.00    -0.779 OA 
HETATM    4  H   UNL     1     -13.118  12.245  64.094  1.00  0.00     0.000 HD 
BRANCH   2   5
HETATM    5  C   UNL     1     -10.596  11.875  64.591  1.00  0.00    -0.353 A  
HETATM    6  C   UNL     1      -8.378   7.840  65.245  1.00  0.00    -0.122 C  
HETATM    7  C   UNL     1      -9.096   9.990  64.956  1.00  0.00    -0.211 A  
HETATM    8  C   UNL     1     -10.416  11.701  63.206  1.00  0.00    -0.438 A  
HETATM    9  C   UNL     1      -8.917   9.836  63.580  1.00  0.00    -0.244 A  
HETATM   10  C   UNL     1      -7.538   7.987  63.987  1.00  0.00    -0.124 C  
HETATM   11  C   UNL     1      -9.890  11.022  65.462  1.00  0.00    -0.292 A  
HETATM   12  O   UNL     1      -8.172   8.833  63.018  1.00  0.00    -0.175 OA 
HETATM   13  O   UNL     1      -8.555   9.118  65.868  1.00  0.00    -0.136 OA 
HETATM   14  C   UNL     1      -9.563  10.706  62.706  1.00  0.00    -0.333 A  
ENDBRANCH   2   5
ENDBRANCH   1   2
BRANCH   1  15
HETATM   15  N   UNL     1     -12.154  12.444  67.523  1.00  0.00    -0.472 NA 
HETATM   16  H   UNL     1     -13.020  12.108  67.102  1.00  0.00     0.000 HD 
BRANCH  15  17
HETATM   17  C   UNL     1     -11.944  12.114  68.734  1.00  0.00    -0.239 C  
HETATM   18  H   UNL     1     -11.600  12.707  70.657  1.00  0.00     0.000 HD 
HETATM   19  O   UNL     1     -11.757  12.954  69.752  1.00  0.00    -0.307 OA 
BRANCH  17  20
HETATM   20  C   UNL     1     -11.880  10.657  69.120  1.00  0.00    -0.287 C  
BRANCH  20  21
HETATM   21  C   UNL     1     -10.542  10.014  68.771  1.00  0.00    -0.241 C  
BRANCH  21  22
HETATM   22  C   UNL     1     -10.223   8.783  69.623  1.00  0.00    -0.210 C  
BRANCH  22  23
HETATM   23  C   UNL     1     -10.020   9.172  71.089  1.00  0.00    -0.377 C  
BRANCH  23  24
HETATM   24  C   UNL     1     -10.963   8.405  72.015  1.00  0.00    -0.394 C  
BRANCH  24  25
HETATM   25  C   UNL     1     -11.711   7.310  71.253  1.00  0.00    -0.328 C  
HETATM   26  C   UNL     1     -13.216   7.460  71.395  1.00  0.00    -0.395 C  
ENDBRANCH  24  25
ENDBRANCH  23  24
ENDBRANCH  22  23
ENDBRANCH  21  22
ENDBRANCH  20  21
ENDBRANCH  17  20
ENDBRANCH  15  17
ENDBRANCH   1  15
BRANCH   1  27
HETATM   27  C   UNL     1     -11.586  14.731  67.113  1.00  0.00    -0.359 C  
BRANCH  27  28
HETATM   28  N   UNL     1     -10.543  15.785  67.155  1.00  0.00    -0.310 NA 
HETATM   29  C   UNL     1      -9.278  15.205  67.666  1.00  0.00    -0.181 C  
HETATM   30  C   UNL     1     -10.890  16.873  68.070  1.00  0.00    -0.338 C  
HETATM   31  C   UNL     1      -8.645  16.218  68.610  1.00  0.00    -0.222 C  
HETATM   32  C   UNL     1      -9.579  17.406  68.614  1.00  0.00    -0.295 C  
ENDBRANCH  27  28
ENDBRANCH   1  27
TORSDOF 12
ENDMDL
MODEL      150
REMARK 921   NORMALIZED FREE ENERGY PREDICTED BY IDOCK:   -4.77 KCAL/MOL
REMARK 922        TOTAL FREE ENERGY PREDICTED BY IDOCK:  -10.17 KCAL/MOL
REMARK 923 INTER-LIGAND FREE ENERGY PREDICTED BY IDOCK:   -8.94 KCAL/MOL
REMARK 924 INTRA-LIGAND FREE ENERGY PREDICTED BY IDOCK:   -1.24 KCAL/MOL
REMARK 927      BINDING AFFINITY PREDICTED BY RF-SCORE:    0.00 PKD
ROOT
HETATM    1  C   UNL     1     -10.357  10.528  68.790  1.00  0.00    -0.191 C  
ENDROOT
BRANCH   1   2
HETATM    2  C   UNL     1      -8.985   9.783  68.685  1.00  0.00    -0.130 C  
HETATM    3  O   UNL     1      -8.198  10.284  67.596  1.00  0.00    -0.113 OA 
HETATM    4  H   UNL     1      -7.364   9.831  67.532  1.00  0.00     0.000 HD 
BRANCH   2   5
HETATM    5  C   UNL     1      -9.128   8.261  68.612  1.00  0.00    -0.140 A  
HETATM    6  C   UNL     1      -9.056   4.501  65.876  1.00  0.00    -0.133 C  
HETATM    7  C   UNL     1      -9.491   6.268  67.257  1.00  0.00    -0.119 A  
HETATM    8  C   UNL     1      -8.844   7.419  69.704  1.00  0.00    -0.141 A  
HETATM    9  C   UNL     1      -9.218   5.446  68.351  1.00  0.00    -0.111 A  
HETATM   10  C   UNL     1      -9.511   3.566  66.985  1.00  0.00    -0.176 C  
HETATM   11  C   UNL     1      -9.490   7.660  67.390  1.00  0.00    -0.175 A  
HETATM   12  O   UNL     1      -9.180   4.078  68.283  1.00  0.00    -0.127 OA 
HETATM   13  O   UNL     1      -9.718   5.766  66.000  1.00  0.00    -0.121 OA 
HETATM   14  C   UNL     1      -8.914   6.024  69.581  1.00  0.00    -0.133 A  
ENDBRANCH   2   5
ENDBRANCH   1   2
BRANCH   1  15
HETATM   15  N   UNL     1     -11.320   9.629  69.448  1.00  0.00    -0.441 NA 
HETATM   16  H   UNL     1     -11.644   8.829  68.903  1.00  0.00     0.000 HD 
BRANCH  15  17
HETATM   17  C   UNL     1     -11.790   9.742  70.625  1.00  0.00    -0.281 C  
HETATM   18  H   UNL     1     -11.568   9.381  72.622  1.00  0.00     0.000 HD 
HETATM   19  O   UNL     1     -11.217   9.296  71.743  1.00  0.00    -0.362 OA 
BRANCH  17  20
HETATM   20  C   UNL     1     -13.118  10.424  70.846  1.00  0.00    -0.412 C  
BRANCH  20  21
HETATM   21  C   UNL     1     -13.092  11.396  72.021  1.00  0.00    -0.423 C  
BRANCH  21  22
HETATM   22  C   UNL     1     -13.101  12.864  71.591  1.00  0.00    -0.430 C  
BRANCH  22  23
HETATM   23  C   UNL     1     -14.140  13.658  72.385  1.00  0.00    -0.586 C  
BRANCH  23  24
HETATM   24  C   UNL     1     -14.090  15.149  72.051  1.00  0.00    -0.659 C  
BRANCH  24  25
HETATM   25  C   UNL     1     -13.108  15.425  70.913  1.00  0.00    -0.528 C  
HETATM   26  C   UNL     1     -11.839  16.090  71.418  1.00  0.00    -0.531 C  
ENDBRANCH  24  25
ENDBRANCH  23  24
ENDBRANCH  22  23
ENDBRANCH  21  22
ENDBRANCH  20  21
ENDBRANCH  17  20
ENDBRANCH  15  17
ENDBRANCH   1  15
BRANCH   1  27
HETATM   27  C   UNL     1     -11.066  10.907  67.443  1.00  0.00    -0.307 C  
BRANCH  27  28
HETATM   28  N   UNL     1     -11.951  12.091  67.316  1.00  0.00    -0.590 NA 
HETATM   29  C   UNL     1     -11.834  12.651  65.949  1.00  0.00    -0.444 C  
HETATM   30  C   UNL     1     -11.570  13.169  68.230  1.00  0.00    -0.335 C  
HETATM   31  C   UNL     1     -11.817  14.168  66.063  1.00  0.00    -0.409 C  
HETATM   32  C   UNL     1     -11.944  14.465  67.539  1.00  0.00    -0.389 C  
ENDBRANCH  27  28
ENDBRANCH   1  27
TORSDOF 12
ENDMDL
MODEL      151
REMARK 921   NORMALIZED FREE ENERGY PREDICTED BY IDOCK:   -4.77 KCAL/MOL
REMARK 922        TOTAL FREE ENERGY PREDICTED BY IDOCK:  -10.17 KCAL/MOL
REMARK 923 INTER-LIGAND FREE ENERGY PREDICTED BY IDOCK:   -7.85 KCAL/MOL
REMARK 924 INTRA-LIGAND FREE ENERGY PREDICTED BY IDOCK:   -2.32 KCAL/MOL
REMARK 927      BINDING AFFINITY PREDICTED BY RF-SCORE:    0.00 PKD
ROOT
HETATM    1  C   UNL     1     -10.387  10.655  67.148  1.00  0.00    -0.228 C  
ENDROOT
BRANCH   1   2
HETATM    2  C   UNL     1     -10.017   9.145  67.315  1.00  0.00    -0.211 C  
HETATM    3  O   UNL     1     -11.159   8.300  67.122  1.00  0.00    -0.393 OA 
HETATM    4  H   UNL     1     -10.935   7.381  67.223  1.00  0.00     0.000 HD 
BRANCH   2   5
HETATM    5  C   UNL     1      -9.317   8.836  68.641  1.00  0.00    -0.141 A  
HETATM    6  C   UNL     1      -7.301   5.578  71.278  1.00  0.00    -0.085 C  
HETATM    7  C   UNL     1      -8.584   7.177  70.269  1.00  0.00    -0.143 A  
HETATM    8  C   UNL     1      -8.595   9.806  69.362  1.00  0.00    -0.168 A  
HETATM    9  C   UNL     1      -7.882   8.152  70.980  1.00  0.00    -0.090 A  
HETATM   10  C   UNL     1      -7.150   6.503  72.475  1.00  0.00    -0.074 C  
HETATM   11  C   UNL     1      -9.330   7.517  69.137  1.00  0.00    -0.147 A  
HETATM   12  O   UNL     1      -7.114   7.882  72.083  1.00  0.00    -0.065 OA 
HETATM   13  O   UNL     1      -8.537   5.847  70.604  1.00  0.00    -0.129 OA 
HETATM   14  C   UNL     1      -7.905   9.471  70.536  1.00  0.00    -0.182 A  
ENDBRANCH   2   5
ENDBRANCH   1   2
BRANCH   1  15
HETATM   15  N   UNL     1     -11.667  10.895  67.837  1.00  0.00    -0.682 NA 
HETATM   16  H   UNL     1     -12.429  10.251  67.620  1.00  0.00     0.000 HD 
BRANCH  15  17
HETATM   17  C   UNL     1     -11.923  11.818  68.675  1.00  0.00    -0.239 C  
HETATM   18  H   UNL     1     -12.340  13.788  69.007  1.00  0.00     0.000 HD 
HETATM   19  O   UNL     1     -12.149  13.098  68.381  1.00  0.00    -0.318 OA 
BRANCH  17  20
HETATM   20  C   UNL     1     -11.981  11.507  70.149  1.00  0.00    -0.452 C  
BRANCH  20  21
HETATM   21  C   UNL     1     -12.979  10.402  70.480  1.00  0.00    -0.280 C  
BRANCH  21  22
HETATM   22  C   UNL     1     -13.254  10.265  71.979  1.00  0.00    -0.516 C  
BRANCH  22  23
HETATM   23  C   UNL     1     -13.107   8.811  72.429  1.00  0.00    -0.444 C  
BRANCH  23  24
HETATM   24  C   UNL     1     -11.831   8.174  71.880  1.00  0.00    -0.366 C  
BRANCH  24  25
HETATM   25  C   UNL     1     -10.834   7.882  73.002  1.00  0.00    -0.408 C  
HETATM   26  C   UNL     1     -10.742   6.394  73.295  1.00  0.00    -0.288 C  
ENDBRANCH  24  25
ENDBRANCH  23  24
ENDBRANCH  22  23
ENDBRANCH  21  22
ENDBRANCH  20  21
ENDBRANCH  17  20
ENDBRANCH  15  17
ENDBRANCH   1  15
BRANCH   1  27
HETATM   27  C   UNL     1     -10.651  11.166  65.689  1.00  0.00    -0.223 C  
BRANCH  27  28
HETATM   28  N   UNL     1     -10.148  12.474  65.202  1.00  0.00    -0.271 NA 
HETATM   29  C   UNL     1      -9.469  13.185  66.311  1.00  0.00    -0.185 C  
HETATM   30  C   UNL     1     -11.230  13.354  64.757  1.00  0.00    -0.345 C  
HETATM   31  C   UNL     1      -9.855  14.656  66.231  1.00  0.00    -0.320 C  
HETATM   32  C   UNL     1     -10.766  14.771  65.031  1.00  0.00    -0.452 C  
ENDBRANCH  27  28
ENDBRANCH   1  27
TORSDOF 12
ENDMDL
MODEL      152
REMARK 921   NORMALIZED FREE ENERGY PREDICTED BY IDOCK:   -4.76 KCAL/MOL
REMARK 922        TOTAL FREE ENERGY PREDICTED BY IDOCK:  -10.16 KCAL/MOL
REMARK 923 INTER-LIGAND FREE ENERGY PREDICTED BY IDOCK:  -10.20 KCAL/MOL
REMARK 924 INTRA-LIGAND FREE ENERGY PREDICTED BY IDOCK:    0.04 KCAL/MOL
REMARK 927      BINDING AFFINITY PREDICTED BY RF-SCORE:    0.00 PKD
ROOT
HETATM    1  C   UNL     1     -10.724  12.045  68.179  1.00  0.00    -0.216 C  
ENDROOT
BRANCH   1   2
HETATM    2  C   UNL     1     -11.665  12.281  69.407  1.00  0.00    -0.330 C  
HETATM    3  O   UNL     1     -11.288  13.454  70.140  1.00  0.00    -0.498 OA 
HETATM    4  H   UNL     1     -11.859  13.598  70.886  1.00  0.00     0.000 HD 
BRANCH   2   5
HETATM    5  C   UNL     1     -11.775  11.063  70.328  1.00  0.00    -0.445 A  
HETATM    6  C   UNL     1      -9.472   7.893  72.833  1.00  0.00    -0.257 C  
HETATM    7  C   UNL     1     -10.705   9.135  71.362  1.00  0.00    -0.343 A  
HETATM    8  C   UNL     1     -12.900  10.826  71.140  1.00  0.00    -0.513 A  
HETATM    9  C   UNL     1     -11.831   8.904  72.153  1.00  0.00    -0.347 A  
HETATM   10  C   UNL     1     -10.727   7.102  73.164  1.00  0.00    -0.346 C  
HETATM   11  C   UNL     1     -10.688  10.174  70.428  1.00  0.00    -0.329 A  
HETATM   12  O   UNL     1     -11.905   7.919  73.104  1.00  0.00    -0.216 OA 
HETATM   13  O   UNL     1      -9.552   8.401  71.495  1.00  0.00    -0.171 OA 
HETATM   14  C   UNL     1     -12.937   9.741  72.026  1.00  0.00    -0.515 A  
ENDBRANCH   2   5
ENDBRANCH   1   2
BRANCH   1  15
HETATM   15  N   UNL     1     -10.150  13.343  67.784  1.00  0.00    -0.227 NA 
HETATM   16  H   UNL     1      -9.132  13.389  67.716  1.00  0.00     0.000 HD 
BRANCH  15  17
HETATM   17  C   UNL     1     -10.787  14.411  67.517  1.00  0.00    -0.282 C  
HETATM   18  H   UNL     1     -12.580  15.310  67.138  1.00  0.00     0.000 HD 
HETATM   19  O   UNL     1     -12.104  14.512  67.337  1.00  0.00    -0.380 OA 
BRANCH  17  20
HETATM   20  C   UNL     1     -10.046  15.716  67.368  1.00  0.00    -0.251 C  
BRANCH  20  21
HETATM   21  C   UNL     1      -8.591  15.524  66.954  1.00  0.00    -0.289 C  
BRANCH  21  22
HETATM   22  C   UNL     1      -7.947  16.795  66.397  1.00  0.00    -0.356 C  
BRANCH  22  23
HETATM   23  C   UNL     1      -9.006  17.862  66.112  1.00  0.00    -0.122 C  
BRANCH  23  24
HETATM   24  C   UNL     1      -8.458  19.274  66.317  1.00  0.00    -0.328 C  
BRANCH  24  25
HETATM   25  C   UNL     1      -9.323  20.062  67.301  1.00  0.00    -0.496 C  
HETATM   26  C   UNL     1     -10.759  19.564  67.307  1.00  0.00    -0.604 C  
ENDBRANCH  24  25
ENDBRANCH  23  24
ENDBRANCH  22  23
ENDBRANCH  21  22
ENDBRANCH  20  21
ENDBRANCH  17  20
ENDBRANCH  15  17
ENDBRANCH   1  15
BRANCH   1  27
HETATM   27  C   UNL     1     -11.392  11.519  66.862  1.00  0.00    -0.253 C  
BRANCH  27  28
HETATM   28  N   UNL     1     -11.072  12.083  65.528  1.00  0.00    -0.305 NA 
HETATM   29  C   UNL     1     -12.322  12.519  64.863  1.00  0.00    -0.470 C  
HETATM   30  C   UNL     1     -10.463  11.093  64.638  1.00  0.00    -0.335 C  
HETATM   31  C   UNL     1     -12.234  12.129  63.394  1.00  0.00    -0.635 C  
HETATM   32  C   UNL     1     -10.885  11.468  63.232  1.00  0.00    -0.342 C  
ENDBRANCH  27  28
ENDBRANCH   1  27
TORSDOF 12
ENDMDL
MODEL      153
REMARK 921   NORMALIZED FREE ENERGY PREDICTED BY IDOCK:   -4.76 KCAL/MOL
REMARK 922        TOTAL FREE ENERGY PREDICTED BY IDOCK:  -10.16 KCAL/MOL
REMARK 923 INTER-LIGAND FREE ENERGY PREDICTED BY IDOCK:   -8.55 KCAL/MOL
REMARK 924 INTRA-LIGAND FREE ENERGY PREDICTED BY IDOCK:   -1.61 KCAL/MOL
REMARK 927      BINDING AFFINITY PREDICTED BY RF-SCORE:    0.00 PKD
ROOT
HETATM    1  C   UNL     1     -11.008  11.435  68.289  1.00  0.00    -0.216 C  
ENDROOT
BRANCH   1   2
HETATM    2  C   UNL     1     -11.680  10.835  69.568  1.00  0.00    -0.312 C  
HETATM    3  O   UNL     1     -11.796  11.814  70.609  1.00  0.00    -0.465 OA 
HETATM    4  H   UNL     1     -12.204  11.450  71.386  1.00  0.00     0.000 HD 
BRANCH   2   5
HETATM    5  C   UNL     1     -10.989   9.567  70.075  1.00  0.00    -0.284 A  
HETATM    6  C   UNL     1     -10.579   6.525  73.570  1.00  0.00    -0.290 C  
HETATM    7  C   UNL     1     -10.399   8.128  71.951  1.00  0.00    -0.235 A  
HETATM    8  C   UNL     1     -10.497   8.572  69.208  1.00  0.00    -0.224 A  
HETATM    9  C   UNL     1      -9.904   7.156  71.081  1.00  0.00    -0.179 A  
HETATM   10  C   UNL     1      -9.421   5.786  72.918  1.00  0.00    -0.154 C  
HETATM   11  C   UNL     1     -10.896   9.339  71.462  1.00  0.00    -0.442 A  
HETATM   12  O   UNL     1      -9.423   5.940  71.493  1.00  0.00    -0.152 OA 
HETATM   13  O   UNL     1     -10.472   7.930  73.308  1.00  0.00    -0.339 OA 
HETATM   14  C   UNL     1      -9.936   7.389  69.708  1.00  0.00    -0.188 A  
ENDBRANCH   2   5
ENDBRANCH   1   2
BRANCH   1  15
HETATM   15  N   UNL     1      -9.740  12.069  68.689  1.00  0.00    -0.367 NA 
HETATM   16  H   UNL     1      -9.796  12.779  69.419  1.00  0.00     0.000 HD 
BRANCH  15  17
HETATM   17  C   UNL     1      -8.583  11.824  68.221  1.00  0.00    -0.162 C  
HETATM   18  H   UNL     1      -6.895  10.677  68.285  1.00  0.00     0.000 HD 
HETATM   19  O   UNL     1      -7.760  10.860  68.634  1.00  0.00    -0.105 OA 
BRANCH  17  20
HETATM   20  C   UNL     1      -8.025  12.669  67.103  1.00  0.00    -0.123 C  
BRANCH  20  21
HETATM   21  C   UNL     1      -7.282  13.901  67.609  1.00  0.00    -0.187 C  
BRANCH  21  22
HETATM   22  C   UNL     1      -8.095  15.191  67.481  1.00  0.00    -0.196 C  
BRANCH  22  23
HETATM   23  C   UNL     1      -9.341  14.967  66.623  1.00  0.00    -0.290 C  
BRANCH  23  24
HETATM   24  C   UNL     1      -9.733  16.228  65.853  1.00  0.00    -0.354 C  
BRANCH  24  25
HETATM   25  C   UNL     1      -9.277  17.487  66.591  1.00  0.00    -0.277 C  
HETATM   26  C   UNL     1     -10.255  17.877  67.687  1.00  0.00    -0.369 C  
ENDBRANCH  24  25
ENDBRANCH  23  24
ENDBRANCH  22  23
ENDBRANCH  21  22
ENDBRANCH  20  21
ENDBRANCH  17  20
ENDBRANCH  15  17
ENDBRANCH   1  15
BRANCH   1  27
HETATM   27  C   UNL     1     -11.781  12.585  67.553  1.00  0.00    -0.374 C  
BRANCH  27  28
HETATM   28  N   UNL     1     -12.262  12.452  66.156  1.00  0.00    -0.609 NA 
HETATM   29  C   UNL     1     -11.171  11.918  65.307  1.00  0.00    -0.295 C  
HETATM   30  C   UNL     1     -12.638  13.741  65.573  1.00  0.00    -0.512 C  
HETATM   31  C   UNL     1     -11.200  12.665  63.981  1.00  0.00    -0.459 C  
HETATM   32  C   UNL     1     -12.354  13.634  64.088  1.00  0.00    -0.385 C  
ENDBRANCH  27  28
ENDBRANCH   1  27
TORSDOF 12
ENDMDL
MODEL      154
REMARK 921   NORMALIZED FREE ENERGY PREDICTED BY IDOCK:   -4.76 KCAL/MOL
REMARK 922        TOTAL FREE ENERGY PREDICTED BY IDOCK:  -10.15 KCAL/MOL
REMARK 923 INTER-LIGAND FREE ENERGY PREDICTED BY IDOCK:   -9.00 KCAL/MOL
REMARK 924 INTRA-LIGAND FREE ENERGY PREDICTED BY IDOCK:   -1.15 KCAL/MOL
REMARK 927      BINDING AFFINITY PREDICTED BY RF-SCORE:    0.00 PKD
ROOT
HETATM    1  C   UNL     1     -11.605  13.524  68.599  1.00  0.00    -0.330 C  
ENDROOT
BRANCH   1   2
HETATM    2  C   UNL     1     -11.951  14.415  67.361  1.00  0.00    -0.373 C  
HETATM    3  O   UNL     1     -12.214  13.619  66.197  1.00  0.00    -0.417 OA 
HETATM    4  H   UNL     1     -12.424  14.160  65.445  1.00  0.00     0.000 HD 
BRANCH   2   5
HETATM    5  C   UNL     1     -10.896  15.487  67.072  1.00  0.00    -0.314 A  
HETATM    6  C   UNL     1      -8.836  19.380  68.564  1.00  0.00    -0.366 C  
HETATM    7  C   UNL     1     -10.005  17.706  67.538  1.00  0.00    -0.322 A  
HETATM    8  C   UNL     1      -9.758  15.237  66.282  1.00  0.00    -0.325 A  
HETATM    9  C   UNL     1      -8.887  17.449  66.742  1.00  0.00    -0.251 A  
HETATM   10  C   UNL     1      -8.044  19.567  67.280  1.00  0.00    -0.274 C  
HETATM   11  C   UNL     1     -11.022  16.756  67.669  1.00  0.00    -0.178 A  
HETATM   12  O   UNL     1      -7.845  18.326  66.590  1.00  0.00    -0.232 OA 
HETATM   13  O   UNL     1     -10.138  18.863  68.264  1.00  0.00    -0.354 OA 
HETATM   14  C   UNL     1      -8.774  16.219  66.099  1.00  0.00    -0.353 A  
ENDBRANCH   2   5
ENDBRANCH   1   2
BRANCH   1  15
HETATM   15  N   UNL     1     -11.703  12.112  68.191  1.00  0.00    -0.347 NA 
HETATM   16  H   UNL     1     -12.607  11.803  67.833  1.00  0.00     0.000 HD 
BRANCH  15  17
HETATM   17  C   UNL     1     -10.780  11.237  68.239  1.00  0.00    -0.194 C  
HETATM   18  H   UNL     1      -8.925  10.710  68.909  1.00  0.00     0.000 HD 
HETATM   19  O   UNL     1      -9.615  11.364  68.874  1.00  0.00    -0.170 OA 
BRANCH  17  20
HETATM   20  C   UNL     1     -10.949   9.920  67.525  1.00  0.00    -0.239 C  
BRANCH  20  21
HETATM   21  C   UNL     1     -10.016   8.837  68.057  1.00  0.00    -0.220 C  
BRANCH  21  22
HETATM   22  C   UNL     1     -10.424   7.425  67.629  1.00  0.00    -0.310 C  
BRANCH  22  23
HETATM   23  C   UNL     1     -11.118   6.688  68.776  1.00  0.00    -0.297 C  
BRANCH  23  24
HETATM   24  C   UNL     1     -11.021   7.462  70.090  1.00  0.00    -0.272 C  
BRANCH  24  25
HETATM   25  C   UNL     1     -10.231   6.674  71.135  1.00  0.00    -0.216 C  
HETATM   26  C   UNL     1      -9.520   7.597  72.111  1.00  0.00    -0.201 C  
ENDBRANCH  24  25
ENDBRANCH  23  24
ENDBRANCH  22  23
ENDBRANCH  21  22
ENDBRANCH  20  21
ENDBRANCH  17  20
ENDBRANCH  15  17
ENDBRANCH   1  15
BRANCH   1  27
HETATM   27  C   UNL     1     -12.564  13.621  69.836  1.00  0.00    -0.059 C  
BRANCH  27  28
HETATM   28  N   UNL     1     -12.127  14.176  71.139  1.00  0.00    -0.345 NA 
HETATM   29  C   UNL     1     -13.221  14.031  72.129  1.00  0.00    -0.435 C  
HETATM   30  C   UNL     1     -11.836  15.609  71.063  1.00  0.00    -0.400 C  
HETATM   31  C   UNL     1     -13.274  15.305  72.960  1.00  0.00    -0.617 C  
HETATM   32  C   UNL     1     -12.166  16.183  72.426  1.00  0.00    -0.592 C  
ENDBRANCH  27  28
ENDBRANCH   1  27
TORSDOF 12
ENDMDL
MODEL      155
REMARK 921   NORMALIZED FREE ENERGY PREDICTED BY IDOCK:   -4.73 KCAL/MOL
REMARK 922        TOTAL FREE ENERGY PREDICTED BY IDOCK:  -10.11 KCAL/MOL
REMARK 923 INTER-LIGAND FREE ENERGY PREDICTED BY IDOCK:   -8.51 KCAL/MOL
REMARK 924 INTRA-LIGAND FREE ENERGY PREDICTED BY IDOCK:   -1.60 KCAL/MOL
REMARK 927      BINDING AFFINITY PREDICTED BY RF-SCORE:    0.00 PKD
ROOT
HETATM    1  C   UNL     1     -11.209   9.802  70.626  1.00  0.00    -0.334 C  
ENDROOT
BRANCH   1   2
HETATM    2  C   UNL     1     -12.374  10.813  70.369  1.00  0.00    -0.353 C  
HETATM    3  O   UNL     1     -13.578  10.139  69.979  1.00  0.00    -0.360 OA 
HETATM    4  H   UNL     1     -14.286  10.753  69.822  1.00  0.00     0.000 HD 
BRANCH   2   5
HETATM    5  C   UNL     1     -12.009  11.917  69.373  1.00  0.00    -0.350 A  
HETATM    6  C   UNL     1     -12.455  13.495  65.021  1.00  0.00    -0.417 C  
HETATM    7  C   UNL     1     -11.845  12.657  67.057  1.00  0.00    -0.345 A  
HETATM    8  C   UNL     1     -11.710  13.233  69.774  1.00  0.00    -0.354 A  
HETATM    9  C   UNL     1     -11.538  13.955  67.469  1.00  0.00    -0.360 A  
HETATM   10  C   UNL     1     -11.462  14.627  65.227  1.00  0.00    -0.361 C  
HETATM   11  C   UNL     1     -12.036  11.636  67.992  1.00  0.00    -0.187 A  
HETATM   12  O   UNL     1     -11.362  15.005  66.606  1.00  0.00    -0.344 OA 
HETATM   13  O   UNL     1     -12.026  12.330  65.736  1.00  0.00    -0.521 OA 
HETATM   14  C   UNL     1     -11.452  14.237  68.830  1.00  0.00    -0.318 A  
ENDBRANCH   2   5
ENDBRANCH   1   2
BRANCH   1  15
HETATM   15  N   UNL     1     -11.300   8.729  69.621  1.00  0.00    -0.434 NA 
HETATM   16  H   UNL     1     -12.075   8.073  69.723  1.00  0.00     0.000 HD 
BRANCH  15  17
HETATM   17  C   UNL     1     -10.515   8.535  68.638  1.00  0.00    -0.169 C  
HETATM   18  H   UNL     1     -10.297   8.165  66.643  1.00  0.00     0.000 HD 
HETATM   19  O   UNL     1     -10.883   8.311  67.376  1.00  0.00    -0.219 OA 
BRANCH  17  20
HETATM   20  C   UNL     1      -9.022   8.533  68.851  1.00  0.00    -0.146 C  
BRANCH  20  21
HETATM   21  C   UNL     1      -8.473   9.917  69.184  1.00  0.00    -0.148 C  
BRANCH  21  22
HETATM   22  C   UNL     1      -8.641  10.923  68.044  1.00  0.00    -0.131 C  
BRANCH  22  23
HETATM   23  C   UNL     1      -8.223  10.308  66.708  1.00  0.00    -0.124 C  
BRANCH  23  24
HETATM   24  C   UNL     1      -8.883  11.017  65.526  1.00  0.00    -0.179 C  
BRANCH  24  25
HETATM   25  C   UNL     1      -9.572  10.014  64.599  1.00  0.00    -0.363 C  
HETATM   26  C   UNL     1      -9.641  10.529  63.171  1.00  0.00    -0.375 C  
ENDBRANCH  24  25
ENDBRANCH  23  24
ENDBRANCH  22  23
ENDBRANCH  21  22
ENDBRANCH  20  21
ENDBRANCH  17  20
ENDBRANCH  15  17
ENDBRANCH   1  15
BRANCH   1  27
HETATM   27  C   UNL     1     -11.224   9.031  71.992  1.00  0.00    -0.309 C  
BRANCH  27  28
HETATM   28  N   UNL     1     -10.308   7.901  72.277  1.00  0.00    -0.232 NA 
HETATM   29  C   UNL     1     -10.976   6.942  73.189  1.00  0.00    -0.263 C  
HETATM   30  C   UNL     1      -9.090   8.333  72.964  1.00  0.00    -0.249 C  
HETATM   31  C   UNL     1      -9.948   6.469  74.207  1.00  0.00    -0.362 C  
HETATM   32  C   UNL     1      -8.662   7.174  73.843  1.00  0.00    -0.206 C  
ENDBRANCH  27  28
ENDBRANCH   1  27
TORSDOF 12
ENDMDL
MODEL      156
REMARK 921   NORMALIZED FREE ENERGY PREDICTED BY IDOCK:   -4.73 KCAL/MOL
REMARK 922        TOTAL FREE ENERGY PREDICTED BY IDOCK:  -10.11 KCAL/MOL
REMARK 923 INTER-LIGAND FREE ENERGY PREDICTED BY IDOCK:   -8.27 KCAL/MOL
REMARK 924 INTRA-LIGAND FREE ENERGY PREDICTED BY IDOCK:   -1.84 KCAL/MOL
REMARK 927      BINDING AFFINITY PREDICTED BY RF-SCORE:    0.00 PKD
ROOT
HETATM    1  C   UNL     1      -9.502  16.247  68.165  1.00  0.00    -0.215 C  
ENDROOT
BRANCH   1   2
HETATM    2  C   UNL     1      -9.853  16.895  66.785  1.00  0.00    -0.279 C  
HETATM    3  O   UNL     1     -10.677  18.058  66.945  1.00  0.00    -0.316 OA 
HETATM    4  H   UNL     1     -10.890  18.452  66.107  1.00  0.00     0.000 HD 
BRANCH   2   5
HETATM    5  C   UNL     1     -10.473  15.908  65.793  1.00  0.00    -0.386 A  
HETATM    6  C   UNL     1     -11.053  11.440  64.640  1.00  0.00    -0.207 C  
HETATM    7  C   UNL     1     -10.540  13.656  64.868  1.00  0.00    -0.408 A  
HETATM    8  C   UNL     1     -11.632  16.206  65.051  1.00  0.00     0.162 A  
HETATM    9  C   UNL     1     -11.682  13.968  64.128  1.00  0.00    -0.315 A  
HETATM   10  C   UNL     1     -11.738  11.769  63.324  1.00  0.00    -0.240 C  
HETATM   11  C   UNL     1      -9.914  14.623  65.658  1.00  0.00    -0.381 A  
HETATM   12  O   UNL     1     -12.357  13.062  63.352  1.00  0.00    -0.682 OA 
HETATM   13  O   UNL     1     -10.011  12.389  64.901  1.00  0.00    -0.259 OA 
HETATM   14  C   UNL     1     -12.215  15.252  64.206  1.00  0.00    -0.205 A  
ENDBRANCH   2   5
ENDBRANCH   1   2
BRANCH   1  15
HETATM   15  N   UNL     1     -10.593  16.551  69.107  1.00  0.00    -0.299 NA 
HETATM   16  H   UNL     1     -10.675  17.522  69.412  1.00  0.00     0.000 HD 
BRANCH  15  17
HETATM   17  C   UNL     1     -11.444  15.733  69.581  1.00  0.00    -0.346 C  
HETATM   18  H   UNL     1     -12.955  15.378  70.907  1.00  0.00     0.000 HD 
HETATM   19  O   UNL     1     -12.319  15.990  70.553  1.00  0.00    -0.317 OA 
BRANCH  17  20
HETATM   20  C   UNL     1     -11.517  14.324  69.046  1.00  0.00    -0.318 C  
BRANCH  20  21
HETATM   21  C   UNL     1     -12.171  13.356  70.026  1.00  0.00    -0.367 C  
BRANCH  21  22
HETATM   22  C   UNL     1     -11.912  11.886  69.687  1.00  0.00    -0.365 C  
BRANCH  22  23
HETATM   23  C   UNL     1     -11.060  11.761  68.423  1.00  0.00    -0.286 C  
BRANCH  23  24
HETATM   24  C   UNL     1     -10.350  10.409  68.349  1.00  0.00    -0.198 C  
BRANCH  24  25
HETATM   25  C   UNL     1      -9.083  10.406  69.206  1.00  0.00    -0.188 C  
HETATM   26  C   UNL     1      -9.198   9.437  70.370  1.00  0.00    -0.305 C  
ENDBRANCH  24  25
ENDBRANCH  23  24
ENDBRANCH  22  23
ENDBRANCH  21  22
ENDBRANCH  20  21
ENDBRANCH  17  20
ENDBRANCH  15  17
ENDBRANCH   1  15
BRANCH   1  27
HETATM   27  C   UNL     1      -8.221  16.781  68.897  1.00  0.00    -0.224 C  
BRANCH  27  28
HETATM   28  N   UNL     1      -7.419  17.912  68.371  1.00  0.00    -0.263 NA 
HETATM   29  C   UNL     1      -6.004  17.745  68.778  1.00  0.00    -0.187 C  
HETATM   30  C   UNL     1      -7.850  19.199  68.919  1.00  0.00    -0.316 C  
HETATM   31  C   UNL     1      -5.466  19.111  69.179  1.00  0.00    -0.212 C  
HETATM   32  C   UNL     1      -6.613  20.074  68.975  1.00  0.00    -0.346 C  
ENDBRANCH  27  28
ENDBRANCH   1  27
TORSDOF 12
ENDMDL
MODEL      157
REMARK 921   NORMALIZED FREE ENERGY PREDICTED BY IDOCK:   -4.73 KCAL/MOL
REMARK 922        TOTAL FREE ENERGY PREDICTED BY IDOCK:  -10.11 KCAL/MOL
REMARK 923 INTER-LIGAND FREE ENERGY PREDICTED BY IDOCK:   -8.28 KCAL/MOL
REMARK 924 INTRA-LIGAND FREE ENERGY PREDICTED BY IDOCK:   -1.82 KCAL/MOL
REMARK 927      BINDING AFFINITY PREDICTED BY RF-SCORE:    0.00 PKD
ROOT
HETATM    1  C   UNL     1     -10.172  10.157  68.871  1.00  0.00    -0.199 C  
ENDROOT
BRANCH   1   2
HETATM    2  C   UNL     1     -11.306  11.210  69.099  1.00  0.00    -0.273 C  
HETATM    3  O   UNL     1     -12.605  10.626  68.940  1.00  0.00    -0.742 OA 
HETATM    4  H   UNL     1     -13.294  11.266  69.078  1.00  0.00     0.000 HD 
BRANCH   2   5
HETATM    5  C   UNL     1     -11.151  12.463  68.232  1.00  0.00    -0.283 A  
HETATM    6  C   UNL     1     -12.064  14.461  64.133  1.00  0.00    -0.376 C  
HETATM    7  C   UNL     1     -11.226  13.484  66.022  1.00  0.00    -0.295 A  
HETATM    8  C   UNL     1     -11.006  13.751  68.781  1.00  0.00    -0.289 A  
HETATM    9  C   UNL     1     -11.070  14.755  66.578  1.00  0.00    -0.334 A  
HETATM   10  C   UNL     1     -11.219  15.688  64.435  1.00  0.00    -0.236 C  
HETATM   11  C   UNL     1     -11.223  12.344  66.830  1.00  0.00    -0.359 A  
HETATM   12  O   UNL     1     -11.088  15.913  65.845  1.00  0.00    -0.203 OA 
HETATM   13  O   UNL     1     -11.441  13.292  64.679  1.00  0.00    -0.318 OA 
HETATM   14  C   UNL     1     -10.941  14.885  67.958  1.00  0.00    -0.282 A  
ENDBRANCH   2   5
ENDBRANCH   1   2
BRANCH   1  15
HETATM   15  N   UNL     1     -10.791   8.913  68.381  1.00  0.00    -0.451 NA 
HETATM   16  H   UNL     1     -11.513   8.500  68.971  1.00  0.00     0.000 HD 
BRANCH  15  17
HETATM   17  C   UNL     1     -10.521   8.300  67.299  1.00  0.00    -0.303 C  
HETATM   18  H   UNL     1      -9.985   8.411  65.332  1.00  0.00     0.000 HD 
HETATM   19  O   UNL     1     -10.186   8.869  66.141  1.00  0.00    -0.259 OA 
BRANCH  17  20
HETATM   20  C   UNL     1     -10.575   6.794  67.250  1.00  0.00    -0.390 C  
BRANCH  20  21
HETATM   21  C   UNL     1     -11.188   6.185  68.506  1.00  0.00    -0.241 C  
BRANCH  21  22
HETATM   22  C   UNL     1     -10.183   5.394  69.346  1.00  0.00    -0.334 C  
BRANCH  22  23
HETATM   23  C   UNL     1     -10.517   5.497  70.836  1.00  0.00    -0.319 C  
BRANCH  23  24
HETATM   24  C   UNL     1     -11.750   6.366  71.082  1.00  0.00    -0.359 C  
BRANCH  24  25
HETATM   25  C   UNL     1     -11.551   7.270  72.298  1.00  0.00    -0.315 C  
HETATM   26  C   UNL     1     -12.308   8.579  72.152  1.00  0.00    -0.444 C  
ENDBRANCH  24  25
ENDBRANCH  23  24
ENDBRANCH  22  23
ENDBRANCH  21  22
ENDBRANCH  20  21
ENDBRANCH  17  20
ENDBRANCH  15  17
ENDBRANCH   1  15
BRANCH   1  27
HETATM   27  C   UNL     1      -9.365   9.695  70.135  1.00  0.00    -0.251 C  
BRANCH  27  28
HETATM   28  N   UNL     1      -8.660   8.392  70.195  1.00  0.00    -0.128 NA 
HETATM   29  C   UNL     1      -8.162   8.164  71.572  1.00  0.00    -0.125 C  
HETATM   30  C   UNL     1      -7.483   8.356  69.326  1.00  0.00    -0.084 C  
HETATM   31  C   UNL     1      -6.770   7.556  71.473  1.00  0.00    -0.049 C  
HETATM   32  C   UNL     1      -6.489   7.426  69.994  1.00  0.00    -0.038 C  
ENDBRANCH  27  28
ENDBRANCH   1  27
TORSDOF 12
ENDMDL
MODEL      158
REMARK 921   NORMALIZED FREE ENERGY PREDICTED BY IDOCK:   -4.73 KCAL/MOL
REMARK 922        TOTAL FREE ENERGY PREDICTED BY IDOCK:  -10.10 KCAL/MOL
REMARK 923 INTER-LIGAND FREE ENERGY PREDICTED BY IDOCK:   -7.94 KCAL/MOL
REMARK 924 INTRA-LIGAND FREE ENERGY PREDICTED BY IDOCK:   -2.16 KCAL/MOL
REMARK 927      BINDING AFFINITY PREDICTED BY RF-SCORE:    0.00 PKD
ROOT
HETATM    1  C   UNL     1      -9.106  13.182  67.345  1.00  0.00    -0.208 C  
ENDROOT
BRANCH   1   2
HETATM    2  C   UNL     1      -8.543  11.894  66.658  1.00  0.00    -0.163 C  
HETATM    3  O   UNL     1      -9.010  11.771  65.308  1.00  0.00    -0.414 OA 
HETATM    4  H   UNL     1      -8.667  10.988  64.891  1.00  0.00     0.000 HD 
BRANCH   2   5
HETATM    5  C   UNL     1      -8.812  10.615  67.456  1.00  0.00    -0.132 A  
HETATM    6  C   UNL     1      -8.682   8.567  71.630  1.00  0.00    -0.199 C  
HETATM    7  C   UNL     1      -8.446   9.313  69.483  1.00  0.00    -0.144 A  
HETATM    8  C   UNL     1      -9.780   9.669  67.069  1.00  0.00    -0.232 A  
HETATM    9  C   UNL     1      -9.400   8.376  69.081  1.00  0.00    -0.151 A  
HETATM   10  C   UNL     1      -9.057   7.201  71.078  1.00  0.00    -0.151 C  
HETATM   11  C   UNL     1      -8.120  10.398  68.664  1.00  0.00    -0.118 A  
HETATM   12  O   UNL     1      -9.781   7.304  69.845  1.00  0.00    -0.173 OA 
HETATM   13  O   UNL     1      -7.826   9.250  70.706  1.00  0.00    -0.142 OA 
HETATM   14  C   UNL     1     -10.052   8.546  67.863  1.00  0.00    -0.258 A  
ENDBRANCH   2   5
ENDBRANCH   1   2
BRANCH   1  15
HETATM   15  N   UNL     1     -10.389  13.520  66.705  1.00  0.00    -0.267 NA 
HETATM   16  H   UNL     1     -10.349  14.168  65.918  1.00  0.00     0.000 HD 
BRANCH  15  17
HETATM   17  C   UNL     1     -11.542  13.090  67.029  1.00  0.00    -0.360 C  
HETATM   18  H   UNL     1     -13.124  11.877  66.593  1.00  0.00     0.000 HD 
HETATM   19  O   UNL     1     -12.263  12.198  66.350  1.00  0.00    -0.592 OA 
BRANCH  17  20
HETATM   20  C   UNL     1     -12.216  13.601  68.278  1.00  0.00    -0.165 C  
BRANCH  20  21
HETATM   21  C   UNL     1     -11.745  12.884  69.538  1.00  0.00    -0.387 C  
BRANCH  21  22
HETATM   22  C   UNL     1     -11.884  11.362  69.455  1.00  0.00    -0.419 C  
BRANCH  22  23
HETATM   23  C   UNL     1     -11.777  10.728  70.843  1.00  0.00    -0.334 C  
BRANCH  23  24
HETATM   24  C   UNL     1     -13.087  10.842  71.621  1.00  0.00    -0.538 C  
BRANCH  24  25
HETATM   25  C   UNL     1     -13.525   9.481  72.163  1.00  0.00    -0.535 C  
HETATM   26  C   UNL     1     -12.691   8.353  71.581  1.00  0.00    -0.358 C  
ENDBRANCH  24  25
ENDBRANCH  23  24
ENDBRANCH  22  23
ENDBRANCH  21  22
ENDBRANCH  20  21
ENDBRANCH  17  20
ENDBRANCH  15  17
ENDBRANCH   1  15
BRANCH   1  27
HETATM   27  C   UNL     1      -8.261  14.494  67.197  1.00  0.00    -0.188 C  
BRANCH  27  28
HETATM   28  N   UNL     1      -8.586  15.737  67.940  1.00  0.00    -0.158 NA 
HETATM   29  C   UNL     1      -9.141  15.386  69.269  1.00  0.00    -0.260 C  
HETATM   30  C   UNL     1      -9.613  16.533  67.267  1.00  0.00    -0.242 C  
HETATM   31  C   UNL     1     -10.297  16.333  69.559  1.00  0.00    -0.284 C  
HETATM   32  C   UNL     1     -10.379  17.250  68.361  1.00  0.00    -0.366 C  
ENDBRANCH  27  28
ENDBRANCH   1  27
TORSDOF 12
ENDMDL
MODEL      159
REMARK 921   NORMALIZED FREE ENERGY PREDICTED BY IDOCK:   -4.71 KCAL/MOL
REMARK 922        TOTAL FREE ENERGY PREDICTED BY IDOCK:  -10.07 KCAL/MOL
REMARK 923 INTER-LIGAND FREE ENERGY PREDICTED BY IDOCK:   -8.99 KCAL/MOL
REMARK 924 INTRA-LIGAND FREE ENERGY PREDICTED BY IDOCK:   -1.08 KCAL/MOL
REMARK 927      BINDING AFFINITY PREDICTED BY RF-SCORE:    0.00 PKD
ROOT
HETATM    1  C   UNL     1     -11.225   9.965  68.276  1.00  0.00    -0.074 C  
ENDROOT
BRANCH   1   2
HETATM    2  C   UNL     1     -10.191  10.821  67.473  1.00  0.00    -0.196 C  
HETATM    3  O   UNL     1      -9.263  11.479  68.346  1.00  0.00    -0.182 OA 
HETATM    4  H   UNL     1      -8.635  12.000  67.858  1.00  0.00     0.000 HD 
BRANCH   2   5
HETATM    5  C   UNL     1     -10.846  11.814  66.510  1.00  0.00    -0.323 A  
HETATM    6  C   UNL     1     -10.950  16.198  64.960  1.00  0.00    -0.344 C  
HETATM    7  C   UNL     1     -11.267  14.129  65.878  1.00  0.00    -0.313 A  
HETATM    8  C   UNL     1     -11.437  11.415  65.296  1.00  0.00     0.013 A  
HETATM    9  C   UNL     1     -11.861  13.719  64.683  1.00  0.00    -0.402 A  
HETATM   10  C   UNL     1     -12.178  15.964  64.095  1.00  0.00     0.280 C  
HETATM   11  C   UNL     1     -10.803  13.191  66.804  1.00  0.00    -0.289 A  
HETATM   12  O   UNL     1     -12.315  14.586  63.723  1.00  0.00    -0.729 OA 
HETATM   13  O   UNL     1     -11.061  15.453  66.179  1.00  0.00    -0.313 OA 
HETATM   14  C   UNL     1     -11.963  12.359  64.402  1.00  0.00    -0.482 A  
ENDBRANCH   2   5
ENDBRANCH   1   2
BRANCH   1  15
HETATM   15  N   UNL     1     -12.220  10.877  68.864  1.00  0.00    -0.764 NA 
HETATM   16  H   UNL     1     -12.612  11.586  68.242  1.00  0.00     0.000 HD 
BRANCH  15  17
HETATM   17  C   UNL     1     -12.644  10.876  70.063  1.00  0.00    -0.187 C  
HETATM   18  H   UNL     1     -13.559   9.855  71.576  1.00  0.00     0.000 HD 
HETATM   19  O   UNL     1     -13.242   9.856  70.680  1.00  0.00    -0.245 OA 
BRANCH  17  20
HETATM   20  C   UNL     1     -12.499  12.110  70.918  1.00  0.00    -0.374 C  
BRANCH  20  21
HETATM   21  C   UNL     1     -12.151  13.352  70.105  1.00  0.00    -0.415 C  
BRANCH  21  22
HETATM   22  C   UNL     1     -13.015  14.565  70.456  1.00  0.00    -0.303 C  
BRANCH  22  23
HETATM   23  C   UNL     1     -13.695  14.376  71.813  1.00  0.00    -0.504 C  
BRANCH  23  24
HETATM   24  C   UNL     1     -14.222  15.697  72.372  1.00  0.00    -0.521 C  
BRANCH  24  25
HETATM   25  C   UNL     1     -13.251  16.287  73.396  1.00  0.00    -0.419 C  
HETATM   26  C   UNL     1     -12.478  15.200  74.124  1.00  0.00    -0.682 C  
ENDBRANCH  24  25
ENDBRANCH  23  24
ENDBRANCH  22  23
ENDBRANCH  21  22
ENDBRANCH  20  21
ENDBRANCH  17  20
ENDBRANCH  15  17
ENDBRANCH   1  15
BRANCH   1  27
HETATM   27  C   UNL     1     -10.680   9.166  69.512  1.00  0.00    -0.215 C  
BRANCH  27  28
HETATM   28  N   UNL     1     -10.764   7.688  69.602  1.00  0.00    -0.243 NA 
HETATM   29  C   UNL     1     -10.736   7.278  71.026  1.00  0.00    -0.231 C  
HETATM   30  C   UNL     1      -9.622   7.027  68.967  1.00  0.00    -0.141 C  
HETATM   31  C   UNL     1      -9.858   6.040  71.141  1.00  0.00    -0.214 C  
HETATM   32  C   UNL     1      -9.394   5.741  69.734  1.00  0.00    -0.175 C  
ENDBRANCH  27  28
ENDBRANCH   1  27
TORSDOF 12
ENDMDL
MODEL      160
REMARK 921   NORMALIZED FREE ENERGY PREDICTED BY IDOCK:   -4.71 KCAL/MOL
REMARK 922        TOTAL FREE ENERGY PREDICTED BY IDOCK:  -10.06 KCAL/MOL
REMARK 923 INTER-LIGAND FREE ENERGY PREDICTED BY IDOCK:   -8.92 KCAL/MOL
REMARK 924 INTRA-LIGAND FREE ENERGY PREDICTED BY IDOCK:   -1.14 KCAL/MOL
REMARK 927      BINDING AFFINITY PREDICTED BY RF-SCORE:    0.00 PKD
ROOT
HETATM    1  C   UNL     1     -10.816  14.189  67.475  1.00  0.00    -0.275 C  
ENDROOT
BRANCH   1   2
HETATM    2  C   UNL     1     -10.848  15.262  66.337  1.00  0.00    -0.317 C  
HETATM    3  O   UNL     1     -10.438  14.708  65.080  1.00  0.00    -0.365 OA 
HETATM    4  H   UNL     1     -10.457  15.359  64.389  1.00  0.00     0.000 HD 
BRANCH   2   5
HETATM    5  C   UNL     1     -10.049  16.524  66.673  1.00  0.00    -0.299 A  
HETATM    6  C   UNL     1      -6.852  19.573  65.220  1.00  0.00    -0.202 C  
HETATM    7  C   UNL     1      -8.138  17.962  66.205  1.00  0.00    -0.231 A  
HETATM    8  C   UNL     1     -10.523  17.509  67.560  1.00  0.00    -0.355 A  
HETATM    9  C   UNL     1      -8.615  18.925  67.096  1.00  0.00    -0.280 A  
HETATM   10  C   UNL     1      -6.794  20.296  66.556  1.00  0.00    -0.236 C  
HETATM   11  C   UNL     1      -8.819  16.755  66.025  1.00  0.00    -0.218 A  
HETATM   12  O   UNL     1      -8.008  20.136  67.303  1.00  0.00    -0.301 OA 
HETATM   13  O   UNL     1      -7.023  18.166  65.431  1.00  0.00    -0.510 OA 
HETATM   14  C   UNL     1      -9.799  18.687  67.789  1.00  0.00    -0.357 A  
ENDBRANCH   2   5
ENDBRANCH   1   2
BRANCH   1  15
HETATM   15  N   UNL     1     -10.895  12.856  66.853  1.00  0.00    -0.254 NA 
HETATM   16  H   UNL     1     -11.528  12.761  66.058  1.00  0.00     0.000 HD 
BRANCH  15  17
HETATM   17  C   UNL     1     -10.258  11.811  67.201  1.00  0.00    -0.212 C  
HETATM   18  H   UNL     1      -8.543  10.998  67.952  1.00  0.00     0.000 HD 
HETATM   19  O   UNL     1      -9.019  11.778  67.692  1.00  0.00    -0.160 OA 
BRANCH  17  20
HETATM   20  C   UNL     1     -10.900  10.453  67.063  1.00  0.00    -0.269 C  
BRANCH  20  21
HETATM   21  C   UNL     1      -9.916   9.381  66.606  1.00  0.00    -0.326 C  
BRANCH  21  22
HETATM   22  C   UNL     1      -9.646   8.316  67.671  1.00  0.00    -0.187 C  
BRANCH  22  23
HETATM   23  C   UNL     1     -10.304   6.988  67.293  1.00  0.00    -0.331 C  
BRANCH  23  24
HETATM   24  C   UNL     1     -11.148   6.427  68.437  1.00  0.00    -0.374 C  
BRANCH  24  25
HETATM   25  C   UNL     1     -10.987   7.270  69.703  1.00  0.00    -0.204 C  
HETATM   26  C   UNL     1     -11.801   6.708  70.856  1.00  0.00    -0.434 C  
ENDBRANCH  24  25
ENDBRANCH  23  24
ENDBRANCH  22  23
ENDBRANCH  21  22
ENDBRANCH  20  21
ENDBRANCH  17  20
ENDBRANCH  15  17
ENDBRANCH   1  15
BRANCH   1  27
HETATM   27  C   UNL     1     -12.010  14.195  68.492  1.00  0.00    -0.332 C  
BRANCH  27  28
HETATM   28  N   UNL     1     -11.821  14.469  69.937  1.00  0.00    -0.298 NA 
HETATM   29  C   UNL     1     -12.613  13.498  70.730  1.00  0.00    -0.309 C  
HETATM   30  C   UNL     1     -12.305  15.796  70.319  1.00  0.00    -0.310 C  
HETATM   31  C   UNL     1     -13.246  14.249  71.894  1.00  0.00    -0.456 C  
HETATM   32  C   UNL     1     -12.780  15.680  71.753  1.00  0.00    -0.519 C  
ENDBRANCH  27  28
ENDBRANCH   1  27
TORSDOF 12
ENDMDL
MODEL      161
REMARK 921   NORMALIZED FREE ENERGY PREDICTED BY IDOCK:   -4.71 KCAL/MOL
REMARK 922        TOTAL FREE ENERGY PREDICTED BY IDOCK:  -10.06 KCAL/MOL
REMARK 923 INTER-LIGAND FREE ENERGY PREDICTED BY IDOCK:   -8.20 KCAL/MOL
REMARK 924 INTRA-LIGAND FREE ENERGY PREDICTED BY IDOCK:   -1.86 KCAL/MOL
REMARK 927      BINDING AFFINITY PREDICTED BY RF-SCORE:    0.00 PKD
ROOT
HETATM    1  C   UNL     1     -10.226  11.990  67.490  1.00  0.00    -0.198 C  
ENDROOT
BRANCH   1   2
HETATM    2  C   UNL     1     -11.156  10.779  67.152  1.00  0.00    -0.227 C  
HETATM    3  O   UNL     1     -12.079  10.512  68.216  1.00  0.00    -0.797 OA 
HETATM    4  H   UNL     1     -12.644   9.775  68.011  1.00  0.00     0.000 HD 
BRANCH   2   5
HETATM    5  C   UNL     1     -10.385   9.517  66.756  1.00  0.00    -0.298 A  
HETATM    6  C   UNL     1     -10.477   4.878  66.428  1.00  0.00    -0.280 C  
HETATM    7  C   UNL     1     -10.156   7.094  66.884  1.00  0.00    -0.238 A  
HETATM    8  C   UNL     1      -9.367   9.523  65.784  1.00  0.00    -0.293 A  
HETATM    9  C   UNL     1      -9.139   7.117  65.928  1.00  0.00    -0.013 A  
HETATM   10  C   UNL     1      -9.010   4.780  66.042  1.00  0.00    -0.126 C  
HETATM   11  C   UNL     1     -10.745   8.281  67.329  1.00  0.00    -0.241 A  
HETATM   12  O   UNL     1      -8.536   5.989  65.433  1.00  0.00    -0.153 OA 
HETATM   13  O   UNL     1     -10.661   5.923  67.392  1.00  0.00    -0.253 OA 
HETATM   14  C   UNL     1      -8.732   8.336  65.393  1.00  0.00    -0.147 A  
ENDBRANCH   2   5
ENDBRANCH   1   2
BRANCH   1  15
HETATM   15  N   UNL     1      -9.378  11.613  68.634  1.00  0.00    -0.334 NA 
HETATM   16  H   UNL     1      -9.840  11.544  69.541  1.00  0.00     0.000 HD 
BRANCH  15  17
HETATM   17  C   UNL     1      -8.130  11.365  68.611  1.00  0.00    -0.141 C  
HETATM   18  H   UNL     1      -6.331  11.616  67.679  1.00  0.00     0.000 HD 
HETATM   19  O   UNL     1      -7.263  11.802  67.697  1.00  0.00    -0.095 OA 
BRANCH  17  20
HETATM   20  C   UNL     1      -7.511  10.497  69.678  1.00  0.00    -0.145 C  
BRANCH  20  21
HETATM   21  C   UNL     1      -8.213   9.151  69.823  1.00  0.00    -0.128 C  
BRANCH  21  22
HETATM   22  C   UNL     1      -9.344   9.168  70.853  1.00  0.00    -0.335 C  
BRANCH  22  23
HETATM   23  C   UNL     1     -10.138   7.860  70.812  1.00  0.00    -0.201 C  
BRANCH  23  24
HETATM   24  C   UNL     1     -11.585   8.061  71.262  1.00  0.00    -0.306 C  
BRANCH  24  25
HETATM   25  C   UNL     1     -11.873   9.536  71.544  1.00  0.00    -0.478 C  
HETATM   26  C   UNL     1     -13.330   9.760  71.915  1.00  0.00    -0.530 C  
ENDBRANCH  24  25
ENDBRANCH  23  24
ENDBRANCH  22  23
ENDBRANCH  21  22
ENDBRANCH  20  21
ENDBRANCH  17  20
ENDBRANCH  15  17
ENDBRANCH   1  15
BRANCH   1  27
HETATM   27  C   UNL     1     -10.924  13.312  67.967  1.00  0.00    -0.244 C  
BRANCH  27  28
HETATM   28  N   UNL     1     -11.305  14.393  67.025  1.00  0.00    -0.332 NA 
HETATM   29  C   UNL     1     -12.354  13.898  66.103  1.00  0.00    -0.465 C  
HETATM   30  C   UNL     1     -10.186  14.813  66.180  1.00  0.00    -0.297 C  
HETATM   31  C   UNL     1     -12.043  14.429  64.711  1.00  0.00    -0.462 C  
HETATM   32  C   UNL     1     -10.790  15.260  64.864  1.00  0.00    -0.444 C  
ENDBRANCH  27  28
ENDBRANCH   1  27
TORSDOF 12
ENDMDL
MODEL      162
REMARK 921   NORMALIZED FREE ENERGY PREDICTED BY IDOCK:   -4.71 KCAL/MOL
REMARK 922        TOTAL FREE ENERGY PREDICTED BY IDOCK:  -10.06 KCAL/MOL
REMARK 923 INTER-LIGAND FREE ENERGY PREDICTED BY IDOCK:   -9.06 KCAL/MOL
REMARK 924 INTRA-LIGAND FREE ENERGY PREDICTED BY IDOCK:   -1.00 KCAL/MOL
REMARK 927      BINDING AFFINITY PREDICTED BY RF-SCORE:    0.00 PKD
ROOT
HETATM    1  C   UNL     1     -10.534  12.231  65.749  1.00  0.00    -0.255 C  
ENDROOT
BRANCH   1   2
HETATM    2  C   UNL     1      -9.234  11.558  66.299  1.00  0.00    -0.211 C  
HETATM    3  O   UNL     1      -8.310  11.259  65.244  1.00  0.00    -0.379 OA 
HETATM    4  H   UNL     1      -7.519  10.850  65.578  1.00  0.00     0.000 HD 
BRANCH   2   5
HETATM    5  C   UNL     1      -9.509  10.323  67.161  1.00  0.00    -0.184 A  
HETATM    6  C   UNL     1      -9.795   8.607  71.474  1.00  0.00    -0.272 C  
HETATM    7  C   UNL     1      -9.325   9.211  69.321  1.00  0.00    -0.157 A  
HETATM    8  C   UNL     1     -10.338   9.268  66.732  1.00  0.00    -0.296 A  
HETATM    9  C   UNL     1     -10.138   8.166  68.878  1.00  0.00    -0.202 A  
HETATM   10  C   UNL     1      -9.982   7.176  70.996  1.00  0.00    -0.188 C  
HETATM   11  C   UNL     1      -8.975  10.257  68.463  1.00  0.00    -0.134 A  
HETATM   12  O   UNL     1     -10.536   7.123  69.674  1.00  0.00    -0.215 OA 
HETATM   13  O   UNL     1      -8.876   9.294  70.616  1.00  0.00    -0.213 OA 
HETATM   14  C   UNL     1     -10.628   8.187  67.575  1.00  0.00    -0.291 A  
ENDBRANCH   2   5
ENDBRANCH   1   2
BRANCH   1  15
HETATM   15  N   UNL     1     -10.142  13.405  64.950  1.00  0.00    -0.559 NA 
HETATM   16  H   UNL     1      -9.444  13.249  64.223  1.00  0.00     0.000 HD 
BRANCH  15  17
HETATM   17  C   UNL     1     -10.582  14.593  65.071  1.00  0.00    -0.439 C  
HETATM   18  H   UNL     1     -12.076  15.933  64.698  1.00  0.00     0.000 HD 
HETATM   19  O   UNL     1     -11.748  15.045  64.608  1.00  0.00    -0.414 OA 
BRANCH  17  20
HETATM   20  C   UNL     1      -9.758  15.636  65.783  1.00  0.00    -0.380 C  
BRANCH  20  21
HETATM   21  C   UNL     1     -10.455  16.991  65.853  1.00  0.00    -0.282 C  
BRANCH  21  22
HETATM   22  C   UNL     1     -10.506  17.572  67.268  1.00  0.00    -0.327 C  
BRANCH  22  23
HETATM   23  C   UNL     1     -10.482  19.101  67.230  1.00  0.00    -0.549 C  
BRANCH  23  24
HETATM   24  C   UNL     1      -9.618  19.627  66.084  1.00  0.00    -0.464 C  
BRANCH  24  25
HETATM   25  C   UNL     1      -8.250  20.084  66.592  1.00  0.00    -0.355 C  
HETATM   26  C   UNL     1      -7.170  19.890  65.542  1.00  0.00    -0.305 C  
ENDBRANCH  24  25
ENDBRANCH  23  24
ENDBRANCH  22  23
ENDBRANCH  21  22
ENDBRANCH  20  21
ENDBRANCH  17  20
ENDBRANCH  15  17
ENDBRANCH   1  15
BRANCH   1  27
HETATM   27  C   UNL     1     -11.533  12.818  66.806  1.00  0.00    -0.343 C  
BRANCH  27  28
HETATM   28  N   UNL     1     -11.137  13.090  68.209  1.00  0.00    -0.249 NA 
HETATM   29  C   UNL     1     -11.782  12.101  69.104  1.00  0.00    -0.328 C  
HETATM   30  C   UNL     1     -11.585  14.406  68.667  1.00  0.00    -0.314 C  
HETATM   31  C   UNL     1     -12.249  12.834  70.354  1.00  0.00    -0.371 C  
HETATM   32  C   UNL     1     -11.839  14.274  70.156  1.00  0.00    -0.379 C  
ENDBRANCH  27  28
ENDBRANCH   1  27
TORSDOF 12
ENDMDL
MODEL      163
REMARK 921   NORMALIZED FREE ENERGY PREDICTED BY IDOCK:   -4.70 KCAL/MOL
REMARK 922        TOTAL FREE ENERGY PREDICTED BY IDOCK:  -10.06 KCAL/MOL
REMARK 923 INTER-LIGAND FREE ENERGY PREDICTED BY IDOCK:   -8.33 KCAL/MOL
REMARK 924 INTRA-LIGAND FREE ENERGY PREDICTED BY IDOCK:   -1.73 KCAL/MOL
REMARK 927      BINDING AFFINITY PREDICTED BY RF-SCORE:    0.00 PKD
ROOT
HETATM    1  C   UNL     1     -10.837  11.321  68.898  1.00  0.00    -0.208 C  
ENDROOT
BRANCH   1   2
HETATM    2  C   UNL     1      -9.477  10.630  68.553  1.00  0.00    -0.176 C  
HETATM    3  O   UNL     1      -8.726  11.394  67.601  1.00  0.00    -0.132 OA 
HETATM    4  H   UNL     1      -7.899  10.974  67.391  1.00  0.00     0.000 HD 
BRANCH   2   5
HETATM    5  C   UNL     1      -9.634   9.177  68.098  1.00  0.00    -0.160 A  
HETATM    6  C   UNL     1      -9.215   4.695  69.267  1.00  0.00    -0.127 C  
HETATM    7  C   UNL     1      -9.110   6.822  68.439  1.00  0.00    -0.125 A  
HETATM    8  C   UNL     1     -10.555   8.788  67.106  1.00  0.00    -0.303 A  
HETATM    9  C   UNL     1     -10.017   6.452  67.445  1.00  0.00    -0.138 A  
HETATM   10  C   UNL     1      -9.524   4.200  67.863  1.00  0.00    -0.167 C  
HETATM   11  C   UNL     1      -8.884   8.169  68.735  1.00  0.00    -0.138 A  
HETATM   12  O   UNL     1     -10.301   5.151  67.121  1.00  0.00    -0.209 OA 
HETATM   13  O   UNL     1      -8.440   5.898  69.202  1.00  0.00    -0.111 OA 
HETATM   14  C   UNL     1     -10.726   7.439  66.765  1.00  0.00    -0.202 A  
ENDBRANCH   2   5
ENDBRANCH   1   2
BRANCH   1  15
HETATM   15  N   UNL     1     -10.620  12.778  68.925  1.00  0.00    -0.401 NA 
HETATM   16  H   UNL     1      -9.717  13.097  69.277  1.00  0.00     0.000 HD 
BRANCH  15  17
HETATM   17  C   UNL     1     -11.438  13.680  68.556  1.00  0.00    -0.312 C  
HETATM   18  H   UNL     1     -12.978  14.926  69.047  1.00  0.00     0.000 HD 
HETATM   19  O   UNL     1     -12.367  14.253  69.322  1.00  0.00    -0.293 OA 
BRANCH  17  20
HETATM   20  C   UNL     1     -11.417  14.185  67.136  1.00  0.00    -0.373 C  
BRANCH  20  21
HETATM   21  C   UNL     1     -12.084  13.224  66.158  1.00  0.00    -0.477 C  
BRANCH  21  22
HETATM   22  C   UNL     1     -12.353  13.847  64.787  1.00  0.00    -0.429 C  
BRANCH  22  23
HETATM   23  C   UNL     1     -11.924  12.900  63.664  1.00  0.00    -0.613 C  
BRANCH  23  24
HETATM   24  C   UNL     1     -10.497  12.390  63.868  1.00  0.00    -0.469 C  
BRANCH  24  25
HETATM   25  C   UNL     1     -10.475  10.869  64.027  1.00  0.00    -0.379 C  
HETATM   26  C   UNL     1      -9.058  10.345  64.187  1.00  0.00    -0.272 C  
ENDBRANCH  24  25
ENDBRANCH  23  24
ENDBRANCH  22  23
ENDBRANCH  21  22
ENDBRANCH  20  21
ENDBRANCH  17  20
ENDBRANCH  15  17
ENDBRANCH   1  15
BRANCH   1  27
HETATM   27  C   UNL     1     -11.456  11.012  70.306  1.00  0.00    -0.273 C  
BRANCH  27  28
HETATM   28  N   UNL     1     -11.907   9.654  70.695  1.00  0.00    -0.270 NA 
HETATM   29  C   UNL     1     -13.248   9.739  71.320  1.00  0.00    -0.373 C  
HETATM   30  C   UNL     1     -11.030   9.044  71.696  1.00  0.00    -0.365 C  
HETATM   31  C   UNL     1     -13.274   8.787  72.507  1.00  0.00    -0.398 C  
HETATM   32  C   UNL     1     -11.909   8.139  72.536  1.00  0.00    -0.438 C  
ENDBRANCH  27  28
ENDBRANCH   1  27
TORSDOF 12
ENDMDL
MODEL      164
REMARK 921   NORMALIZED FREE ENERGY PREDICTED BY IDOCK:   -4.69 KCAL/MOL
REMARK 922        TOTAL FREE ENERGY PREDICTED BY IDOCK:  -10.04 KCAL/MOL
REMARK 923 INTER-LIGAND FREE ENERGY PREDICTED BY IDOCK:   -9.32 KCAL/MOL
REMARK 924 INTRA-LIGAND FREE ENERGY PREDICTED BY IDOCK:   -0.72 KCAL/MOL
REMARK 927      BINDING AFFINITY PREDICTED BY RF-SCORE:    0.00 PKD
ROOT
HETATM    1  C   UNL     1     -13.078  10.236  70.780  1.00  0.00    -0.287 C  
ENDROOT
BRANCH   1   2
HETATM    2  C   UNL     1     -13.435   9.007  71.679  1.00  0.00    -0.386 C  
HETATM    3  O   UNL     1     -14.100   9.412  72.883  1.00  0.00    -0.874 OA 
HETATM    4  H   UNL     1     -14.317   8.666  73.430  1.00  0.00     0.000 HD 
BRANCH   2   5
HETATM    5  C   UNL     1     -12.232   8.111  71.985  1.00  0.00    -0.385 A  
HETATM    6  C   UNL     1      -8.282   7.636  74.395  1.00  0.00    -0.226 C  
HETATM    7  C   UNL     1      -9.978   7.891  72.884  1.00  0.00    -0.294 A  
HETATM    8  C   UNL     1     -12.282   6.709  71.873  1.00  0.00    -0.381 A  
HETATM    9  C   UNL     1     -10.037   6.502  72.756  1.00  0.00    -0.176 A  
HETATM   10  C   UNL     1      -7.895   6.346  73.691  1.00  0.00    -0.092 C  
HETATM   11  C   UNL     1     -11.042   8.694  72.464  1.00  0.00    -0.234 A  
HETATM   12  O   UNL     1      -9.040   5.657  73.169  1.00  0.00    -0.128 OA 
HETATM   13  O   UNL     1      -8.912   8.529  73.468  1.00  0.00    -0.240 OA 
HETATM   14  C   UNL     1     -11.185   5.914  72.231  1.00  0.00    -0.343 A  
ENDBRANCH   2   5
ENDBRANCH   1   2
BRANCH   1  15
HETATM   15  N   UNL     1     -11.880   9.897  69.992  1.00  0.00    -0.443 NA 
HETATM   16  H   UNL     1     -11.364   9.066  70.281  1.00  0.00     0.000 HD 
BRANCH  15  17
HETATM   17  C   UNL     1     -11.421  10.532  68.989  1.00  0.00    -0.237 C  
HETATM   18  H   UNL     1     -11.778  11.798  67.429  1.00  0.00     0.000 HD 
HETATM   19  O   UNL     1     -12.121  11.325  68.178  1.00  0.00    -0.635 OA 
BRANCH  17  20
HETATM   20  C   UNL     1      -9.963  10.412  68.622  1.00  0.00    -0.186 C  
BRANCH  20  21
HETATM   21  C   UNL     1      -9.590   9.016  68.136  1.00  0.00    -0.164 C  
BRANCH  21  22
HETATM   22  C   UNL     1     -10.515   8.492  67.035  1.00  0.00    -0.362 C  
BRANCH  22  23
HETATM   23  C   UNL     1     -10.531   6.963  67.019  1.00  0.00    -0.374 C  
BRANCH  23  24
HETATM   24  C   UNL     1      -9.129   6.382  66.836  1.00  0.00    -0.138 C  
BRANCH  24  25
HETATM   25  C   UNL     1      -9.123   5.285  65.771  1.00  0.00    -0.161 C  
HETATM   26  C   UNL     1     -10.441   4.529  65.739  1.00  0.00    -0.268 C  
ENDBRANCH  24  25
ENDBRANCH  23  24
ENDBRANCH  22  23
ENDBRANCH  21  22
ENDBRANCH  20  21
ENDBRANCH  17  20
ENDBRANCH  15  17
ENDBRANCH   1  15
BRANCH   1  27
HETATM   27  C   UNL     1     -12.675  11.562  71.515  1.00  0.00    -0.334 C  
BRANCH  27  28
HETATM   28  N   UNL     1     -13.274  12.875  71.170  1.00  0.00    -0.080 NA 
HETATM   29  C   UNL     1     -12.254  13.723  70.508  1.00  0.00    -0.369 C  
HETATM   30  C   UNL     1     -13.710  13.614  72.356  1.00  0.00    -0.595 C  
HETATM   31  C   UNL     1     -12.405  15.141  71.042  1.00  0.00    -0.408 C  
HETATM   32  C   UNL     1     -13.555  15.085  72.021  1.00  0.00    -0.522 C  
ENDBRANCH  27  28
ENDBRANCH   1  27
TORSDOF 12
ENDMDL
MODEL      165
REMARK 921   NORMALIZED FREE ENERGY PREDICTED BY IDOCK:   -4.68 KCAL/MOL
REMARK 922        TOTAL FREE ENERGY PREDICTED BY IDOCK:  -10.02 KCAL/MOL
REMARK 923 INTER-LIGAND FREE ENERGY PREDICTED BY IDOCK:   -8.92 KCAL/MOL
REMARK 924 INTRA-LIGAND FREE ENERGY PREDICTED BY IDOCK:   -1.10 KCAL/MOL
REMARK 927      BINDING AFFINITY PREDICTED BY RF-SCORE:    0.00 PKD
ROOT
HETATM    1  C   UNL     1     -12.098  12.375  69.512  1.00  0.00    -0.189 C  
ENDROOT
BRANCH   1   2
HETATM    2  C   UNL     1     -12.091  10.819  69.351  1.00  0.00    -0.244 C  
HETATM    3  O   UNL     1     -13.326  10.240  69.793  1.00  0.00    -0.403 OA 
HETATM    4  H   UNL     1     -13.323   9.294  69.695  1.00  0.00     0.000 HD 
BRANCH   2   5
HETATM    5  C   UNL     1     -10.892  10.146  70.024  1.00  0.00    -0.361 A  
HETATM    6  C   UNL     1      -9.466   6.835  72.963  1.00  0.00    -0.140 C  
HETATM    7  C   UNL     1     -10.035   8.722  71.806  1.00  0.00    -0.326 A  
HETATM    8  C   UNL     1      -9.611  10.120  69.440  1.00  0.00    -0.249 A  
HETATM    9  C   UNL     1      -8.767   8.715  71.222  1.00  0.00    -0.194 A  
HETATM   10  C   UNL     1      -8.016   7.290  72.923  1.00  0.00    -0.101 C  
HETATM   11  C   UNL     1     -11.078   9.462  71.241  1.00  0.00    -0.446 A  
HETATM   12  O   UNL     1      -7.709   7.993  71.711  1.00  0.00    -0.080 OA 
HETATM   13  O   UNL     1     -10.337   7.972  72.916  1.00  0.00    -0.315 OA 
HETATM   14  C   UNL     1      -8.552   9.432  70.048  1.00  0.00    -0.218 A  
ENDBRANCH   2   5
ENDBRANCH   1   2
BRANCH   1  15
HETATM   15  N   UNL     1     -10.741  12.872  69.228  1.00  0.00    -0.445 NA 
HETATM   16  H   UNL     1      -9.987  12.494  69.802  1.00  0.00     0.000 HD 
BRANCH  15  17
HETATM   17  C   UNL     1     -10.409  13.724  68.342  1.00  0.00    -0.247 C  
HETATM   18  H   UNL     1     -10.909  14.740  66.644  1.00  0.00     0.000 HD 
HETATM   19  O   UNL     1     -11.156  14.105  67.305  1.00  0.00    -0.291 OA 
BRANCH  17  20
HETATM   20  C   UNL     1      -9.059  14.393  68.404  1.00  0.00    -0.193 C  
BRANCH  20  21
HETATM   21  C   UNL     1      -9.091  15.713  69.166  1.00  0.00    -0.256 C  
BRANCH  21  22
HETATM   22  C   UNL     1      -7.939  16.651  68.798  1.00  0.00    -0.239 C  
BRANCH  22  23
HETATM   23  C   UNL     1      -8.388  17.688  67.767  1.00  0.00    -0.226 C  
BRANCH  23  24
HETATM   24  C   UNL     1      -9.730  18.316  68.143  1.00  0.00    -0.341 C  
BRANCH  24  25
HETATM   25  C   UNL     1     -10.613  18.506  66.909  1.00  0.00    -0.406 C  
HETATM   26  C   UNL     1     -10.324  17.457  65.848  1.00  0.00    -0.276 C  
ENDBRANCH  24  25
ENDBRANCH  23  24
ENDBRANCH  22  23
ENDBRANCH  21  22
ENDBRANCH  20  21
ENDBRANCH  17  20
ENDBRANCH  15  17
ENDBRANCH   1  15
BRANCH   1  27
HETATM   27  C   UNL     1     -12.408  12.941  70.942  1.00  0.00    -0.275 C  
BRANCH  27  28
HETATM   28  N   UNL     1     -12.903  14.322  71.159  1.00  0.00    -0.341 NA 
HETATM   29  C   UNL     1     -11.809  15.158  71.707  1.00  0.00    -0.405 C  
HETATM   30  C   UNL     1     -13.986  14.375  72.142  1.00  0.00    -0.513 C  
HETATM   31  C   UNL     1     -12.399  16.056  72.785  1.00  0.00    -0.603 C  
HETATM   32  C   UNL     1     -13.872  15.721  72.829  1.00  0.00    -0.600 C  
ENDBRANCH  27  28
ENDBRANCH   1  27
TORSDOF 12
ENDMDL
MODEL      166
REMARK 921   NORMALIZED FREE ENERGY PREDICTED BY IDOCK:   -4.68 KCAL/MOL
REMARK 922        TOTAL FREE ENERGY PREDICTED BY IDOCK:  -10.01 KCAL/MOL
REMARK 923 INTER-LIGAND FREE ENERGY PREDICTED BY IDOCK:   -8.81 KCAL/MOL
REMARK 924 INTRA-LIGAND FREE ENERGY PREDICTED BY IDOCK:   -1.20 KCAL/MOL
REMARK 927      BINDING AFFINITY PREDICTED BY RF-SCORE:    0.00 PKD
ROOT
HETATM    1  C   UNL     1     -11.585  13.605  68.581  1.00  0.00    -0.329 C  
ENDROOT
BRANCH   1   2
HETATM    2  C   UNL     1     -11.916  14.574  67.397  1.00  0.00    -0.335 C  
HETATM    3  O   UNL     1     -12.259  13.851  66.208  1.00  0.00    -0.433 OA 
HETATM    4  H   UNL     1     -12.460  14.439  65.488  1.00  0.00     0.000 HD 
BRANCH   2   5
HETATM    5  C   UNL     1     -10.809  15.596  67.125  1.00  0.00    -0.297 A  
HETATM    6  C   UNL     1      -8.538  19.340  68.691  1.00  0.00    -0.366 C  
HETATM    7  C   UNL     1      -9.799  17.754  67.636  1.00  0.00    -0.299 A  
HETATM    8  C   UNL     1      -9.691  15.307  66.320  1.00  0.00    -0.325 A  
HETATM    9  C   UNL     1      -8.702  17.459  66.825  1.00  0.00    -0.255 A  
HETATM   10  C   UNL     1      -7.746  19.517  67.405  1.00  0.00    -0.251 C  
HETATM   11  C   UNL     1     -10.863  16.855  67.754  1.00  0.00    -0.281 A  
HETATM   12  O   UNL     1      -7.617  18.284  66.684  1.00  0.00    -0.213 OA 
HETATM   13  O   UNL     1      -9.867  18.898  68.391  1.00  0.00    -0.337 OA 
HETATM   14  C   UNL     1      -8.659  16.241  66.151  1.00  0.00    -0.342 A  
ENDBRANCH   2   5
ENDBRANCH   1   2
BRANCH   1  15
HETATM   15  N   UNL     1     -11.764  12.222  68.107  1.00  0.00    -0.339 NA 
HETATM   16  H   UNL     1     -12.659  12.002  67.669  1.00  0.00     0.000 HD 
BRANCH  15  17
HETATM   17  C   UNL     1     -10.921  11.272  68.186  1.00  0.00    -0.231 C  
HETATM   18  H   UNL     1      -9.276  10.488  69.106  1.00  0.00     0.000 HD 
HETATM   19  O   UNL     1      -9.906  11.198  69.047  1.00  0.00    -0.189 OA 
BRANCH  17  20
HETATM   20  C   UNL     1     -11.013  10.099  67.243  1.00  0.00    -0.250 C  
BRANCH  20  21
HETATM   21  C   UNL     1     -10.409   8.826  67.827  1.00  0.00    -0.297 C  
BRANCH  21  22
HETATM   22  C   UNL     1     -10.693   7.581  66.983  1.00  0.00    -0.367 C  
BRANCH  22  23
HETATM   23  C   UNL     1      -9.392   6.873  66.602  1.00  0.00    -0.198 C  
BRANCH  23  24
HETATM   24  C   UNL     1      -8.164   7.687  67.006  1.00  0.00    -0.117 C  
BRANCH  24  25
HETATM   25  C   UNL     1      -7.318   8.050  65.785  1.00  0.00    -0.079 C  
HETATM   26  C   UNL     1      -7.669   7.185  64.585  1.00  0.00    -0.112 C  
ENDBRANCH  24  25
ENDBRANCH  23  24
ENDBRANCH  22  23
ENDBRANCH  21  22
ENDBRANCH  20  21
ENDBRANCH  17  20
ENDBRANCH  15  17
ENDBRANCH   1  15
BRANCH   1  27
HETATM   27  C   UNL     1     -12.510  13.686  69.845  1.00  0.00    -0.167 C  
BRANCH  27  28
HETATM   28  N   UNL     1     -12.036  14.225  71.143  1.00  0.00    -0.325 NA 
HETATM   29  C   UNL     1     -13.064  13.985  72.183  1.00  0.00    -0.411 C  
HETATM   30  C   UNL     1     -11.832  15.674  71.102  1.00  0.00    -0.408 C  
HETATM   31  C   UNL     1     -13.146  15.227  73.058  1.00  0.00    -0.612 C  
HETATM   32  C   UNL     1     -12.120  16.185  72.499  1.00  0.00    -0.644 C  
ENDBRANCH  27  28
ENDBRANCH   1  27
TORSDOF 12
ENDMDL
MODEL      167
REMARK 921   NORMALIZED FREE ENERGY PREDICTED BY IDOCK:   -4.68 KCAL/MOL
REMARK 922        TOTAL FREE ENERGY PREDICTED BY IDOCK:  -10.01 KCAL/MOL
REMARK 923 INTER-LIGAND FREE ENERGY PREDICTED BY IDOCK:   -8.20 KCAL/MOL
REMARK 924 INTRA-LIGAND FREE ENERGY PREDICTED BY IDOCK:   -1.81 KCAL/MOL
REMARK 927      BINDING AFFINITY PREDICTED BY RF-SCORE:    0.00 PKD
ROOT
HETATM    1  C   UNL     1     -10.821  10.072  70.066  1.00  0.00    -0.302 C  
ENDROOT
BRANCH   1   2
HETATM    2  C   UNL     1     -10.942  11.550  69.570  1.00  0.00    -0.125 C  
HETATM    3  O   UNL     1     -11.996  12.247  70.248  1.00  0.00    -0.397 OA 
HETATM    4  H   UNL     1     -12.070  13.146  69.947  1.00  0.00     0.000 HD 
BRANCH   2   5
HETATM    5  C   UNL     1     -11.087  11.669  68.051  1.00  0.00    -0.299 A  
HETATM    6  C   UNL     1     -12.124  14.456  64.475  1.00  0.00    -0.481 C  
HETATM    7  C   UNL     1     -11.962  12.893  66.134  1.00  0.00    -0.429 A  
HETATM    8  C   UNL     1     -10.367  10.857  67.154  1.00  0.00    -0.262 A  
HETATM    9  C   UNL     1     -11.251  12.073  65.257  1.00  0.00    -0.322 A  
HETATM   10  C   UNL     1     -12.068  13.329  63.456  1.00  0.00    -0.482 C  
HETATM   11  C   UNL     1     -11.919  12.671  67.513  1.00  0.00    -0.314 A  
HETATM   12  O   UNL     1     -11.232  12.251  63.897  1.00  0.00    -0.350 OA 
HETATM   13  O   UNL     1     -12.686  13.977  65.703  1.00  0.00    -0.526 OA 
HETATM   14  C   UNL     1     -10.468  11.042  65.768  1.00  0.00    -0.290 A  
ENDBRANCH   2   5
ENDBRANCH   1   2
BRANCH   1  15
HETATM   15  N   UNL     1     -11.582   9.944  71.321  1.00  0.00    -0.380 NA 
HETATM   16  H   UNL     1     -11.350  10.604  72.064  1.00  0.00     0.000 HD 
BRANCH  15  17
HETATM   17  C   UNL     1     -12.497   9.098  71.577  1.00  0.00    -0.346 C  
HETATM   18  H   UNL     1     -14.161   8.620  72.659  1.00  0.00     0.000 HD 
HETATM   19  O   UNL     1     -13.477   9.252  72.467  1.00  0.00    -0.464 OA 
BRANCH  17  20
HETATM   20  C   UNL     1     -12.529   7.776  70.852  1.00  0.00    -0.082 C  
BRANCH  20  21
HETATM   21  C   UNL     1     -12.234   6.593  71.769  1.00  0.00    -0.400 C  
BRANCH  21  22
HETATM   22  C   UNL     1     -11.096   6.863  72.755  1.00  0.00    -0.304 C  
BRANCH  22  23
HETATM   23  C   UNL     1     -10.055   5.742  72.705  1.00  0.00    -0.202 C  
BRANCH  23  24
HETATM   24  C   UNL     1      -8.705   6.198  73.257  1.00  0.00    -0.123 C  
BRANCH  24  25
HETATM   25  C   UNL     1      -8.817   7.571  73.921  1.00  0.00    -0.291 C  
HETATM   26  C   UNL     1      -7.473   8.279  73.970  1.00  0.00    -0.223 C  
ENDBRANCH  24  25
ENDBRANCH  23  24
ENDBRANCH  22  23
ENDBRANCH  21  22
ENDBRANCH  20  21
ENDBRANCH  17  20
ENDBRANCH  15  17
ENDBRANCH   1  15
BRANCH   1  27
HETATM   27  C   UNL     1      -9.387   9.565  70.449  1.00  0.00    -0.257 C  
BRANCH  27  28
HETATM   28  N   UNL     1      -8.621   8.626  69.593  1.00  0.00    -0.128 NA 
HETATM   29  C   UNL     1      -9.466   7.453  69.269  1.00  0.00    -0.154 C  
HETATM   30  C   UNL     1      -7.435   8.099  70.269  1.00  0.00    -0.067 C  
HETATM   31  C   UNL     1      -8.592   6.209  69.350  1.00  0.00    -0.123 C  
HETATM   32  C   UNL     1      -7.213   6.706  69.715  1.00  0.00    -0.077 C  
ENDBRANCH  27  28
ENDBRANCH   1  27
TORSDOF 12
ENDMDL
MODEL      168
REMARK 921   NORMALIZED FREE ENERGY PREDICTED BY IDOCK:   -4.67 KCAL/MOL
REMARK 922        TOTAL FREE ENERGY PREDICTED BY IDOCK:  -10.00 KCAL/MOL
REMARK 923 INTER-LIGAND FREE ENERGY PREDICTED BY IDOCK:   -8.42 KCAL/MOL
REMARK 924 INTRA-LIGAND FREE ENERGY PREDICTED BY IDOCK:   -1.58 KCAL/MOL
REMARK 927      BINDING AFFINITY PREDICTED BY RF-SCORE:    0.00 PKD
ROOT
HETATM    1  C   UNL     1      -9.597   8.730  69.259  1.00  0.00    -0.162 C  
ENDROOT
BRANCH   1   2
HETATM    2  C   UNL     1      -8.934   9.943  68.526  1.00  0.00    -0.122 C  
HETATM    3  O   UNL     1      -8.861  11.095  69.377  1.00  0.00    -0.381 OA 
HETATM    4  H   UNL     1      -8.458  11.832  68.932  1.00  0.00     0.000 HD 
BRANCH   2   5
HETATM    5  C   UNL     1      -9.602  10.282  67.191  1.00  0.00    -0.199 A  
HETATM    6  C   UNL     1     -12.119  13.384  64.808  1.00  0.00    -0.406 C  
HETATM    7  C   UNL     1     -11.216  11.625  65.955  1.00  0.00    -0.238 A  
HETATM    8  C   UNL     1      -9.141   9.775  65.961  1.00  0.00    -0.201 A  
HETATM    9  C   UNL     1     -10.757  11.105  64.744  1.00  0.00    -0.264 A  
HETATM   10  C   UNL     1     -12.281  12.471  63.604  1.00  0.00    -0.550 C  
HETATM   11  C   UNL     1     -10.679  11.190  67.170  1.00  0.00    -0.305 A  
HETATM   12  O   UNL     1     -11.224  11.505  63.519  1.00  0.00    -0.413 OA 
HETATM   13  O   UNL     1     -12.167  12.614  66.016  1.00  0.00    -0.564 OA 
HETATM   14  C   UNL     1      -9.730  10.164  64.750  1.00  0.00    -0.389 A  
ENDBRANCH   2   5
ENDBRANCH   1   2
BRANCH   1  15
HETATM   15  N   UNL     1     -10.662   8.196  68.393  1.00  0.00    -0.415 NA 
HETATM   16  H   UNL     1     -11.259   8.881  67.929  1.00  0.00     0.000 HD 
BRANCH  15  17
HETATM   17  C   UNL     1     -10.916   6.970  68.162  1.00  0.00    -0.096 C  
HETATM   18  H   UNL     1     -11.409   5.134  68.904  1.00  0.00     0.000 HD 
HETATM   19  O   UNL     1     -11.220   6.049  69.076  1.00  0.00    -0.367 OA 
BRANCH  17  20
HETATM   20  C   UNL     1     -10.877   6.443  66.749  1.00  0.00    -0.361 C  
BRANCH  20  21
HETATM   21  C   UNL     1      -9.593   5.680  66.440  1.00  0.00    -0.175 C  
BRANCH  21  22
HETATM   22  C   UNL     1      -9.840   4.234  66.005  1.00  0.00    -0.232 C  
BRANCH  22  23
HETATM   23  C   UNL     1      -9.039   3.260  66.870  1.00  0.00    -0.191 C  
BRANCH  23  24
HETATM   24  C   UNL     1      -8.548   3.918  68.159  1.00  0.00    -0.113 C  
BRANCH  24  25
HETATM   25  C   UNL     1      -7.098   3.533  68.456  1.00  0.00    -0.050 C  
HETATM   26  C   UNL     1      -6.120   4.379  67.659  1.00  0.00    -0.031 C  
ENDBRANCH  24  25
ENDBRANCH  23  24
ENDBRANCH  22  23
ENDBRANCH  21  22
ENDBRANCH  20  21
ENDBRANCH  17  20
ENDBRANCH  15  17
ENDBRANCH   1  15
BRANCH   1  27
HETATM   27  C   UNL     1     -10.334   9.032  70.610  1.00  0.00    -0.229 C  
BRANCH  27  28
HETATM   28  N   UNL     1     -11.785   9.336  70.673  1.00  0.00    -0.254 NA 
HETATM   29  C   UNL     1     -11.981  10.805  70.666  1.00  0.00    -0.367 C  
HETATM   30  C   UNL     1     -12.401   8.849  71.908  1.00  0.00    -0.376 C  
HETATM   31  C   UNL     1     -13.088  11.135  71.658  1.00  0.00    -0.529 C  
HETATM   32  C   UNL     1     -13.532   9.807  72.225  1.00  0.00    -0.443 C  
ENDBRANCH  27  28
ENDBRANCH   1  27
TORSDOF 12
ENDMDL
MODEL      169
REMARK 921   NORMALIZED FREE ENERGY PREDICTED BY IDOCK:   -4.65 KCAL/MOL
REMARK 922        TOTAL FREE ENERGY PREDICTED BY IDOCK:   -9.97 KCAL/MOL
REMARK 923 INTER-LIGAND FREE ENERGY PREDICTED BY IDOCK:   -8.50 KCAL/MOL
REMARK 924 INTRA-LIGAND FREE ENERGY PREDICTED BY IDOCK:   -1.47 KCAL/MOL
REMARK 927      BINDING AFFINITY PREDICTED BY RF-SCORE:    0.00 PKD
ROOT
HETATM    1  C   UNL     1     -11.063   8.909  70.776  1.00  0.00    -0.261 C  
ENDROOT
BRANCH   1   2
HETATM    2  C   UNL     1     -12.293   9.846  71.012  1.00  0.00    -0.357 C  
HETATM    3  O   UNL     1     -13.529   9.164  70.763  1.00  0.00    -0.538 OA 
HETATM    4  H   UNL     1     -14.276   9.733  70.907  1.00  0.00     0.000 HD 
BRANCH   2   5
HETATM    5  C   UNL     1     -12.215  11.157  70.225  1.00  0.00    -0.436 A  
HETATM    6  C   UNL     1     -11.324  15.719  70.393  1.00  0.00    -0.374 C  
HETATM    7  C   UNL     1     -12.148  13.592  70.241  1.00  0.00    -0.357 A  
HETATM    8  C   UNL     1     -11.940  11.197  68.844  1.00  0.00    -0.367 A  
HETATM    9  C   UNL     1     -11.887  13.618  68.870  1.00  0.00    -0.364 A  
HETATM   10  C   UNL     1     -11.765  15.956  68.958  1.00  0.00    -0.370 C  
HETATM   11  C   UNL     1     -12.354  12.381  70.907  1.00  0.00    -0.358 A  
HETATM   12  O   UNL     1     -11.653  14.768  68.162  1.00  0.00    -0.307 OA 
HETATM   13  O   UNL     1     -12.163  14.732  71.007  1.00  0.00    -0.288 OA 
HETATM   14  C   UNL     1     -11.803  12.418  68.169  1.00  0.00    -0.372 A  
ENDBRANCH   2   5
ENDBRANCH   1   2
BRANCH   1  15
HETATM   15  N   UNL     1      -9.846   9.739  70.774  1.00  0.00    -0.332 NA 
HETATM   16  H   UNL     1      -9.830  10.527  71.422  1.00  0.00     0.000 HD 
BRANCH  15  17
HETATM   17  C   UNL     1      -8.812   9.576  70.050  1.00  0.00    -0.223 C  
HETATM   18  H   UNL     1      -7.166   8.452  69.607  1.00  0.00     0.000 HD 
HETATM   19  O   UNL     1      -7.939   8.573  70.148  1.00  0.00    -0.097 OA 
BRANCH  17  20
HETATM   20  C   UNL     1      -8.478  10.578  68.973  1.00  0.00    -0.159 C  
BRANCH  20  21
HETATM   21  C   UNL     1      -8.338   9.937  67.596  1.00  0.00    -0.114 C  
BRANCH  21  22
HETATM   22  C   UNL     1      -8.474  10.938  66.447  1.00  0.00    -0.163 C  
BRANCH  22  23
HETATM   23  C   UNL     1      -8.409  10.227  65.094  1.00  0.00    -0.162 C  
BRANCH  23  24
HETATM   24  C   UNL     1      -9.647  10.510  64.244  1.00  0.00    -0.364 C  
BRANCH  24  25
HETATM   25  C   UNL     1     -10.550  11.544  64.917  1.00  0.00    -0.360 C  
HETATM   26  C   UNL     1     -10.946  12.651  63.954  1.00  0.00    -0.468 C  
ENDBRANCH  24  25
ENDBRANCH  23  24
ENDBRANCH  22  23
ENDBRANCH  21  22
ENDBRANCH  20  21
ENDBRANCH  17  20
ENDBRANCH  15  17
ENDBRANCH   1  15
BRANCH   1  27
HETATM   27  C   UNL     1     -10.998   8.153  69.403  1.00  0.00    -0.002 C  
BRANCH  27  28
HETATM   28  N   UNL     1     -11.070   6.674  69.307  1.00  0.00    -0.292 NA 
HETATM   29  C   UNL     1     -10.928   6.084  70.659  1.00  0.00    -0.307 C  
HETATM   30  C   UNL     1      -9.980   6.117  68.504  1.00  0.00    -0.147 C  
HETATM   31  C   UNL     1     -10.040   4.853  70.543  1.00  0.00    -0.312 C  
HETATM   32  C   UNL     1      -9.688   4.745  69.077  1.00  0.00    -0.248 C  
ENDBRANCH  27  28
ENDBRANCH   1  27
TORSDOF 12
ENDMDL
MODEL      170
REMARK 921   NORMALIZED FREE ENERGY PREDICTED BY IDOCK:   -4.63 KCAL/MOL
REMARK 922        TOTAL FREE ENERGY PREDICTED BY IDOCK:   -9.94 KCAL/MOL
REMARK 923 INTER-LIGAND FREE ENERGY PREDICTED BY IDOCK:   -8.00 KCAL/MOL
REMARK 924 INTRA-LIGAND FREE ENERGY PREDICTED BY IDOCK:   -1.94 KCAL/MOL
REMARK 927      BINDING AFFINITY PREDICTED BY RF-SCORE:    0.00 PKD
ROOT
HETATM    1  C   UNL     1      -9.638  10.785  68.285  1.00  0.00    -0.166 C  
ENDROOT
BRANCH   1   2
HETATM    2  C   UNL     1     -10.951   9.941  68.386  1.00  0.00    -0.187 C  
HETATM    3  O   UNL     1     -12.115  10.754  68.189  1.00  0.00    -0.802 OA 
HETATM    4  H   UNL     1     -12.913  10.242  68.251  1.00  0.00     0.000 HD 
BRANCH   2   5
HETATM    5  C   UNL     1     -11.052   9.133  69.682  1.00  0.00    -0.103 A  
HETATM    6  C   UNL     1      -9.894   5.204  71.886  1.00  0.00    -0.177 C  
HETATM    7  C   UNL     1     -10.844   6.987  70.816  1.00  0.00    -0.246 A  
HETATM    8  C   UNL     1     -11.227   9.738  70.941  1.00  0.00    -0.429 A  
HETATM    9  C   UNL     1     -11.031   7.598  72.057  1.00  0.00    -0.246 A  
HETATM   10  C   UNL     1     -10.753   5.518  73.100  1.00  0.00    -0.268 C  
HETATM   11  C   UNL     1     -10.897   7.733  69.636  1.00  0.00    -0.185 A  
HETATM   12  O   UNL     1     -10.968   6.928  73.252  1.00  0.00    -0.286 OA 
HETATM   13  O   UNL     1     -10.550   5.651  70.693  1.00  0.00    -0.256 OA 
HETATM   14  C   UNL     1     -11.242   8.973  72.116  1.00  0.00    -0.286 A  
ENDBRANCH   2   5
ENDBRANCH   1   2
BRANCH   1  15
HETATM   15  N   UNL     1      -9.851  11.850  67.289  1.00  0.00    -0.186 NA 
HETATM   16  H   UNL     1     -10.063  11.548  66.337  1.00  0.00     0.000 HD 
BRANCH  15  17
HETATM   17  C   UNL     1      -9.798  13.105  67.489  1.00  0.00    -0.216 C  
HETATM   18  H   UNL     1      -8.677  14.732  68.002  1.00  0.00     0.000 HD 
HETATM   19  O   UNL     1      -8.716  13.794  67.852  1.00  0.00    -0.162 OA 
BRANCH  17  20
HETATM   20  C   UNL     1     -11.038  13.949  67.330  1.00  0.00    -0.312 C  
BRANCH  20  21
HETATM   21  C   UNL     1     -11.881  14.003  68.599  1.00  0.00    -0.396 C  
BRANCH  21  22
HETATM   22  C   UNL     1     -11.868  15.375  69.275  1.00  0.00    -0.365 C  
BRANCH  22  23
HETATM   23  C   UNL     1     -12.320  15.269  70.733  1.00  0.00    -0.433 C  
BRANCH  23  24
HETATM   24  C   UNL     1     -12.578  13.820  71.142  1.00  0.00    -0.452 C  
BRANCH  24  25
HETATM   25  C   UNL     1     -13.373  13.750  72.447  1.00  0.00    -0.635 C  
HETATM   26  C   UNL     1     -13.146  14.983  73.306  1.00  0.00    -0.607 C  
ENDBRANCH  24  25
ENDBRANCH  23  24
ENDBRANCH  22  23
ENDBRANCH  21  22
ENDBRANCH  20  21
ENDBRANCH  17  20
ENDBRANCH  15  17
ENDBRANCH   1  15
BRANCH   1  27
HETATM   27  C   UNL     1      -8.354  10.046  67.768  1.00  0.00    -0.114 C  
BRANCH  27  28
HETATM   28  N   UNL     1      -7.348   9.463  68.688  1.00  0.00    -0.075 NA 
HETATM   29  C   UNL     1      -7.366   7.986  68.568  1.00  0.00    -0.097 C  
HETATM   30  C   UNL     1      -7.641   9.761  70.091  1.00  0.00    -0.171 C  
HETATM   31  C   UNL     1      -7.228   7.400  69.966  1.00  0.00    -0.073 C  
HETATM   32  C   UNL     1      -7.114   8.588  70.894  1.00  0.00    -0.063 C  
ENDBRANCH  27  28
ENDBRANCH   1  27
TORSDOF 12
ENDMDL
MODEL      171
REMARK 921   NORMALIZED FREE ENERGY PREDICTED BY IDOCK:   -4.62 KCAL/MOL
REMARK 922        TOTAL FREE ENERGY PREDICTED BY IDOCK:   -9.91 KCAL/MOL
REMARK 923 INTER-LIGAND FREE ENERGY PREDICTED BY IDOCK:   -8.43 KCAL/MOL
REMARK 924 INTRA-LIGAND FREE ENERGY PREDICTED BY IDOCK:   -1.49 KCAL/MOL
REMARK 927      BINDING AFFINITY PREDICTED BY RF-SCORE:    0.00 PKD
ROOT
HETATM    1  C   UNL     1     -10.576   9.248  68.682  1.00  0.00    -0.187 C  
ENDROOT
BRANCH   1   2
HETATM    2  C   UNL     1     -10.015   8.016  67.897  1.00  0.00    -0.180 C  
HETATM    3  O   UNL     1     -10.904   7.612  66.848  1.00  0.00    -0.448 OA 
HETATM    4  H   UNL     1     -10.563   6.864  66.371  1.00  0.00     0.000 HD 
BRANCH   2   5
HETATM    5  C   UNL     1      -9.654   6.835  68.803  1.00  0.00    -0.132 A  
HETATM    6  C   UNL     1      -6.719   5.183  72.010  1.00  0.00    -0.052 C  
HETATM    7  C   UNL     1      -7.998   5.710  70.191  1.00  0.00    -0.099 A  
HETATM    8  C   UNL     1     -10.612   5.913  69.265  1.00  0.00    -0.379 A  
HETATM    9  C   UNL     1      -8.955   4.795  70.632  1.00  0.00    -0.121 A  
HETATM   10  C   UNL     1      -7.339   3.795  72.001  1.00  0.00    -0.056 C  
HETATM   11  C   UNL     1      -8.327   6.693  69.254  1.00  0.00    -0.124 A  
HETATM   12  O   UNL     1      -8.705   3.823  71.565  1.00  0.00    -0.089 OA 
HETATM   13  O   UNL     1      -6.717   5.727  70.685  1.00  0.00    -0.048 OA 
HETATM   14  C   UNL     1     -10.259   4.887  70.153  1.00  0.00    -0.310 A  
ENDBRANCH   2   5
ENDBRANCH   1   2
BRANCH   1  15
HETATM   15  N   UNL     1     -10.378  10.450  67.854  1.00  0.00    -0.179 NA 
HETATM   16  H   UNL     1      -9.481  10.529  67.373  1.00  0.00     0.000 HD 
BRANCH  15  17
HETATM   17  C   UNL     1     -11.206  11.399  67.675  1.00  0.00    -0.283 C  
HETATM   18  H   UNL     1     -12.169  12.633  66.365  1.00  0.00     0.000 HD 
HETATM   19  O   UNL     1     -11.551  11.924  66.499  1.00  0.00    -0.463 OA 
BRANCH  17  20
HETATM   20  C   UNL     1     -11.887  12.042  68.857  1.00  0.00    -0.356 C  
BRANCH  20  21
HETATM   21  C   UNL     1     -11.739  13.560  68.868  1.00  0.00    -0.379 C  
BRANCH  21  22
HETATM   22  C   UNL     1     -12.081  14.190  70.220  1.00  0.00    -0.412 C  
BRANCH  22  23
HETATM   23  C   UNL     1     -11.786  15.691  70.212  1.00  0.00    -0.375 C  
BRANCH  23  24
HETATM   24  C   UNL     1     -11.905  16.299  71.609  1.00  0.00    -0.482 C  
BRANCH  24  25
HETATM   25  C   UNL     1     -12.960  15.568  72.439  1.00  0.00    -0.511 C  
HETATM   26  C   UNL     1     -12.439  15.218  73.823  1.00  0.00    -0.746 C  
ENDBRANCH  24  25
ENDBRANCH  23  24
ENDBRANCH  22  23
ENDBRANCH  21  22
ENDBRANCH  20  21
ENDBRANCH  17  20
ENDBRANCH  15  17
ENDBRANCH   1  15
BRANCH   1  27
HETATM   27  C   UNL     1      -9.872   9.610  70.036  1.00  0.00    -0.246 C  
BRANCH  27  28
HETATM   28  N   UNL     1     -10.539   9.437  71.349  1.00  0.00    -0.340 NA 
HETATM   29  C   UNL     1      -9.699   8.581  72.220  1.00  0.00    -0.310 C  
HETATM   30  C   UNL     1     -11.829   8.756  71.232  1.00  0.00    -0.303 C  
HETATM   31  C   UNL     1     -10.620   7.631  72.973  1.00  0.00    -0.433 C  
HETATM   32  C   UNL     1     -12.019   7.979  72.519  1.00  0.00    -0.384 C  
ENDBRANCH  27  28
ENDBRANCH   1  27
TORSDOF 12
ENDMDL
MODEL      172
REMARK 921   NORMALIZED FREE ENERGY PREDICTED BY IDOCK:   -4.62 KCAL/MOL
REMARK 922        TOTAL FREE ENERGY PREDICTED BY IDOCK:   -9.91 KCAL/MOL
REMARK 923 INTER-LIGAND FREE ENERGY PREDICTED BY IDOCK:   -8.68 KCAL/MOL
REMARK 924 INTRA-LIGAND FREE ENERGY PREDICTED BY IDOCK:   -1.23 KCAL/MOL
REMARK 927      BINDING AFFINITY PREDICTED BY RF-SCORE:    0.00 PKD
ROOT
HETATM    1  C   UNL     1     -10.075  15.026  69.436  1.00  0.00    -0.202 C  
ENDROOT
BRANCH   1   2
HETATM    2  C   UNL     1     -10.249  13.570  68.893  1.00  0.00    -0.057 C  
HETATM    3  O   UNL     1      -9.006  12.856  68.894  1.00  0.00    -0.375 OA 
HETATM    4  H   UNL     1      -9.112  11.971  68.564  1.00  0.00     0.000 HD 
BRANCH   2   5
HETATM    5  C   UNL     1     -10.920  13.513  67.518  1.00  0.00    -0.283 A  
HETATM    6  C   UNL     1     -11.240  11.252  63.466  1.00  0.00    -0.086 C  
HETATM    7  C   UNL     1     -10.914  12.662  65.235  1.00  0.00    -0.286 A  
HETATM    8  C   UNL     1     -12.203  14.039  67.277  1.00  0.00    -0.325 A  
HETATM    9  C   UNL     1     -12.182  13.198  65.007  1.00  0.00    -0.440 A  
HETATM   10  C   UNL     1     -12.151  12.298  62.844  1.00  0.00     0.278 C  
HETATM   11  C   UNL     1     -10.267  12.852  66.459  1.00  0.00    -0.264 A  
HETATM   12  O   UNL     1     -12.880  13.030  63.839  1.00  0.00    -0.664 OA 
HETATM   13  O   UNL     1     -10.266  11.887  64.304  1.00  0.00    -0.276 OA 
HETATM   14  C   UNL     1     -12.818  13.904  66.024  1.00  0.00    -0.302 A  
ENDBRANCH   2   5
ENDBRANCH   1   2
BRANCH   1  15
HETATM   15  N   UNL     1      -8.635  15.282  69.613  1.00  0.00    -0.401 NA 
HETATM   16  H   UNL     1      -8.241  15.058  70.528  1.00  0.00     0.000 HD 
BRANCH  15  17
HETATM   17  C   UNL     1      -7.830  15.751  68.747  1.00  0.00    -0.180 C  
HETATM   18  H   UNL     1      -6.946  15.554  66.918  1.00  0.00     0.000 HD 
HETATM   19  O   UNL     1      -7.547  15.203  67.565  1.00  0.00    -0.157 OA 
BRANCH  17  20
HETATM   20  C   UNL     1      -7.086  17.034  69.022  1.00  0.00    -0.233 C  
BRANCH  20  21
HETATM   21  C   UNL     1      -7.166  18.022  67.863  1.00  0.00    -0.222 C  
BRANCH  21  22
HETATM   22  C   UNL     1      -7.902  19.315  68.221  1.00  0.00    -0.354 C  
BRANCH  22  23
HETATM   23  C   UNL     1      -7.636  20.400  67.177  1.00  0.00    -0.367 C  
BRANCH  23  24
HETATM   24  C   UNL     1      -7.691  19.844  65.755  1.00  0.00    -0.275 C  
BRANCH  24  25
HETATM   25  C   UNL     1      -6.463  20.271  64.950  1.00  0.00    -0.335 C  
HETATM   26  C   UNL     1      -5.546  19.093  64.663  1.00  0.00    -0.288 C  
ENDBRANCH  24  25
ENDBRANCH  23  24
ENDBRANCH  22  23
ENDBRANCH  21  22
ENDBRANCH  20  21
ENDBRANCH  17  20
ENDBRANCH  15  17
ENDBRANCH   1  15
BRANCH   1  27
HETATM   27  C   UNL     1     -10.683  15.337  70.848  1.00  0.00    -0.078 C  
BRANCH  27  28
HETATM   28  N   UNL     1     -12.067  15.839  71.024  1.00  0.00    -0.393 NA 
HETATM   29  C   UNL     1     -12.254  16.290  72.424  1.00  0.00    -0.457 C  
HETATM   30  C   UNL     1     -13.069  14.797  70.796  1.00  0.00    -0.336 C  
HETATM   31  C   UNL     1     -13.635  15.842  72.881  1.00  0.00    -0.660 C  
HETATM   32  C   UNL     1     -14.244  15.132  71.694  1.00  0.00    -0.664 C  
ENDBRANCH  27  28
ENDBRANCH   1  27
TORSDOF 12
ENDMDL
MODEL      173
REMARK 921   NORMALIZED FREE ENERGY PREDICTED BY IDOCK:   -4.61 KCAL/MOL
REMARK 922        TOTAL FREE ENERGY PREDICTED BY IDOCK:   -9.90 KCAL/MOL
REMARK 923 INTER-LIGAND FREE ENERGY PREDICTED BY IDOCK:   -8.14 KCAL/MOL
REMARK 924 INTRA-LIGAND FREE ENERGY PREDICTED BY IDOCK:   -1.76 KCAL/MOL
REMARK 927      BINDING AFFINITY PREDICTED BY RF-SCORE:    0.00 PKD
ROOT
HETATM    1  C   UNL     1     -10.103  16.237  69.353  1.00  0.00    -0.253 C  
ENDROOT
BRANCH   1   2
HETATM    2  C   UNL     1     -11.470  16.001  68.630  1.00  0.00    -0.377 C  
HETATM    3  O   UNL     1     -12.569  16.071  69.548  1.00  0.00    -0.437 OA 
HETATM    4  H   UNL     1     -13.400  15.927  69.109  1.00  0.00     0.000 HD 
BRANCH   2   5
HETATM    5  C   UNL     1     -11.508  14.704  67.817  1.00  0.00    -0.359 A  
HETATM    6  C   UNL     1     -10.047  12.497  63.993  1.00  0.00    -0.289 C  
HETATM    7  C   UNL     1     -11.133  13.568  65.694  1.00  0.00    -0.289 A  
HETATM    8  C   UNL     1     -11.731  13.445  68.407  1.00  0.00    -0.390 A  
HETATM    9  C   UNL     1     -11.368  12.328  66.289  1.00  0.00    -0.345 A  
HETATM   10  C   UNL     1     -10.929  11.284  64.239  1.00  0.00    -0.288 C  
HETATM   11  C   UNL     1     -11.243  14.749  66.434  1.00  0.00    -0.342 A  
HETATM   12  O   UNL     1     -11.254  11.133  65.627  1.00  0.00    -0.093 OA 
HETATM   13  O   UNL     1     -10.735  13.691  64.386  1.00  0.00    -0.410 OA 
HETATM   14  C   UNL     1     -11.687  12.270  67.644  1.00  0.00    -0.403 A  
ENDBRANCH   2   5
ENDBRANCH   1   2
BRANCH   1  15
HETATM   15  N   UNL     1      -9.459  17.415  68.746  1.00  0.00    -0.275 NA 
HETATM   16  H   UNL     1      -8.467  17.546  68.946  1.00  0.00     0.000 HD 
BRANCH  15  17
HETATM   17  C   UNL     1     -10.009  18.287  68.000  1.00  0.00    -0.347 C  
HETATM   18  H   UNL     1     -11.176  19.955  67.854  1.00  0.00     0.000 HD 
HETATM   19  O   UNL     1     -10.765  19.304  68.412  1.00  0.00    -0.192 OA 
BRANCH  17  20
HETATM   20  C   UNL     1      -9.839  18.216  66.503  1.00  0.00    -0.362 C  
BRANCH  20  21
HETATM   21  C   UNL     1      -8.599  17.431  66.087  1.00  0.00    -0.191 C  
BRANCH  21  22
HETATM   22  C   UNL     1      -7.314  18.261  66.136  1.00  0.00    -0.298 C  
BRANCH  22  23
HETATM   23  C   UNL     1      -7.630  19.758  66.090  1.00  0.00    -0.330 C  
BRANCH  23  24
HETATM   24  C   UNL     1      -6.982  20.510  67.252  1.00  0.00    -0.359 C  
BRANCH  24  25
HETATM   25  C   UNL     1      -6.023  19.605  68.025  1.00  0.00    -0.234 C  
HETATM   26  C   UNL     1      -6.506  19.362  69.445  1.00  0.00    -0.357 C  
ENDBRANCH  24  25
ENDBRANCH  23  24
ENDBRANCH  22  23
ENDBRANCH  21  22
ENDBRANCH  20  21
ENDBRANCH  17  20
ENDBRANCH  15  17
ENDBRANCH   1  15
BRANCH   1  27
HETATM   27  C   UNL     1      -9.021  15.111  69.214  1.00  0.00    -0.202 C  
BRANCH  27  28
HETATM   28  N   UNL     1      -7.648  15.384  68.723  1.00  0.00    -0.133 NA 
HETATM   29  C   UNL     1      -7.253  14.335  67.753  1.00  0.00    -0.175 C  
HETATM   30  C   UNL     1      -6.655  15.338  69.797  1.00  0.00    -0.177 C  
HETATM   31  C   UNL     1      -5.799  13.973  68.019  1.00  0.00    -0.138 C  
HETATM   32  C   UNL     1      -5.364  14.859  69.163  1.00  0.00    -0.093 C  
ENDBRANCH  27  28
ENDBRANCH   1  27
TORSDOF 12
ENDMDL
MODEL      174
REMARK 921   NORMALIZED FREE ENERGY PREDICTED BY IDOCK:   -4.61 KCAL/MOL
REMARK 922        TOTAL FREE ENERGY PREDICTED BY IDOCK:   -9.90 KCAL/MOL
REMARK 923 INTER-LIGAND FREE ENERGY PREDICTED BY IDOCK:   -8.25 KCAL/MOL
REMARK 924 INTRA-LIGAND FREE ENERGY PREDICTED BY IDOCK:   -1.65 KCAL/MOL
REMARK 927      BINDING AFFINITY PREDICTED BY RF-SCORE:    0.00 PKD
ROOT
HETATM    1  C   UNL     1      -9.503  10.778  68.647  1.00  0.00    -0.188 C  
ENDROOT
BRANCH   1   2
HETATM    2  C   UNL     1      -8.614  11.179  67.424  1.00  0.00    -0.137 C  
HETATM    3  O   UNL     1      -7.221  11.179  67.764  1.00  0.00    -0.086 OA 
HETATM    4  H   UNL     1      -6.680  11.422  67.021  1.00  0.00     0.000 HD 
BRANCH   2   5
HETATM    5  C   UNL     1      -9.028  12.507  66.784  1.00  0.00    -0.198 A  
HETATM    6  C   UNL     1     -12.278  14.776  64.352  1.00  0.00    -0.428 C  
HETATM    7  C   UNL     1     -10.453  13.702  65.210  1.00  0.00    -0.351 A  
HETATM    8  C   UNL     1      -8.575  13.752  67.260  1.00  0.00    -0.221 A  
HETATM    9  C   UNL     1      -9.987  14.929  65.684  1.00  0.00    -0.358 A  
HETATM   10  C   UNL     1     -11.428  16.026  64.199  1.00  0.00    -0.011 C  
HETATM   11  C   UNL     1      -9.950  12.501  65.720  1.00  0.00    -0.272 A  
HETATM   12  O   UNL     1     -10.453  16.141  65.244  1.00  0.00    -0.499 OA 
HETATM   13  O   UNL     1     -11.451  13.608  64.272  1.00  0.00    -0.380 OA 
HETATM   14  C   UNL     1      -9.032  14.952  66.697  1.00  0.00    -0.301 A  
ENDBRANCH   2   5
ENDBRANCH   1   2
BRANCH   1  15
HETATM   15  N   UNL     1      -8.951   9.545  69.233  1.00  0.00    -0.151 NA 
HETATM   16  H   UNL     1      -9.027   8.698  68.667  1.00  0.00     0.000 HD 
BRANCH  15  17
HETATM   17  C   UNL     1      -8.390   9.422  70.368  1.00  0.00    -0.205 C  
HETATM   18  H   UNL     1      -6.747   9.754  71.533  1.00  0.00     0.000 HD 
HETATM   19  O   UNL     1      -7.166   9.845  70.685  1.00  0.00    -0.263 OA 
BRANCH  17  20
HETATM   20  C   UNL     1      -9.114   8.737  71.500  1.00  0.00    -0.322 C  
BRANCH  20  21
HETATM   21  C   UNL     1      -9.864   7.488  71.049  1.00  0.00    -0.182 C  
BRANCH  21  22
HETATM   22  C   UNL     1     -11.153   7.240  71.835  1.00  0.00    -0.270 C  
BRANCH  22  23
HETATM   23  C   UNL     1     -10.880   7.229  73.341  1.00  0.00    -0.370 C  
BRANCH  23  24
HETATM   24  C   UNL     1     -10.269   5.904  73.796  1.00  0.00    -0.246 C  
BRANCH  24  25
HETATM   25  C   UNL     1     -11.144   4.722  73.376  1.00  0.00    -0.422 C  
HETATM   26  C   UNL     1     -10.334   3.652  72.664  1.00  0.00    -0.224 C  
ENDBRANCH  24  25
ENDBRANCH  23  24
ENDBRANCH  22  23
ENDBRANCH  21  22
ENDBRANCH  20  21
ENDBRANCH  17  20
ENDBRANCH  15  17
ENDBRANCH   1  15
BRANCH   1  27
HETATM   27  C   UNL     1     -10.998  10.411  68.349  1.00  0.00    -0.264 C  
BRANCH  27  28
HETATM   28  N   UNL     1     -12.130  11.033  69.079  1.00  0.00    -0.474 NA 
HETATM   29  C   UNL     1     -11.819  12.457  69.350  1.00  0.00    -0.304 C  
HETATM   30  C   UNL     1     -12.359  10.411  70.384  1.00  0.00    -0.286 C  
HETATM   31  C   UNL     1     -12.294  12.780  70.759  1.00  0.00    -0.375 C  
HETATM   32  C   UNL     1     -12.903  11.501  71.285  1.00  0.00    -0.463 C  
ENDBRANCH  27  28
ENDBRANCH   1  27
TORSDOF 12
ENDMDL
MODEL      175
REMARK 921   NORMALIZED FREE ENERGY PREDICTED BY IDOCK:   -4.61 KCAL/MOL
REMARK 922        TOTAL FREE ENERGY PREDICTED BY IDOCK:   -9.90 KCAL/MOL
REMARK 923 INTER-LIGAND FREE ENERGY PREDICTED BY IDOCK:   -8.02 KCAL/MOL
REMARK 924 INTRA-LIGAND FREE ENERGY PREDICTED BY IDOCK:   -1.88 KCAL/MOL
REMARK 927      BINDING AFFINITY PREDICTED BY RF-SCORE:    0.00 PKD
ROOT
HETATM    1  C   UNL     1     -10.780  15.215  67.278  1.00  0.00    -0.305 C  
ENDROOT
BRANCH   1   2
HETATM    2  C   UNL     1     -11.919  14.245  67.734  1.00  0.00    -0.349 C  
HETATM    3  O   UNL     1     -12.562  14.714  68.926  1.00  0.00    -0.563 OA 
HETATM    4  H   UNL     1     -13.255  14.125  69.204  1.00  0.00     0.000 HD 
BRANCH   2   5
HETATM    5  C   UNL     1     -11.454  12.795  67.889  1.00  0.00    -0.365 A  
HETATM    6  C   UNL     1     -11.434   9.013  70.596  1.00  0.00    -0.248 C  
HETATM    7  C   UNL     1     -11.044  10.887  69.348  1.00  0.00    -0.260 A  
HETATM    8  C   UNL     1     -11.207  11.955  66.786  1.00  0.00    -0.384 A  
HETATM    9  C   UNL     1     -10.790  10.069  68.246  1.00  0.00    -0.241 A  
HETATM   10  C   UNL     1     -10.475   8.254  69.693  1.00  0.00    -0.221 C  
HETATM   11  C   UNL     1     -11.329  12.245  69.180  1.00  0.00    -0.330 A  
HETATM   12  O   UNL     1     -10.527   8.727  68.340  1.00  0.00    -0.207 OA 
HETATM   13  O   UNL     1     -11.078  10.400  70.632  1.00  0.00    -0.313 OA 
HETATM   14  C   UNL     1     -10.853  10.610  66.965  1.00  0.00    -0.298 A  
ENDBRANCH   2   5
ENDBRANCH   1   2
BRANCH   1  15
HETATM   15  N   UNL     1      -9.540  14.828  67.974  1.00  0.00    -0.206 NA 
HETATM   16  H   UNL     1      -8.928  14.175  67.486  1.00  0.00     0.000 HD 
BRANCH  15  17
HETATM   17  C   UNL     1      -9.153  15.224  69.120  1.00  0.00    -0.236 C  
HETATM   18  H   UNL     1      -9.639  15.697  71.045  1.00  0.00     0.000 HD 
HETATM   19  O   UNL     1      -9.929  15.402  70.189  1.00  0.00    -0.258 OA 
BRANCH  17  20
HETATM   20  C   UNL     1      -7.699  15.548  69.356  1.00  0.00    -0.227 C  
BRANCH  20  21
HETATM   21  C   UNL     1      -6.803  15.109  68.203  1.00  0.00    -0.135 C  
BRANCH  21  22
HETATM   22  C   UNL     1      -5.869  13.953  68.569  1.00  0.00    -0.092 C  
BRANCH  22  23
HETATM   23  C   UNL     1      -5.910  12.860  67.499  1.00  0.00    -0.115 C  
BRANCH  23  24
HETATM   24  C   UNL     1      -7.309  12.266  67.349  1.00  0.00    -0.151 C  
BRANCH  24  25
HETATM   25  C   UNL     1      -7.250  10.742  67.238  1.00  0.00    -0.096 C  
HETATM   26  C   UNL     1      -7.078  10.088  68.598  1.00  0.00    -0.078 C  
ENDBRANCH  24  25
ENDBRANCH  23  24
ENDBRANCH  22  23
ENDBRANCH  21  22
ENDBRANCH  20  21
ENDBRANCH  17  20
ENDBRANCH  15  17
ENDBRANCH   1  15
BRANCH   1  27
HETATM   27  C   UNL     1     -10.950  16.732  67.638  1.00  0.00    -0.178 C  
BRANCH  27  28
HETATM   28  N   UNL     1     -10.048  17.781  67.103  1.00  0.00    -0.324 NA 
HETATM   29  C   UNL     1      -9.810  18.806  68.147  1.00  0.00    -0.352 C  
HETATM   30  C   UNL     1     -10.635  18.490  65.964  1.00  0.00    -0.331 C  
HETATM   31  C   UNL     1      -9.838  20.173  67.478  1.00  0.00    -0.574 C  
HETATM   32  C   UNL     1     -10.085  19.901  66.012  1.00  0.00    -0.589 C  
ENDBRANCH  27  28
ENDBRANCH   1  27
TORSDOF 12
ENDMDL
MODEL      176
REMARK 921   NORMALIZED FREE ENERGY PREDICTED BY IDOCK:   -4.61 KCAL/MOL
REMARK 922        TOTAL FREE ENERGY PREDICTED BY IDOCK:   -9.90 KCAL/MOL
REMARK 923 INTER-LIGAND FREE ENERGY PREDICTED BY IDOCK:   -8.87 KCAL/MOL
REMARK 924 INTRA-LIGAND FREE ENERGY PREDICTED BY IDOCK:   -1.03 KCAL/MOL
REMARK 927      BINDING AFFINITY PREDICTED BY RF-SCORE:    0.00 PKD
ROOT
HETATM    1  C   UNL     1     -10.868   9.191  69.226  1.00  0.00    -0.132 C  
ENDROOT
BRANCH   1   2
HETATM    2  C   UNL     1      -9.819  10.126  68.539  1.00  0.00    -0.154 C  
HETATM    3  O   UNL     1      -9.478  11.239  69.376  1.00  0.00    -0.399 OA 
HETATM    4  H   UNL     1      -8.841  11.807  68.959  1.00  0.00     0.000 HD 
BRANCH   2   5
HETATM    5  C   UNL     1     -10.245  10.592  67.144  1.00  0.00    -0.270 A  
HETATM    6  C   UNL     1     -12.052  14.048  64.611  1.00  0.00    -0.440 C  
HETATM    7  C   UNL     1     -11.513  12.155  65.771  1.00  0.00    -0.361 A  
HETATM    8  C   UNL     1      -9.663  10.089  65.965  1.00  0.00    -0.301 A  
HETATM    9  C   UNL     1     -10.937  11.639  64.610  1.00  0.00    -0.301 A  
HETATM   10  C   UNL     1     -12.129  13.210  63.345  1.00  0.00    -0.486 C  
HETATM   11  C   UNL     1     -11.208  11.613  67.023  1.00  0.00    -0.376 A  
HETATM   12  O   UNL     1     -11.175  12.138  63.356  1.00  0.00    -0.427 OA 
HETATM   13  O   UNL     1     -12.355  13.239  65.753  1.00  0.00    -0.438 OA 
HETATM   14  C   UNL     1     -10.025  10.591  64.707  1.00  0.00    -0.412 A  
ENDBRANCH   2   5
ENDBRANCH   1   2
BRANCH   1  15
HETATM   15  N   UNL     1     -10.917   9.530  70.659  1.00  0.00    -0.279 NA 
HETATM   16  H   UNL     1     -11.362  10.415  70.903  1.00  0.00     0.000 HD 
BRANCH  15  17
HETATM   17  C   UNL     1     -10.464   8.835  71.624  1.00  0.00    -0.317 C  
HETATM   18  H   UNL     1      -8.838   8.112  72.624  1.00  0.00     0.000 HD 
HETATM   19  O   UNL     1      -9.176   8.631  71.903  1.00  0.00    -0.237 OA 
BRANCH  17  20
HETATM   20  C   UNL     1     -11.414   8.145  72.571  1.00  0.00    -0.470 C  
BRANCH  20  21
HETATM   21  C   UNL     1     -10.801   6.910  73.223  1.00  0.00    -0.321 C  
BRANCH  21  22
HETATM   22  C   UNL     1     -11.340   5.596  72.653  1.00  0.00    -0.356 C  
BRANCH  22  23
HETATM   23  C   UNL     1     -10.337   4.460  72.862  1.00  0.00    -0.240 C  
BRANCH  23  24
HETATM   24  C   UNL     1     -10.650   3.652  74.121  1.00  0.00    -0.271 C  
BRANCH  24  25
HETATM   25  C   UNL     1     -11.202   2.271  73.765  1.00  0.00    -0.293 C  
HETATM   26  C   UNL     1     -10.495   1.682  72.556  1.00  0.00    -0.229 C  
ENDBRANCH  24  25
ENDBRANCH  23  24
ENDBRANCH  22  23
ENDBRANCH  21  22
ENDBRANCH  20  21
ENDBRANCH  17  20
ENDBRANCH  15  17
ENDBRANCH   1  15
BRANCH   1  27
HETATM   27  C   UNL     1     -10.562   7.653  69.219  1.00  0.00    -0.201 C  
BRANCH  27  28
HETATM   28  N   UNL     1      -9.911   6.977  68.070  1.00  0.00    -0.149 NA 
HETATM   29  C   UNL     1     -10.922   6.703  67.021  1.00  0.00    -0.393 C  
HETATM   30  C   UNL     1      -9.345   5.678  68.438  1.00  0.00    -0.119 C  
HETATM   31  C   UNL     1     -10.646   5.318  66.454  1.00  0.00    -0.338 C  
HETATM   32  C   UNL     1      -9.434   4.809  67.199  1.00  0.00    -0.164 C  
ENDBRANCH  27  28
ENDBRANCH   1  27
TORSDOF 12
ENDMDL
MODEL      177
REMARK 921   NORMALIZED FREE ENERGY PREDICTED BY IDOCK:   -4.61 KCAL/MOL
REMARK 922        TOTAL FREE ENERGY PREDICTED BY IDOCK:   -9.89 KCAL/MOL
REMARK 923 INTER-LIGAND FREE ENERGY PREDICTED BY IDOCK:   -8.65 KCAL/MOL
REMARK 924 INTRA-LIGAND FREE ENERGY PREDICTED BY IDOCK:   -1.24 KCAL/MOL
REMARK 927      BINDING AFFINITY PREDICTED BY RF-SCORE:    0.00 PKD
ROOT
HETATM    1  C   UNL     1      -9.957  12.114  67.447  1.00  0.00    -0.199 C  
ENDROOT
BRANCH   1   2
HETATM    2  C   UNL     1      -9.004  13.176  66.806  1.00  0.00    -0.176 C  
HETATM    3  O   UNL     1      -7.626  12.814  66.972  1.00  0.00    -0.354 OA 
HETATM    4  H   UNL     1      -7.047  13.459  66.582  1.00  0.00     0.000 HD 
BRANCH   2   5
HETATM    5  C   UNL     1      -9.265  14.601  67.300  1.00  0.00    -0.212 A  
HETATM    6  C   UNL     1     -10.379  18.958  66.115  1.00  0.00    -0.460 C  
HETATM    7  C   UNL     1      -9.466  16.975  66.791  1.00  0.00    -0.258 A  
HETATM    8  C   UNL     1      -9.734  14.879  68.599  1.00  0.00    -0.226 A  
HETATM    9  C   UNL     1      -9.919  17.238  68.085  1.00  0.00    -0.303 A  
HETATM   10  C   UNL     1     -10.158  19.499  67.519  1.00  0.00    -0.406 C  
HETATM   11  C   UNL     1      -9.101  15.681  66.411  1.00  0.00    -0.355 A  
HETATM   12  O   UNL     1     -10.314  18.478  68.515  1.00  0.00    -0.361 OA 
HETATM   13  O   UNL     1      -9.408  17.946  65.822  1.00  0.00    -0.507 OA 
HETATM   14  C   UNL     1     -10.033  16.190  68.995  1.00  0.00    -0.242 A  
ENDBRANCH   2   5
ENDBRANCH   1   2
BRANCH   1  15
HETATM   15  N   UNL     1      -9.133  11.004  67.955  1.00  0.00    -0.147 NA 
HETATM   16  H   UNL     1      -8.578  10.495  67.266  1.00  0.00     0.000 HD 
BRANCH  15  17
HETATM   17  C   UNL     1      -9.040  10.611  69.162  1.00  0.00    -0.139 C  
HETATM   18  H   UNL     1      -7.841  10.185  70.758  1.00  0.00     0.000 HD 
HETATM   19  O   UNL     1      -7.910  10.479  69.856  1.00  0.00    -0.117 OA 
BRANCH  17  20
HETATM   20  C   UNL     1     -10.281  10.237  69.933  1.00  0.00    -0.250 C  
BRANCH  20  21
HETATM   21  C   UNL     1     -10.054   9.065  70.883  1.00  0.00    -0.329 C  
BRANCH  21  22
HETATM   22  C   UNL     1      -9.959   7.717  70.166  1.00  0.00    -0.186 C  
BRANCH  22  23
HETATM   23  C   UNL     1     -11.160   6.833  70.507  1.00  0.00    -0.346 C  
BRANCH  23  24
HETATM   24  C   UNL     1     -10.748   5.380  70.741  1.00  0.00    -0.252 C  
BRANCH  24  25
HETATM   25  C   UNL     1     -10.116   5.204  72.122  1.00  0.00    -0.247 C  
HETATM   26  C   UNL     1     -11.164   4.908  73.182  1.00  0.00    -0.403 C  
ENDBRANCH  24  25
ENDBRANCH  23  24
ENDBRANCH  22  23
ENDBRANCH  21  22
ENDBRANCH  20  21
ENDBRANCH  17  20
ENDBRANCH  15  17
ENDBRANCH   1  15
BRANCH   1  27
HETATM   27  C   UNL     1     -10.981  11.408  66.491  1.00  0.00    -0.272 C  
BRANCH  27  28
HETATM   28  N   UNL     1     -12.063  12.150  65.798  1.00  0.00    -0.554 NA 
HETATM   29  C   UNL     1     -11.605  12.536  64.442  1.00  0.00    -0.358 C  
HETATM   30  C   UNL     1     -12.406  13.398  66.482  1.00  0.00    -0.295 C  
HETATM   31  C   UNL     1     -12.093  13.952  64.168  1.00  0.00    -0.464 C  
HETATM   32  C   UNL     1     -12.859  14.363  65.404  1.00  0.00    -0.235 C  
ENDBRANCH  27  28
ENDBRANCH   1  27
TORSDOF 12
ENDMDL
MODEL      178
REMARK 921   NORMALIZED FREE ENERGY PREDICTED BY IDOCK:   -4.61 KCAL/MOL
REMARK 922        TOTAL FREE ENERGY PREDICTED BY IDOCK:   -9.89 KCAL/MOL
REMARK 923 INTER-LIGAND FREE ENERGY PREDICTED BY IDOCK:   -8.33 KCAL/MOL
REMARK 924 INTRA-LIGAND FREE ENERGY PREDICTED BY IDOCK:   -1.57 KCAL/MOL
REMARK 927      BINDING AFFINITY PREDICTED BY RF-SCORE:    0.00 PKD
ROOT
HETATM    1  C   UNL     1     -10.847   9.481  70.321  1.00  0.00    -0.269 C  
ENDROOT
BRANCH   1   2
HETATM    2  C   UNL     1     -11.842  10.644  69.998  1.00  0.00    -0.322 C  
HETATM    3  O   UNL     1     -13.205  10.232  70.169  1.00  0.00    -0.526 OA 
HETATM    4  H   UNL     1     -13.810  10.939  69.973  1.00  0.00     0.000 HD 
BRANCH   2   5
HETATM    5  C   UNL     1     -11.620  11.264  68.616  1.00  0.00    -0.384 A  
HETATM    6  C   UNL     1     -10.669  15.141  66.229  1.00  0.00    -0.320 C  
HETATM    7  C   UNL     1     -11.505  13.263  67.228  1.00  0.00    -0.338 A  
HETATM    8  C   UNL     1     -11.142  10.522  67.519  1.00  0.00    -0.358 A  
HETATM    9  C   UNL     1     -11.043  12.513  66.146  1.00  0.00    -0.298 A  
HETATM   10  C   UNL     1     -10.886  14.478  64.879  1.00  0.00    -0.421 C  
HETATM   11  C   UNL     1     -11.834  12.645  68.438  1.00  0.00    -0.347 A  
HETATM   12  O   UNL     1     -10.682  13.060  64.941  1.00  0.00    -0.302 OA 
HETATM   13  O   UNL     1     -11.610  14.632  67.182  1.00  0.00    -0.363 OA 
HETATM   14  C   UNL     1     -10.880  11.138  66.287  1.00  0.00    -0.266 A  
ENDBRANCH   2   5
ENDBRANCH   1   2
BRANCH   1  15
HETATM   15  N   UNL     1     -10.933   9.189  71.762  1.00  0.00    -0.370 NA 
HETATM   16  H   UNL     1     -10.420   9.814  72.385  1.00  0.00     0.000 HD 
BRANCH  15  17
HETATM   17  C   UNL     1     -11.578   8.240  72.312  1.00  0.00    -0.383 C  
HETATM   18  H   UNL     1     -13.359   7.275  72.565  1.00  0.00     0.000 HD 
HETATM   19  O   UNL     1     -12.876   7.983  72.154  1.00  0.00    -0.301 OA 
BRANCH  17  20
HETATM   20  C   UNL     1     -10.874   7.290  73.248  1.00  0.00    -0.404 C  
BRANCH  20  21
HETATM   21  C   UNL     1     -10.841   5.859  72.720  1.00  0.00    -0.289 C  
BRANCH  21  22
HETATM   22  C   UNL     1      -9.672   5.594  71.768  1.00  0.00    -0.192 C  
BRANCH  22  23
HETATM   23  C   UNL     1     -10.165   4.975  70.459  1.00  0.00    -0.316 C  
BRANCH  23  24
HETATM   24  C   UNL     1     -10.967   5.975  69.626  1.00  0.00    -0.470 C  
BRANCH  24  25
HETATM   25  C   UNL     1     -10.418   6.070  68.202  1.00  0.00    -0.292 C  
HETATM   26  C   UNL     1      -9.487   4.912  67.884  1.00  0.00    -0.172 C  
ENDBRANCH  24  25
ENDBRANCH  23  24
ENDBRANCH  22  23
ENDBRANCH  21  22
ENDBRANCH  20  21
ENDBRANCH  17  20
ENDBRANCH  15  17
ENDBRANCH   1  15
BRANCH   1  27
HETATM   27  C   UNL     1      -9.322   9.765  70.090  1.00  0.00    -0.215 C  
BRANCH  27  28
HETATM   28  N   UNL     1      -8.537   9.083  69.032  1.00  0.00    -0.132 NA 
HETATM   29  C   UNL     1      -7.651   8.070  69.651  1.00  0.00    -0.096 C  
HETATM   30  C   UNL     1      -7.659  10.005  68.310  1.00  0.00    -0.084 C  
HETATM   31  C   UNL     1      -6.305   8.127  68.941  1.00  0.00    -0.040 C  
HETATM   32  C   UNL     1      -6.451   9.196  67.883  1.00  0.00    -0.056 C  
ENDBRANCH  27  28
ENDBRANCH   1  27
TORSDOF 12
ENDMDL
MODEL      179
REMARK 921   NORMALIZED FREE ENERGY PREDICTED BY IDOCK:   -4.60 KCAL/MOL
REMARK 922        TOTAL FREE ENERGY PREDICTED BY IDOCK:   -9.88 KCAL/MOL
REMARK 923 INTER-LIGAND FREE ENERGY PREDICTED BY IDOCK:   -7.33 KCAL/MOL
REMARK 924 INTRA-LIGAND FREE ENERGY PREDICTED BY IDOCK:   -2.55 KCAL/MOL
REMARK 927      BINDING AFFINITY PREDICTED BY RF-SCORE:    0.00 PKD
ROOT
HETATM    1  C   UNL     1     -10.581   9.333  70.255  1.00  0.00    -0.235 C  
ENDROOT
BRANCH   1   2
HETATM    2  C   UNL     1      -9.267   8.725  69.663  1.00  0.00    -0.150 C  
HETATM    3  O   UNL     1      -8.415   9.743  69.120  1.00  0.00    -0.124 OA 
HETATM    4  H   UNL     1      -7.616   9.373  68.760  1.00  0.00     0.000 HD 
BRANCH   2   5
HETATM    5  C   UNL     1      -9.521   7.613  68.642  1.00  0.00    -0.151 A  
HETATM    6  C   UNL     1      -8.379   3.332  67.227  1.00  0.00    -0.088 C  
HETATM    7  C   UNL     1      -8.765   5.558  67.573  1.00  0.00    -0.107 A  
HETATM    8  C   UNL     1     -10.756   7.455  67.984  1.00  0.00    -0.191 A  
HETATM    9  C   UNL     1      -9.990   5.420  66.918  1.00  0.00    -0.184 A  
HETATM   10  C   UNL     1      -9.236   3.414  65.973  1.00  0.00    -0.161 C  
HETATM   11  C   UNL     1      -8.512   6.662  68.392  1.00  0.00    -0.125 A  
HETATM   12  O   UNL     1     -10.310   4.352  66.121  1.00  0.00    -0.242 OA 
HETATM   13  O   UNL     1      -7.779   4.606  67.494  1.00  0.00    -0.088 OA 
HETATM   14  C   UNL     1     -10.979   6.382  67.109  1.00  0.00    -0.476 A  
ENDBRANCH   2   5
ENDBRANCH   1   2
BRANCH   1  15
HETATM   15  N   UNL     1     -10.532  10.795  70.077  1.00  0.00    -0.435 NA 
HETATM   16  H   UNL     1      -9.635  11.246  70.254  1.00  0.00     0.000 HD 
BRANCH  15  17
HETATM   17  C   UNL     1     -11.491  11.554  69.725  1.00  0.00    -0.286 C  
HETATM   18  H   UNL     1     -12.984  12.830  70.281  1.00  0.00     0.000 HD 
HETATM   19  O   UNL     1     -12.268  12.263  70.544  1.00  0.00    -0.360 OA 
BRANCH  17  20
HETATM   20  C   UNL     1     -11.841  11.703  68.265  1.00  0.00    -0.335 C  
BRANCH  20  21
HETATM   21  C   UNL     1     -10.612  11.703  67.362  1.00  0.00    -0.257 C  
BRANCH  21  22
HETATM   22  C   UNL     1     -10.774  10.821  66.122  1.00  0.00    -0.187 C  
BRANCH  22  23
HETATM   23  C   UNL     1      -9.444  10.671  65.382  1.00  0.00    -0.263 C  
BRANCH  23  24
HETATM   24  C   UNL     1      -9.098   9.204  65.127  1.00  0.00    -0.234 C  
BRANCH  24  25
HETATM   25  C   UNL     1      -7.585   9.004  65.035  1.00  0.00    -0.103 C  
HETATM   26  C   UNL     1      -6.842   9.904  66.007  1.00  0.00    -0.099 C  
ENDBRANCH  24  25
ENDBRANCH  23  24
ENDBRANCH  22  23
ENDBRANCH  21  22
ENDBRANCH  20  21
ENDBRANCH  17  20
ENDBRANCH  15  17
ENDBRANCH   1  15
BRANCH   1  27
HETATM   27  C   UNL     1     -10.816   9.155  71.795  1.00  0.00    -0.345 C  
BRANCH  27  28
HETATM   28  N   UNL     1     -12.013   8.471  72.343  1.00  0.00    -0.380 NA 
HETATM   29  C   UNL     1     -12.344   7.302  71.494  1.00  0.00    -0.362 C  
HETATM   30  C   UNL     1     -13.198   9.330  72.331  1.00  0.00    -0.426 C  
HETATM   31  C   UNL     1     -13.858   7.246  71.343  1.00  0.00    -0.416 C  
HETATM   32  C   UNL     1     -14.388   8.411  72.145  1.00  0.00    -0.520 C  
ENDBRANCH  27  28
ENDBRANCH   1  27
TORSDOF 12
ENDMDL
MODEL      180
REMARK 921   NORMALIZED FREE ENERGY PREDICTED BY IDOCK:   -4.60 KCAL/MOL
REMARK 922        TOTAL FREE ENERGY PREDICTED BY IDOCK:   -9.88 KCAL/MOL
REMARK 923 INTER-LIGAND FREE ENERGY PREDICTED BY IDOCK:   -8.29 KCAL/MOL
REMARK 924 INTRA-LIGAND FREE ENERGY PREDICTED BY IDOCK:   -1.59 KCAL/MOL
REMARK 927      BINDING AFFINITY PREDICTED BY RF-SCORE:    0.00 PKD
ROOT
HETATM    1  C   UNL     1      -9.954  15.407  69.270  1.00  0.00    -0.256 C  
ENDROOT
BRANCH   1   2
HETATM    2  C   UNL     1     -11.257  14.738  68.722  1.00  0.00    -0.270 C  
HETATM    3  O   UNL     1     -12.277  15.711  68.458  1.00  0.00    -0.525 OA 
HETATM    4  H   UNL     1     -13.069  15.304  68.125  1.00  0.00     0.000 HD 
BRANCH   2   5
HETATM    5  C   UNL     1     -11.783  13.614  69.619  1.00  0.00    -0.383 A  
HETATM    6  C   UNL     1     -11.333   9.167  70.904  1.00  0.00    -0.295 C  
HETATM    7  C   UNL     1     -11.909  11.230  70.108  1.00  0.00    -0.364 A  
HETATM    8  C   UNL     1     -12.423  13.861  70.849  1.00  0.00    -0.447 A  
HETATM    9  C   UNL     1     -12.552  11.489  71.319  1.00  0.00    -0.347 A  
HETATM   10  C   UNL     1     -12.583   9.190  71.770  1.00  0.00    -0.370 C  
HETATM   11  C   UNL     1     -11.565  12.273  69.244  1.00  0.00    -0.383 A  
HETATM   12  O   UNL     1     -12.895  10.515  72.221  1.00  0.00    -0.310 OA 
HETATM   13  O   UNL     1     -11.536   9.964  69.731  1.00  0.00    -0.221 OA 
HETATM   14  C   UNL     1     -12.826  12.806  71.679  1.00  0.00    -0.363 A  
ENDBRANCH   2   5
ENDBRANCH   1   2
BRANCH   1  15
HETATM   15  N   UNL     1      -9.554  16.470  68.333  1.00  0.00    -0.226 NA 
HETATM   16  H   UNL     1      -9.790  16.325  67.351  1.00  0.00     0.000 HD 
BRANCH  15  17
HETATM   17  C   UNL     1      -8.944  17.550  68.617  1.00  0.00    -0.260 C  
HETATM   18  H   UNL     1      -7.189  18.474  69.099  1.00  0.00     0.000 HD 
HETATM   19  O   UNL     1      -7.644  17.667  68.886  1.00  0.00    -0.269 OA 
BRANCH  17  20
HETATM   20  C   UNL     1      -9.703  18.852  68.684  1.00  0.00    -0.454 C  
BRANCH  20  21
HETATM   21  C   UNL     1     -10.277  19.269  67.333  1.00  0.00    -0.514 C  
BRANCH  21  22
HETATM   22  C   UNL     1      -9.205  19.694  66.327  1.00  0.00    -0.437 C  
BRANCH  22  23
HETATM   23  C   UNL     1      -8.125  20.539  67.006  1.00  0.00    -0.324 C  
BRANCH  23  24
HETATM   24  C   UNL     1      -6.725  20.166  66.521  1.00  0.00    -0.252 C  
BRANCH  24  25
HETATM   25  C   UNL     1      -6.766  18.930  65.621  1.00  0.00    -0.310 C  
HETATM   26  C   UNL     1      -5.673  17.938  65.982  1.00  0.00    -0.244 C  
ENDBRANCH  24  25
ENDBRANCH  23  24
ENDBRANCH  22  23
ENDBRANCH  21  22
ENDBRANCH  20  21
ENDBRANCH  17  20
ENDBRANCH  15  17
ENDBRANCH   1  15
BRANCH   1  27
HETATM   27  C   UNL     1      -8.677  14.502  69.371  1.00  0.00     0.215 C  
BRANCH  27  28
HETATM   28  N   UNL     1      -7.837  14.179  68.192  1.00  0.00    -0.129 NA 
HETATM   29  C   UNL     1      -8.226  12.853  67.657  1.00  0.00    -0.177 C  
HETATM   30  C   UNL     1      -6.417  14.079  68.534  1.00  0.00    -0.093 C  
HETATM   31  C   UNL     1      -6.954  12.114  67.267  1.00  0.00    -0.148 C  
HETATM   32  C   UNL     1      -5.821  13.063  67.581  1.00  0.00    -0.133 C  
ENDBRANCH  27  28
ENDBRANCH   1  27
TORSDOF 12
ENDMDL
MODEL      181
REMARK 921   NORMALIZED FREE ENERGY PREDICTED BY IDOCK:   -4.59 KCAL/MOL
REMARK 922        TOTAL FREE ENERGY PREDICTED BY IDOCK:   -9.87 KCAL/MOL
REMARK 923 INTER-LIGAND FREE ENERGY PREDICTED BY IDOCK:   -8.13 KCAL/MOL
REMARK 924 INTRA-LIGAND FREE ENERGY PREDICTED BY IDOCK:   -1.75 KCAL/MOL
REMARK 927      BINDING AFFINITY PREDICTED BY RF-SCORE:    0.00 PKD
ROOT
HETATM    1  C   UNL     1     -10.079  11.575  67.843  1.00  0.00    -0.189 C  
ENDROOT
BRANCH   1   2
HETATM    2  C   UNL     1     -10.682  12.865  68.489  1.00  0.00    -0.254 C  
HETATM    3  O   UNL     1     -12.098  12.746  68.678  1.00  0.00    -0.273 OA 
HETATM    4  H   UNL     1     -12.465  13.530  69.071  1.00  0.00     0.000 HD 
BRANCH   2   5
HETATM    5  C   UNL     1     -10.330  14.145  67.727  1.00  0.00    -0.242 A  
HETATM    6  C   UNL     1     -10.200  18.793  67.834  1.00  0.00    -0.396 C  
HETATM    7  C   UNL     1     -10.558  16.561  67.501  1.00  0.00    -0.313 A  
HETATM    8  C   UNL     1      -9.346  14.183  66.721  1.00  0.00    -0.295 A  
HETATM    9  C   UNL     1      -9.589  16.582  66.497  1.00  0.00    -0.271 A  
HETATM   10  C   UNL     1      -9.799  18.911  66.372  1.00  0.00    -0.375 C  
HETATM   11  C   UNL     1     -10.960  15.355  68.082  1.00  0.00    -0.297 A  
HETATM   12  O   UNL     1      -9.134  17.731  65.903  1.00  0.00    -0.516 OA 
HETATM   13  O   UNL     1     -11.121  17.708  68.003  1.00  0.00    -0.219 OA 
HETATM   14  C   UNL     1      -8.997  15.388  66.094  1.00  0.00    -0.294 A  
ENDBRANCH   2   5
ENDBRANCH   1   2
BRANCH   1  15
HETATM   15  N   UNL     1     -10.985  11.132  66.769  1.00  0.00    -0.271 NA 
HETATM   16  H   UNL     1     -11.885  10.749  67.061  1.00  0.00     0.000 HD 
BRANCH  15  17
HETATM   17  C   UNL     1     -10.765  11.177  65.516  1.00  0.00    -0.185 C  
HETATM   18  H   UNL     1     -11.065  12.133  63.738  1.00  0.00     0.000 HD 
HETATM   19  O   UNL     1     -11.229  12.100  64.674  1.00  0.00    -0.305 OA 
BRANCH  17  20
HETATM   20  C   UNL     1      -9.919  10.115  64.858  1.00  0.00    -0.358 C  
BRANCH  20  21
HETATM   21  C   UNL     1      -8.453  10.191  65.271  1.00  0.00    -0.165 C  
BRANCH  21  22
HETATM   22  C   UNL     1      -7.962   8.932  65.989  1.00  0.00    -0.106 C  
BRANCH  22  23
HETATM   23  C   UNL     1      -8.944   7.776  65.795  1.00  0.00    -0.109 C  
BRANCH  23  24
HETATM   24  C   UNL     1      -9.191   7.017  67.099  1.00  0.00    -0.153 C  
BRANCH  24  25
HETATM   25  C   UNL     1     -10.682   6.966  67.432  1.00  0.00    -0.396 C  
HETATM   26  C   UNL     1     -10.923   6.449  68.840  1.00  0.00    -0.412 C  
ENDBRANCH  24  25
ENDBRANCH  23  24
ENDBRANCH  22  23
ENDBRANCH  21  22
ENDBRANCH  20  21
ENDBRANCH  17  20
ENDBRANCH  15  17
ENDBRANCH   1  15
BRANCH   1  27
HETATM   27  C   UNL     1      -9.950  10.312  68.763  1.00  0.00    -0.179 C  
BRANCH  27  28
HETATM   28  N   UNL     1     -10.362  10.321  70.188  1.00  0.00    -0.223 NA 
HETATM   29  C   UNL     1      -9.519   9.371  70.952  1.00  0.00    -0.209 C  
HETATM   30  C   UNL     1     -11.744   9.874  70.369  1.00  0.00    -0.258 C  
HETATM   31  C   UNL     1     -10.416   8.635  71.937  1.00  0.00    -0.410 C  
HETATM   32  C   UNL     1     -11.800   9.203  71.727  1.00  0.00    -0.453 C  
ENDBRANCH  27  28
ENDBRANCH   1  27
TORSDOF 12
ENDMDL
MODEL      182
REMARK 921   NORMALIZED FREE ENERGY PREDICTED BY IDOCK:   -4.58 KCAL/MOL
REMARK 922        TOTAL FREE ENERGY PREDICTED BY IDOCK:   -9.85 KCAL/MOL
REMARK 923 INTER-LIGAND FREE ENERGY PREDICTED BY IDOCK:   -8.03 KCAL/MOL
REMARK 924 INTRA-LIGAND FREE ENERGY PREDICTED BY IDOCK:   -1.83 KCAL/MOL
REMARK 927      BINDING AFFINITY PREDICTED BY RF-SCORE:    0.00 PKD
ROOT
HETATM    1  C   UNL     1     -11.169  11.238  68.612  1.00  0.00    -0.250 C  
ENDROOT
BRANCH   1   2
HETATM    2  C   UNL     1      -9.845  10.565  69.103  1.00  0.00    -0.218 C  
HETATM    3  O   UNL     1      -8.782  11.519  69.221  1.00  0.00    -0.362 OA 
HETATM    4  H   UNL     1      -7.978  11.110  69.520  1.00  0.00     0.000 HD 
BRANCH   2   5
HETATM    5  C   UNL     1      -9.423   9.367  68.249  1.00  0.00    -0.147 A  
HETATM    6  C   UNL     1     -10.655   5.230  66.516  1.00  0.00    -0.285 C  
HETATM    7  C   UNL     1      -9.785   7.048  67.594  1.00  0.00    -0.136 A  
HETATM    8  C   UNL     1      -8.475   9.471  67.213  1.00  0.00    -0.128 A  
HETATM    9  C   UNL     1      -8.835   7.162  66.578  1.00  0.00    -0.141 A  
HETATM   10  C   UNL     1      -9.274   4.949  65.948  1.00  0.00    -0.155 C  
HETATM   11  C   UNL     1     -10.048   8.121  68.450  1.00  0.00    -0.226 A  
HETATM   12  O   UNL     1      -8.546   6.158  65.691  1.00  0.00    -0.148 OA 
HETATM   13  O   UNL     1     -10.538   5.914  67.770  1.00  0.00    -0.222 OA 
HETATM   14  C   UNL     1      -8.165   8.370  66.401  1.00  0.00    -0.109 A  
ENDBRANCH   2   5
ENDBRANCH   1   2
BRANCH   1  15
HETATM   15  N   UNL     1     -12.298  10.590  69.301  1.00  0.00    -0.711 NA 
HETATM   16  H   UNL     1     -12.881   9.971  68.737  1.00  0.00     0.000 HD 
BRANCH  15  17
HETATM   17  C   UNL     1     -12.624  10.721  70.524  1.00  0.00    -0.336 C  
HETATM   18  H   UNL     1     -13.035  11.973  72.083  1.00  0.00     0.000 HD 
HETATM   19  O   UNL     1     -12.792  11.875  71.169  1.00  0.00    -0.343 OA 
BRANCH  17  20
HETATM   20  C   UNL     1     -12.846   9.501  71.382  1.00  0.00    -0.443 C  
BRANCH  20  21
HETATM   21  C   UNL     1     -11.545   8.801  71.759  1.00  0.00    -0.416 C  
BRANCH  21  22
HETATM   22  C   UNL     1     -11.759   7.410  72.359  1.00  0.00    -0.306 C  
BRANCH  22  23
HETATM   23  C   UNL     1     -11.020   6.346  71.546  1.00  0.00    -0.310 C  
BRANCH  23  24
HETATM   24  C   UNL     1      -9.509   6.410  71.768  1.00  0.00    -0.159 C  
BRANCH  24  25
HETATM   25  C   UNL     1      -8.775   5.448  70.833  1.00  0.00    -0.140 C  
HETATM   26  C   UNL     1      -9.539   4.147  70.657  1.00  0.00    -0.264 C  
ENDBRANCH  24  25
ENDBRANCH  23  24
ENDBRANCH  22  23
ENDBRANCH  21  22
ENDBRANCH  20  21
ENDBRANCH  17  20
ENDBRANCH  15  17
ENDBRANCH   1  15
BRANCH   1  27
HETATM   27  C   UNL     1     -11.524  11.085  67.092  1.00  0.00    -0.015 C  
BRANCH  27  28
HETATM   28  N   UNL     1     -12.104  12.193  66.295  1.00  0.00    -0.589 NA 
HETATM   29  C   UNL     1     -11.435  12.253  64.974  1.00  0.00    -0.336 C  
HETATM   30  C   UNL     1     -11.886  13.499  66.920  1.00  0.00    -0.407 C  
HETATM   31  C   UNL     1     -11.208  13.718  64.629  1.00  0.00    -0.383 C  
HETATM   32  C   UNL     1     -11.782  14.501  65.788  1.00  0.00    -0.344 C  
ENDBRANCH  27  28
ENDBRANCH   1  27
TORSDOF 12
ENDMDL
MODEL      183
REMARK 921   NORMALIZED FREE ENERGY PREDICTED BY IDOCK:   -4.58 KCAL/MOL
REMARK 922        TOTAL FREE ENERGY PREDICTED BY IDOCK:   -9.84 KCAL/MOL
REMARK 923 INTER-LIGAND FREE ENERGY PREDICTED BY IDOCK:   -7.64 KCAL/MOL
REMARK 924 INTRA-LIGAND FREE ENERGY PREDICTED BY IDOCK:   -2.20 KCAL/MOL
REMARK 927      BINDING AFFINITY PREDICTED BY RF-SCORE:    0.00 PKD
ROOT
HETATM    1  C   UNL     1      -9.436   7.798  67.845  1.00  0.00    -0.144 C  
ENDROOT
BRANCH   1   2
HETATM    2  C   UNL     1     -10.252   8.634  66.805  1.00  0.00    -0.291 C  
HETATM    3  O   UNL     1      -9.551   8.752  65.560  1.00  0.00    -0.452 OA 
HETATM    4  H   UNL     1     -10.047   9.260  64.927  1.00  0.00     0.000 HD 
BRANCH   2   5
HETATM    5  C   UNL     1     -10.678  10.007  67.333  1.00  0.00    -0.336 A  
HETATM    6  C   UNL     1     -11.508  14.461  66.285  1.00  0.00    -0.359 C  
HETATM    7  C   UNL     1     -10.781  12.419  67.009  1.00  0.00    -0.239 A  
HETATM    8  C   UNL     1     -11.506  10.162  68.461  1.00  0.00    -0.098 A  
HETATM    9  C   UNL     1     -11.591  12.560  68.136  1.00  0.00    -0.340 A  
HETATM   10  C   UNL     1     -11.712  14.865  67.736  1.00  0.00    -0.317 C  
HETATM   11  C   UNL     1     -10.291  11.166  66.632  1.00  0.00    -0.286 A  
HETATM   12  O   UNL     1     -12.122  13.755  68.546  1.00  0.00    -0.363 OA 
HETATM   13  O   UNL     1     -10.470  13.478  66.191  1.00  0.00    -0.286 OA 
HETATM   14  C   UNL     1     -11.937  11.431  68.874  1.00  0.00    -0.371 A  
ENDBRANCH   2   5
ENDBRANCH   1   2
BRANCH   1  15
HETATM   15  N   UNL     1      -8.329   8.634  68.341  1.00  0.00    -0.125 NA 
HETATM   16  H   UNL     1      -7.763   9.107  67.636  1.00  0.00     0.000 HD 
BRANCH  15  17
HETATM   17  C   UNL     1      -8.004   8.830  69.556  1.00  0.00    -0.096 C  
HETATM   18  H   UNL     1      -6.634   8.568  71.046  1.00  0.00     0.000 HD 
HETATM   19  O   UNL     1      -6.876   8.423  70.139  1.00  0.00    -0.041 OA 
BRANCH  17  20
HETATM   20  C   UNL     1      -8.937   9.574  70.478  1.00  0.00    -0.265 C  
BRANCH  20  21
HETATM   21  C   UNL     1      -9.409   8.722  71.652  1.00  0.00    -0.345 C  
BRANCH  21  22
HETATM   22  C   UNL     1     -10.563   7.784  71.292  1.00  0.00    -0.241 C  
BRANCH  22  23
HETATM   23  C   UNL     1     -11.738   7.970  72.254  1.00  0.00    -0.428 C  
BRANCH  23  24
HETATM   24  C   UNL     1     -12.594   9.178  71.876  1.00  0.00    -0.463 C  
BRANCH  24  25
HETATM   25  C   UNL     1     -14.062   8.783  71.715  1.00  0.00    -0.468 C  
HETATM   26  C   UNL     1     -14.222   7.280  71.559  1.00  0.00    -0.540 C  
ENDBRANCH  24  25
ENDBRANCH  23  24
ENDBRANCH  22  23
ENDBRANCH  21  22
ENDBRANCH  20  21
ENDBRANCH  17  20
ENDBRANCH  15  17
ENDBRANCH   1  15
BRANCH   1  27
HETATM   27  C   UNL     1      -8.717   6.509  67.315  1.00  0.00    -0.110 C  
BRANCH  27  28
HETATM   28  N   UNL     1      -8.873   5.186  67.968  1.00  0.00    -0.102 NA 
HETATM   29  C   UNL     1     -10.173   5.138  68.679  1.00  0.00    -0.122 C  
HETATM   30  C   UNL     1      -7.846   4.943  68.981  1.00  0.00    -0.076 C  
HETATM   31  C   UNL     1      -9.953   4.433  70.010  1.00  0.00    -0.245 C  
HETATM   32  C   UNL     1      -8.488   4.063  70.035  1.00  0.00    -0.093 C  
ENDBRANCH  27  28
ENDBRANCH   1  27
TORSDOF 12
ENDMDL
MODEL      184
REMARK 921   NORMALIZED FREE ENERGY PREDICTED BY IDOCK:   -4.55 KCAL/MOL
REMARK 922        TOTAL FREE ENERGY PREDICTED BY IDOCK:   -9.80 KCAL/MOL
REMARK 923 INTER-LIGAND FREE ENERGY PREDICTED BY IDOCK:   -8.51 KCAL/MOL
REMARK 924 INTRA-LIGAND FREE ENERGY PREDICTED BY IDOCK:   -1.29 KCAL/MOL
REMARK 927      BINDING AFFINITY PREDICTED BY RF-SCORE:    0.00 PKD
ROOT
HETATM    1  C   UNL     1     -11.586  14.605  68.283  1.00  0.00    -0.326 C  
ENDROOT
BRANCH   1   2
HETATM    2  C   UNL     1     -12.020  13.168  67.845  1.00  0.00    -0.303 C  
HETATM    3  O   UNL     1     -11.629  12.184  68.812  1.00  0.00    -0.277 OA 
HETATM    4  H   UNL     1     -11.892  11.310  68.546  1.00  0.00     0.000 HD 
BRANCH   2   5
HETATM    5  C   UNL     1     -11.535  12.790  66.443  1.00  0.00    -0.409 A  
HETATM    6  C   UNL     1      -9.117   9.755  63.879  1.00  0.00    -0.233 C  
HETATM    7  C   UNL     1     -10.004  11.507  65.047  1.00  0.00    -0.263 A  
HETATM    8  C   UNL     1     -12.229  13.158  65.275  1.00  0.00    -0.502 A  
HETATM    9  C   UNL     1     -10.695  11.890  63.897  1.00  0.00    -0.395 A  
HETATM   10  C   UNL     1      -9.235  10.585  62.611  1.00  0.00    -0.309 C  
HETATM   11  C   UNL     1     -10.388  11.983  66.304  1.00  0.00    -0.253 A  
HETATM   12  O   UNL     1     -10.384  11.442  62.639  1.00  0.00    -0.035 OA 
HETATM   13  O   UNL     1      -8.961  10.615  65.014  1.00  0.00    -0.188 OA 
HETATM   14  C   UNL     1     -11.797  12.733  64.011  1.00  0.00    -0.506 A  
ENDBRANCH   2   5
ENDBRANCH   1   2
BRANCH   1  15
HETATM   15  N   UNL     1     -10.278  14.897  67.671  1.00  0.00    -0.235 NA 
HETATM   16  H   UNL     1      -9.552  14.190  67.788  1.00  0.00     0.000 HD 
BRANCH  15  17
HETATM   17  C   UNL     1      -9.957  15.938  67.013  1.00  0.00    -0.247 C  
HETATM   18  H   UNL     1     -10.278  17.123  65.382  1.00  0.00     0.000 HD 
HETATM   19  O   UNL     1     -10.518  16.346  65.874  1.00  0.00    -0.338 OA 
BRANCH  17  20
HETATM   20  C   UNL     1      -8.844  16.830  67.503  1.00  0.00    -0.205 C  
BRANCH  20  21
HETATM   21  C   UNL     1      -7.728  16.997  66.478  1.00  0.00    -0.327 C  
BRANCH  21  22
HETATM   22  C   UNL     1      -6.345  16.639  67.027  1.00  0.00    -0.222 C  
BRANCH  22  23
HETATM   23  C   UNL     1      -6.458  15.629  68.171  1.00  0.00    -0.137 C  
BRANCH  23  24
HETATM   24  C   UNL     1      -5.684  14.346  67.873  1.00  0.00    -0.118 C  
BRANCH  24  25
HETATM   25  C   UNL     1      -6.598  13.123  67.947  1.00  0.00    -0.137 C  
HETATM   26  C   UNL     1      -6.761  12.632  69.376  1.00  0.00    -0.022 C  
ENDBRANCH  24  25
ENDBRANCH  23  24
ENDBRANCH  22  23
ENDBRANCH  21  22
ENDBRANCH  20  21
ENDBRANCH  17  20
ENDBRANCH  15  17
ENDBRANCH   1  15
BRANCH   1  27
HETATM   27  C   UNL     1     -11.339  14.839  69.814  1.00  0.00    -0.283 C  
BRANCH  27  28
HETATM   28  N   UNL     1     -12.438  15.173  70.754  1.00  0.00    -0.342 NA 
HETATM   29  C   UNL     1     -11.869  15.776  71.982  1.00  0.00    -0.490 C  
HETATM   30  C   UNL     1     -13.177  13.986  71.187  1.00  0.00    -0.267 C  
HETATM   31  C   UNL     1     -12.628  15.213  73.176  1.00  0.00    -0.585 C  
HETATM   32  C   UNL     1     -13.663  14.278  72.593  1.00  0.00    -0.555 C  
ENDBRANCH  27  28
ENDBRANCH   1  27
TORSDOF 12
ENDMDL
MODEL      185
REMARK 921   NORMALIZED FREE ENERGY PREDICTED BY IDOCK:   -4.54 KCAL/MOL
REMARK 922        TOTAL FREE ENERGY PREDICTED BY IDOCK:   -9.78 KCAL/MOL
REMARK 923 INTER-LIGAND FREE ENERGY PREDICTED BY IDOCK:   -8.57 KCAL/MOL
REMARK 924 INTRA-LIGAND FREE ENERGY PREDICTED BY IDOCK:   -1.21 KCAL/MOL
REMARK 927      BINDING AFFINITY PREDICTED BY RF-SCORE:    0.00 PKD
ROOT
HETATM    1  C   UNL     1     -11.100  11.716  68.522  1.00  0.00    -0.235 C  
ENDROOT
BRANCH   1   2
HETATM    2  C   UNL     1     -12.052  11.640  69.761  1.00  0.00    -0.289 C  
HETATM    3  O   UNL     1     -12.023  12.856  70.521  1.00  0.00    -0.490 OA 
HETATM    4  H   UNL     1     -12.602  12.810  71.274  1.00  0.00     0.000 HD 
BRANCH   2   5
HETATM    5  C   UNL     1     -11.790  10.423  70.652  1.00  0.00    -0.445 A  
HETATM    6  C   UNL     1      -8.765   8.258  73.443  1.00  0.00    -0.204 C  
HETATM    7  C   UNL     1     -10.188   9.007  71.819  1.00  0.00    -0.319 A  
HETATM    8  C   UNL     1     -12.824   9.718  71.296  1.00  0.00    -0.472 A  
HETATM    9  C   UNL     1     -11.223   8.308  72.442  1.00  0.00    -0.381 A  
HETATM   10  C   UNL     1      -9.637   7.022  73.590  1.00  0.00    -0.225 C  
HETATM   11  C   UNL     1     -10.462  10.024  70.901  1.00  0.00    -0.037 A  
HETATM   12  O   UNL     1     -11.023   7.317  73.368  1.00  0.00    -0.358 OA 
HETATM   13  O   UNL     1      -8.866   8.773  72.110  1.00  0.00    -0.345 OA 
HETATM   14  C   UNL     1     -12.543   8.653  72.164  1.00  0.00    -0.451 A  
ENDBRANCH   2   5
ENDBRANCH   1   2
BRANCH   1  15
HETATM   15  N   UNL     1     -11.541  12.835  67.671  1.00  0.00    -0.337 NA 
HETATM   16  H   UNL     1     -12.524  12.840  67.398  1.00  0.00     0.000 HD 
BRANCH  15  17
HETATM   17  C   UNL     1     -10.826  13.796  67.242  1.00  0.00    -0.285 C  
HETATM   18  H   UNL     1      -9.969  14.739  65.647  1.00  0.00     0.000 HD 
HETATM   19  O   UNL     1     -10.503  14.022  65.968  1.00  0.00    -0.290 OA 
BRANCH  17  20
HETATM   20  C   UNL     1     -10.251  14.801  68.208  1.00  0.00    -0.227 C  
BRANCH  20  21
HETATM   21  C   UNL     1     -11.097  16.066  68.315  1.00  0.00    -0.351 C  
BRANCH  21  22
HETATM   22  C   UNL     1     -10.353  17.329  67.875  1.00  0.00    -0.360 C  
BRANCH  22  23
HETATM   23  C   UNL     1      -9.052  17.498  68.662  1.00  0.00    -0.263 C  
BRANCH  23  24
HETATM   24  C   UNL     1      -8.001  18.265  67.861  1.00  0.00    -0.261 C  
BRANCH  24  25
HETATM   25  C   UNL     1      -7.884  19.709  68.348  1.00  0.00    -0.362 C  
HETATM   26  C   UNL     1      -7.073  20.560  67.385  1.00  0.00    -0.369 C  
ENDBRANCH  24  25
ENDBRANCH  23  24
ENDBRANCH  22  23
ENDBRANCH  21  22
ENDBRANCH  20  21
ENDBRANCH  17  20
ENDBRANCH  15  17
ENDBRANCH   1  15
BRANCH   1  27
HETATM   27  C   UNL     1     -11.101  10.487  67.548  1.00  0.00    -0.290 C  
BRANCH  27  28
HETATM   28  N   UNL     1      -9.851   9.908  66.997  1.00  0.00    -0.181 NA 
HETATM   29  C   UNL     1      -8.688  10.675  67.504  1.00  0.00    -0.125 C  
HETATM   30  C   UNL     1      -9.793   9.999  65.538  1.00  0.00    -0.303 C  
HETATM   31  C   UNL     1      -7.702  10.843  66.356  1.00  0.00    -0.154 C  
HETATM   32  C   UNL     1      -8.327  10.135  65.177  1.00  0.00    -0.163 C  
ENDBRANCH  27  28
ENDBRANCH   1  27
TORSDOF 12
ENDMDL
MODEL      186
REMARK 921   NORMALIZED FREE ENERGY PREDICTED BY IDOCK:   -4.53 KCAL/MOL
REMARK 922        TOTAL FREE ENERGY PREDICTED BY IDOCK:   -9.77 KCAL/MOL
REMARK 923 INTER-LIGAND FREE ENERGY PREDICTED BY IDOCK:   -7.64 KCAL/MOL
REMARK 924 INTRA-LIGAND FREE ENERGY PREDICTED BY IDOCK:   -2.13 KCAL/MOL
REMARK 927      BINDING AFFINITY PREDICTED BY RF-SCORE:    0.00 PKD
ROOT
HETATM    1  C   UNL     1      -9.382   9.026  66.428  1.00  0.00    -0.206 C  
ENDROOT
BRANCH   1   2
HETATM    2  C   UNL     1      -8.572   9.769  67.541  1.00  0.00    -0.125 C  
HETATM    3  O   UNL     1      -7.200   9.944  67.165  1.00  0.00    -0.085 OA 
HETATM    4  H   UNL     1      -6.707  10.395  67.841  1.00  0.00     0.000 HD 
BRANCH   2   5
HETATM    5  C   UNL     1      -8.689   9.109  68.918  1.00  0.00    -0.132 A  
HETATM    6  C   UNL     1     -11.487   8.104  72.494  1.00  0.00    -0.404 C  
HETATM    7  C   UNL     1      -9.926   8.849  71.001  1.00  0.00    -0.256 A  
HETATM    8  C   UNL     1      -7.860   8.045  69.322  1.00  0.00    -0.114 A  
HETATM    9  C   UNL     1      -9.089   7.803  71.394  1.00  0.00    -0.134 A  
HETATM   10  C   UNL     1     -10.357   7.552  73.348  1.00  0.00    -0.350 C  
HETATM   11  C   UNL     1      -9.706   9.527  69.798  1.00  0.00    -0.234 A  
HETATM   12  O   UNL     1      -9.263   7.084  72.548  1.00  0.00    -0.138 OA 
HETATM   13  O   UNL     1     -11.023   9.227  71.735  1.00  0.00    -0.369 OA 
HETATM   14  C   UNL     1      -8.043   7.415  70.561  1.00  0.00    -0.104 A  
ENDBRANCH   2   5
ENDBRANCH   1   2
BRANCH   1  15
HETATM   15  N   UNL     1      -9.956  10.038  65.524  1.00  0.00    -0.303 NA 
HETATM   16  H   UNL     1     -10.868  10.415  65.783  1.00  0.00     0.000 HD 
BRANCH  15  17
HETATM   17  C   UNL     1      -9.436  10.491  64.455  1.00  0.00    -0.276 C  
HETATM   18  H   UNL     1      -7.765  10.724  63.306  1.00  0.00     0.000 HD 
HETATM   19  O   UNL     1      -8.154  10.385  64.104  1.00  0.00    -0.156 OA 
BRANCH  17  20
HETATM   20  C   UNL     1     -10.287  11.233  63.456  1.00  0.00    -0.463 C  
BRANCH  20  21
HETATM   21  C   UNL     1     -11.562  11.799  64.072  1.00  0.00    -0.428 C  
BRANCH  21  22
HETATM   22  C   UNL     1     -11.541  13.322  64.211  1.00  0.00    -0.444 C  
BRANCH  22  23
HETATM   23  C   UNL     1     -12.565  13.789  65.247  1.00  0.00    -0.510 C  
BRANCH  23  24
HETATM   24  C   UNL     1     -11.902  14.165  66.572  1.00  0.00    -0.439 C  
BRANCH  24  25
HETATM   25  C   UNL     1     -11.811  12.955  67.503  1.00  0.00    -0.407 C  
HETATM   26  C   UNL     1     -10.404  12.771  68.044  1.00  0.00    -0.232 C  
ENDBRANCH  24  25
ENDBRANCH  23  24
ENDBRANCH  22  23
ENDBRANCH  21  22
ENDBRANCH  20  21
ENDBRANCH  17  20
ENDBRANCH  15  17
ENDBRANCH   1  15
BRANCH   1  27
HETATM   27  C   UNL     1     -10.627   8.193  66.891  1.00  0.00    -0.241 C  
BRANCH  27  28
HETATM   28  N   UNL     1     -10.627   6.709  66.913  1.00  0.00    -0.298 NA 
HETATM   29  C   UNL     1     -10.952   6.237  68.280  1.00  0.00    -0.321 C  
HETATM   30  C   UNL     1      -9.314   6.150  66.592  1.00  0.00    -0.146 C  
HETATM   31  C   UNL     1     -10.052   5.050  68.593  1.00  0.00    -0.191 C  
HETATM   32  C   UNL     1      -9.208   4.845  67.356  1.00  0.00    -0.136 C  
ENDBRANCH  27  28
ENDBRANCH   1  27
TORSDOF 12
ENDMDL
MODEL      187
REMARK 921   NORMALIZED FREE ENERGY PREDICTED BY IDOCK:   -4.53 KCAL/MOL
REMARK 922        TOTAL FREE ENERGY PREDICTED BY IDOCK:   -9.76 KCAL/MOL
REMARK 923 INTER-LIGAND FREE ENERGY PREDICTED BY IDOCK:   -8.27 KCAL/MOL
REMARK 924 INTRA-LIGAND FREE ENERGY PREDICTED BY IDOCK:   -1.49 KCAL/MOL
REMARK 927      BINDING AFFINITY PREDICTED BY RF-SCORE:    0.00 PKD
ROOT
HETATM    1  C   UNL     1     -10.582  12.487  67.034  1.00  0.00    -0.232 C  
ENDROOT
BRANCH   1   2
HETATM    2  C   UNL     1      -9.479  11.632  67.741  1.00  0.00    -0.178 C  
HETATM    3  O   UNL     1      -8.853  10.722  66.826  1.00  0.00    -0.138 OA 
HETATM    4  H   UNL     1      -8.183  10.203  67.256  1.00  0.00     0.000 HD 
BRANCH   2   5
HETATM    5  C   UNL     1      -9.985  10.904  68.989  1.00  0.00    -0.206 A  
HETATM    6  C   UNL     1     -13.704   9.439  71.366  1.00  0.00    -0.243 C  
HETATM    7  C   UNL     1     -11.824  10.417  70.510  1.00  0.00    -0.337 A  
HETATM    8  C   UNL     1      -9.226   9.922  69.654  1.00  0.00    -0.246 A  
HETATM    9  C   UNL     1     -11.057   9.454  71.168  1.00  0.00    -0.362 A  
HETATM   10  C   UNL     1     -12.881   8.979  72.558  1.00  0.00    -0.338 C  
HETATM   11  C   UNL     1     -11.286  11.166  69.461  1.00  0.00    -0.341 A  
HETATM   12  O   UNL     1     -11.531   8.670  72.187  1.00  0.00    -0.346 OA 
HETATM   13  O   UNL     1     -13.144  10.638  70.817  1.00  0.00    -0.341 OA 
HETATM   14  C   UNL     1      -9.749   9.222  70.750  1.00  0.00    -0.348 A  
ENDBRANCH   2   5
ENDBRANCH   1   2
BRANCH   1  15
HETATM   15  N   UNL     1     -11.120  11.704  65.908  1.00  0.00    -0.292 NA 
HETATM   16  H   UNL     1     -10.957  10.697  65.934  1.00  0.00     0.000 HD 
BRANCH  15  17
HETATM   17  C   UNL     1     -11.766  12.150  64.907  1.00  0.00    -0.313 C  
HETATM   18  H   UNL     1     -13.486  12.977  64.184  1.00  0.00     0.000 HD 
HETATM   19  O   UNL     1     -13.004  12.644  64.932  1.00  0.00    -0.830 OA 
BRANCH  17  20
HETATM   20  C   UNL     1     -11.137  12.139  63.536  1.00  0.00    -0.525 C  
BRANCH  20  21
HETATM   21  C   UNL     1     -10.218  10.943  63.319  1.00  0.00    -0.317 C  
BRANCH  21  22
HETATM   22  C   UNL     1      -8.792  11.339  62.927  1.00  0.00    -0.185 C  
BRANCH  22  23
HETATM   23  C   UNL     1      -7.783  10.298  63.416  1.00  0.00    -0.126 C  
BRANCH  23  24
HETATM   24  C   UNL     1      -8.440   8.939  63.652  1.00  0.00    -0.145 C  
BRANCH  24  25
HETATM   25  C   UNL     1      -7.714   8.161  64.750  1.00  0.00    -0.123 C  
HETATM   26  C   UNL     1      -8.658   7.233  65.495  1.00  0.00    -0.090 C  
ENDBRANCH  24  25
ENDBRANCH  23  24
ENDBRANCH  22  23
ENDBRANCH  21  22
ENDBRANCH  20  21
ENDBRANCH  17  20
ENDBRANCH  15  17
ENDBRANCH   1  15
BRANCH   1  27
HETATM   27  C   UNL     1     -10.123  13.830  66.366  1.00  0.00    -0.295 C  
BRANCH  27  28
HETATM   28  N   UNL     1     -10.300  15.146  67.026  1.00  0.00    -0.266 NA 
HETATM   29  C   UNL     1      -9.117  15.438  67.870  1.00  0.00    -0.178 C  
HETATM   30  C   UNL     1     -11.455  15.167  67.924  1.00  0.00    -0.332 C  
HETATM   31  C   UNL     1      -9.610  16.064  69.167  1.00  0.00    -0.257 C  
HETATM   32  C   UNL     1     -11.113  16.139  69.036  1.00  0.00    -0.336 C  
ENDBRANCH  27  28
ENDBRANCH   1  27
TORSDOF 12
ENDMDL
MODEL      188
REMARK 921   NORMALIZED FREE ENERGY PREDICTED BY IDOCK:   -4.52 KCAL/MOL
REMARK 922        TOTAL FREE ENERGY PREDICTED BY IDOCK:   -9.74 KCAL/MOL
REMARK 923 INTER-LIGAND FREE ENERGY PREDICTED BY IDOCK:   -8.88 KCAL/MOL
REMARK 924 INTRA-LIGAND FREE ENERGY PREDICTED BY IDOCK:   -0.86 KCAL/MOL
REMARK 927      BINDING AFFINITY PREDICTED BY RF-SCORE:    0.00 PKD
ROOT
HETATM    1  C   UNL     1      -9.714  13.403  66.961  1.00  0.00    -0.239 C  
ENDROOT
BRANCH   1   2
HETATM    2  C   UNL     1     -11.154  14.010  67.019  1.00  0.00    -0.304 C  
HETATM    3  O   UNL     1     -11.400  14.888  65.913  1.00  0.00    -0.340 OA 
HETATM    4  H   UNL     1     -12.275  15.257  65.948  1.00  0.00     0.000 HD 
BRANCH   2   5
HETATM    5  C   UNL     1     -11.469  14.695  68.352  1.00  0.00    -0.335 A  
HETATM    6  C   UNL     1     -13.032  14.155  72.699  1.00  0.00    -0.413 C  
HETATM    7  C   UNL     1     -12.609  14.632  70.504  1.00  0.00    -0.350 A  
HETATM    8  C   UNL     1     -10.808  15.862  68.779  1.00  0.00    -0.284 A  
HETATM    9  C   UNL     1     -11.956  15.796  70.911  1.00  0.00    -0.413 A  
HETATM   10  C   UNL     1     -13.027  15.647  72.988  1.00  0.00    -0.510 C  
HETATM   11  C   UNL     1     -12.406  14.107  69.225  1.00  0.00    -0.206 A  
HETATM   12  O   UNL     1     -12.093  16.349  72.157  1.00  0.00    -0.481 OA 
HETATM   13  O   UNL     1     -13.432  13.921  71.343  1.00  0.00    -0.321 OA 
HETATM   14  C   UNL     1     -11.069  16.422  70.038  1.00  0.00    -0.300 A  
ENDBRANCH   2   5
ENDBRANCH   1   2
BRANCH   1  15
HETATM   15  N   UNL     1      -9.834  11.937  66.902  1.00  0.00    -0.200 NA 
HETATM   16  H   UNL     1      -9.266  11.461  66.200  1.00  0.00     0.000 HD 
BRANCH  15  17
HETATM   17  C   UNL     1     -10.570  11.200  67.632  1.00  0.00    -0.211 C  
HETATM   18  H   UNL     1     -12.441  10.509  68.067  1.00  0.00     0.000 HD 
HETATM   19  O   UNL     1     -11.891  11.059  67.521  1.00  0.00    -0.571 OA 
BRANCH  17  20
HETATM   20  C   UNL     1      -9.960  10.394  68.751  1.00  0.00    -0.196 C  
BRANCH  20  21
HETATM   21  C   UNL     1     -10.956   9.439  69.401  1.00  0.00    -0.165 C  
BRANCH  21  22
HETATM   22  C   UNL     1     -11.313   9.826  70.838  1.00  0.00    -0.439 C  
BRANCH  22  23
HETATM   23  C   UNL     1     -10.759   8.803  71.832  1.00  0.00    -0.429 C  
BRANCH  23  24
HETATM   24  C   UNL     1     -11.877   8.060  72.563  1.00  0.00    -0.419 C  
BRANCH  24  25
HETATM   25  C   UNL     1     -12.554   7.043  71.643  1.00  0.00    -0.419 C  
HETATM   26  C   UNL     1     -14.047   7.301  71.527  1.00  0.00    -0.515 C  
ENDBRANCH  24  25
ENDBRANCH  23  24
ENDBRANCH  22  23
ENDBRANCH  21  22
ENDBRANCH  20  21
ENDBRANCH  17  20
ENDBRANCH  15  17
ENDBRANCH   1  15
BRANCH   1  27
HETATM   27  C   UNL     1      -8.788  13.649  68.203  1.00  0.00    -0.189 C  
BRANCH  27  28
HETATM   28  N   UNL     1      -7.512  14.400  68.107  1.00  0.00    -0.115 NA 
HETATM   29  C   UNL     1      -6.428  13.479  67.689  1.00  0.00    -0.160 C  
HETATM   30  C   UNL     1      -7.097  14.957  69.395  1.00  0.00    -0.175 C  
HETATM   31  C   UNL     1      -5.184  13.822  68.496  1.00  0.00    -0.091 C  
HETATM   32  C   UNL     1      -5.582  14.980  69.381  1.00  0.00    -0.092 C  
ENDBRANCH  27  28
ENDBRANCH   1  27
TORSDOF 12
ENDMDL
MODEL      189
REMARK 921   NORMALIZED FREE ENERGY PREDICTED BY IDOCK:   -4.51 KCAL/MOL
REMARK 922        TOTAL FREE ENERGY PREDICTED BY IDOCK:   -9.73 KCAL/MOL
REMARK 923 INTER-LIGAND FREE ENERGY PREDICTED BY IDOCK:   -8.89 KCAL/MOL
REMARK 924 INTRA-LIGAND FREE ENERGY PREDICTED BY IDOCK:   -0.85 KCAL/MOL
REMARK 927      BINDING AFFINITY PREDICTED BY RF-SCORE:    0.00 PKD
ROOT
HETATM    1  C   UNL     1     -11.790  13.247  67.725  1.00  0.00    -0.353 C  
ENDROOT
BRANCH   1   2
HETATM    2  C   UNL     1     -11.589  14.198  68.950  1.00  0.00    -0.310 C  
HETATM    3  O   UNL     1     -12.844  14.668  69.462  1.00  0.00    -0.548 OA 
HETATM    4  H   UNL     1     -12.722  15.246  70.207  1.00  0.00     0.000 HD 
BRANCH   2   5
HETATM    5  C   UNL     1     -10.637  15.362  68.663  1.00  0.00    -0.239 A  
HETATM    6  C   UNL     1     -10.240  19.759  67.201  1.00  0.00    -0.444 C  
HETATM    7  C   UNL     1     -10.240  17.504  67.573  1.00  0.00    -0.340 A  
HETATM    8  C   UNL     1      -9.406  15.517  69.330  1.00  0.00    -0.266 A  
HETATM    9  C   UNL     1      -9.017  17.639  68.231  1.00  0.00    -0.276 A  
HETATM   10  C   UNL     1      -8.720  19.726  67.208  1.00  0.00    -0.322 C  
HETATM   11  C   UNL     1     -11.024  16.361  67.749  1.00  0.00    -0.261 A  
HETATM   12  O   UNL     1      -8.212  18.743  68.120  1.00  0.00    -0.285 OA 
HETATM   13  O   UNL     1     -10.756  18.493  66.772  1.00  0.00    -0.372 OA 
HETATM   14  C   UNL     1      -8.592  16.634  69.095  1.00  0.00    -0.110 A  
ENDBRANCH   2   5
ENDBRANCH   1   2
BRANCH   1  15
HETATM   15  N   UNL     1     -12.073  11.894  68.234  1.00  0.00    -0.462 NA 
HETATM   16  H   UNL     1     -12.482  11.234  67.572  1.00  0.00     0.000 HD 
BRANCH  15  17
HETATM   17  C   UNL     1     -11.861  11.461  69.412  1.00  0.00    -0.351 C  
HETATM   18  H   UNL     1     -12.410  11.450  71.378  1.00  0.00     0.000 HD 
HETATM   19  O   UNL     1     -12.568  11.773  70.498  1.00  0.00    -0.240 OA 
BRANCH  17  20
HETATM   20  C   UNL     1     -10.717  10.514  69.675  1.00  0.00    -0.302 C  
BRANCH  20  21
HETATM   21  C   UNL     1     -10.957   9.625  70.891  1.00  0.00    -0.412 C  
BRANCH  21  22
HETATM   22  C   UNL     1     -10.593   8.159  70.648  1.00  0.00    -0.229 C  
BRANCH  22  23
HETATM   23  C   UNL     1      -9.084   7.943  70.781  1.00  0.00    -0.154 C  
BRANCH  23  24
HETATM   24  C   UNL     1      -8.757   6.820  71.766  1.00  0.00    -0.128 C  
BRANCH  24  25
HETATM   25  C   UNL     1      -7.462   6.106  71.375  1.00  0.00    -0.093 C  
HETATM   26  C   UNL     1      -6.381   6.294  72.426  1.00  0.00    -0.054 C  
ENDBRANCH  24  25
ENDBRANCH  23  24
ENDBRANCH  22  23
ENDBRANCH  21  22
ENDBRANCH  20  21
ENDBRANCH  17  20
ENDBRANCH  15  17
ENDBRANCH   1  15
BRANCH   1  27
HETATM   27  C   UNL     1     -10.558  13.037  66.778  1.00  0.00    -0.262 C  
BRANCH  27  28
HETATM   28  N   UNL     1     -10.687  13.005  65.300  1.00  0.00    -0.292 NA 
HETATM   29  C   UNL     1     -12.120  13.088  64.929  1.00  0.00    -0.413 C  
HETATM   30  C   UNL     1     -10.190  11.754  64.726  1.00  0.00    -0.282 C  
HETATM   31  C   UNL     1     -12.361  12.126  63.774  1.00  0.00    -0.635 C  
HETATM   32  C   UNL     1     -11.018  11.498  63.483  1.00  0.00    -0.453 C  
ENDBRANCH  27  28
ENDBRANCH   1  27
TORSDOF 12
ENDMDL
MODEL      190
REMARK 921   NORMALIZED FREE ENERGY PREDICTED BY IDOCK:   -4.51 KCAL/MOL
REMARK 922        TOTAL FREE ENERGY PREDICTED BY IDOCK:   -9.73 KCAL/MOL
REMARK 923 INTER-LIGAND FREE ENERGY PREDICTED BY IDOCK:   -8.34 KCAL/MOL
REMARK 924 INTRA-LIGAND FREE ENERGY PREDICTED BY IDOCK:   -1.39 KCAL/MOL
REMARK 927      BINDING AFFINITY PREDICTED BY RF-SCORE:    0.00 PKD
ROOT
HETATM    1  C   UNL     1      -9.786  12.656  68.204  1.00  0.00    -0.226 C  
ENDROOT
BRANCH   1   2
HETATM    2  C   UNL     1      -8.845  13.446  67.235  1.00  0.00    -0.220 C  
HETATM    3  O   UNL     1      -7.571  13.708  67.839  1.00  0.00    -0.123 OA 
HETATM    4  H   UNL     1      -6.999  14.188  67.250  1.00  0.00     0.000 HD 
BRANCH   2   5
HETATM    5  C   UNL     1      -9.476  14.731  66.693  1.00  0.00    -0.293 A  
HETATM    6  C   UNL     1      -9.258  19.374  66.538  1.00  0.00    -0.356 C  
HETATM    7  C   UNL     1      -9.707  17.153  66.830  1.00  0.00    -0.268 A  
HETATM    8  C   UNL     1     -10.211  14.768  65.493  1.00  0.00    -0.400 A  
HETATM    9  C   UNL     1     -10.444  17.173  65.645  1.00  0.00    -0.197 A  
HETATM   10  C   UNL     1     -10.576  19.507  65.791  1.00  0.00    -0.427 C  
HETATM   11  C   UNL     1      -9.264  15.945  67.376  1.00  0.00    -0.207 A  
HETATM   12  O   UNL     1     -10.889  18.323  65.046  1.00  0.00    -0.679 OA 
HETATM   13  O   UNL     1      -9.338  18.302  67.485  1.00  0.00    -0.259 OA 
HETATM   14  C   UNL     1     -10.712  15.976  64.987  1.00  0.00    -0.400 A  
ENDBRANCH   2   5
ENDBRANCH   1   2
BRANCH   1  15
HETATM   15  N   UNL     1      -9.476  11.222  68.078  1.00  0.00    -0.168 NA 
HETATM   16  H   UNL     1      -9.653  10.795  67.168  1.00  0.00     0.000 HD 
BRANCH  15  17
HETATM   17  C   UNL     1      -9.011  10.458  68.983  1.00  0.00    -0.179 C  
HETATM   18  H   UNL     1      -7.374   9.642  69.888  1.00  0.00     0.000 HD 
HETATM   19  O   UNL     1      -7.721  10.212  69.212  1.00  0.00    -0.100 OA 
BRANCH  17  20
HETATM   20  C   UNL     1      -9.949   9.725  69.910  1.00  0.00    -0.282 C  
BRANCH  20  21
HETATM   21  C   UNL     1      -9.213   8.906  70.965  1.00  0.00    -0.307 C  
BRANCH  21  22
HETATM   22  C   UNL     1      -9.475   7.402  70.852  1.00  0.00    -0.165 C  
BRANCH  22  23
HETATM   23  C   UNL     1     -10.513   7.109  69.768  1.00  0.00    -0.238 C  
BRANCH  23  24
HETATM   24  C   UNL     1     -11.644   6.224  70.290  1.00  0.00    -0.379 C  
BRANCH  24  25
HETATM   25  C   UNL     1     -11.984   6.566  71.741  1.00  0.00    -0.394 C  
HETATM   26  C   UNL     1     -13.052   7.644  71.825  1.00  0.00    -0.359 C  
ENDBRANCH  24  25
ENDBRANCH  23  24
ENDBRANCH  22  23
ENDBRANCH  21  22
ENDBRANCH  20  21
ENDBRANCH  17  20
ENDBRANCH  15  17
ENDBRANCH   1  15
BRANCH   1  27
HETATM   27  C   UNL     1     -11.327  12.729  67.916  1.00  0.00    -0.293 C  
BRANCH  27  28
HETATM   28  N   UNL     1     -12.292  13.287  68.894  1.00  0.00    -0.066 NA 
HETATM   29  C   UNL     1     -12.091  14.751  69.005  1.00  0.00    -0.221 C  
HETATM   30  C   UNL     1     -12.095  12.746  70.239  1.00  0.00    -0.297 C  
HETATM   31  C   UNL     1     -12.214  15.131  70.474  1.00  0.00    -0.389 C  
HETATM   32  C   UNL     1     -12.508  13.841  71.203  1.00  0.00    -0.450 C  
ENDBRANCH  27  28
ENDBRANCH   1  27
TORSDOF 12
ENDMDL
MODEL      191
REMARK 921   NORMALIZED FREE ENERGY PREDICTED BY IDOCK:   -4.50 KCAL/MOL
REMARK 922        TOTAL FREE ENERGY PREDICTED BY IDOCK:   -9.72 KCAL/MOL
REMARK 923 INTER-LIGAND FREE ENERGY PREDICTED BY IDOCK:   -7.66 KCAL/MOL
REMARK 924 INTRA-LIGAND FREE ENERGY PREDICTED BY IDOCK:   -2.06 KCAL/MOL
REMARK 927      BINDING AFFINITY PREDICTED BY RF-SCORE:    0.00 PKD
ROOT
HETATM    1  C   UNL     1      -9.403  10.744  68.006  1.00  0.00    -0.150 C  
ENDROOT
BRANCH   1   2
HETATM    2  C   UNL     1     -10.579   9.988  67.305  1.00  0.00    -0.257 C  
HETATM    3  O   UNL     1     -11.783  10.056  68.080  1.00  0.00    -0.645 OA 
HETATM    4  H   UNL     1     -12.498   9.597  67.654  1.00  0.00     0.000 HD 
BRANCH   2   5
HETATM    5  C   UNL     1     -10.236   8.541  66.941  1.00  0.00    -0.375 A  
HETATM    6  C   UNL     1      -6.914   5.583  65.583  1.00  0.00    -0.065 C  
HETATM    7  C   UNL     1      -8.705   6.971  65.879  1.00  0.00    -0.126 A  
HETATM    8  C   UNL     1     -10.946   7.440  67.456  1.00  0.00    -0.176 A  
HETATM    9  C   UNL     1      -9.426   5.889  66.387  1.00  0.00    -0.155 A  
HETATM   10  C   UNL     1      -7.883   4.426  65.402  1.00  0.00    -0.090 C  
HETATM   11  C   UNL     1      -9.125   8.283  66.113  1.00  0.00    -0.238 A  
HETATM   12  O   UNL     1      -9.056   4.580  66.213  1.00  0.00    -0.116 OA 
HETATM   13  O   UNL     1      -7.534   6.810  65.179  1.00  0.00    -0.077 OA 
HETATM   14  C   UNL     1     -10.559   6.126  67.160  1.00  0.00    -0.374 A  
ENDBRANCH   2   5
ENDBRANCH   1   2
BRANCH   1  15
HETATM   15  N   UNL     1      -9.514  10.523  69.458  1.00  0.00    -0.399 NA 
HETATM   16  H   UNL     1     -10.115  11.168  69.973  1.00  0.00     0.000 HD 
BRANCH  15  17
HETATM   17  C   UNL     1      -8.942   9.613  70.139  1.00  0.00    -0.236 C  
HETATM   18  H   UNL     1      -7.390   8.298  70.314  1.00  0.00     0.000 HD 
HETATM   19  O   UNL     1      -7.818   8.978  69.806  1.00  0.00    -0.077 OA 
BRANCH  17  20
HETATM   20  C   UNL     1      -9.540   9.157  71.446  1.00  0.00    -0.316 C  
BRANCH  20  21
HETATM   21  C   UNL     1     -11.058   9.297  71.480  1.00  0.00    -0.443 C  
BRANCH  21  22
HETATM   22  C   UNL     1     -11.745   8.224  72.328  1.00  0.00    -0.453 C  
BRANCH  22  23
HETATM   23  C   UNL     1     -12.552   7.267  71.449  1.00  0.00    -0.423 C  
BRANCH  23  24
HETATM   24  C   UNL     1     -11.647   6.318  70.664  1.00  0.00    -0.350 C  
BRANCH  24  25
HETATM   25  C   UNL     1     -10.645   5.625  71.588  1.00  0.00    -0.301 C  
HETATM   26  C   UNL     1      -9.281   5.489  70.932  1.00  0.00    -0.179 C  
ENDBRANCH  24  25
ENDBRANCH  23  24
ENDBRANCH  22  23
ENDBRANCH  21  22
ENDBRANCH  20  21
ENDBRANCH  17  20
ENDBRANCH  15  17
ENDBRANCH   1  15
BRANCH   1  27
HETATM   27  C   UNL     1      -9.380  12.307  67.870  1.00  0.00    -0.190 C  
BRANCH  27  28
HETATM   28  N   UNL     1     -10.394  13.051  67.083  1.00  0.00    -0.242 NA 
HETATM   29  C   UNL     1      -9.915  13.213  65.690  1.00  0.00    -0.227 C  
HETATM   30  C   UNL     1     -10.614  14.403  67.598  1.00  0.00    -0.260 C  
HETATM   31  C   UNL     1     -10.271  14.621  65.233  1.00  0.00    -0.421 C  
HETATM   32  C   UNL     1     -10.984  15.258  66.402  1.00  0.00    -0.299 C  
ENDBRANCH  27  28
ENDBRANCH   1  27
TORSDOF 12
ENDMDL
MODEL      192
REMARK 921   NORMALIZED FREE ENERGY PREDICTED BY IDOCK:   -4.49 KCAL/MOL
REMARK 922        TOTAL FREE ENERGY PREDICTED BY IDOCK:   -9.70 KCAL/MOL
REMARK 923 INTER-LIGAND FREE ENERGY PREDICTED BY IDOCK:   -7.88 KCAL/MOL
REMARK 924 INTRA-LIGAND FREE ENERGY PREDICTED BY IDOCK:   -1.82 KCAL/MOL
REMARK 927      BINDING AFFINITY PREDICTED BY RF-SCORE:    0.00 PKD
ROOT
HETATM    1  C   UNL     1     -10.574   9.821  69.277  1.00  0.00    -0.221 C  
ENDROOT
BRANCH   1   2
HETATM    2  C   UNL     1      -9.792   9.543  67.951  1.00  0.00    -0.156 C  
HETATM    3  O   UNL     1     -10.294  10.339  66.869  1.00  0.00    -0.222 OA 
HETATM    4  H   UNL     1      -9.819  10.170  66.063  1.00  0.00     0.000 HD 
BRANCH   2   5
HETATM    5  C   UNL     1      -9.748   8.060  67.574  1.00  0.00    -0.206 A  
HETATM    6  C   UNL     1      -7.454   4.036  67.987  1.00  0.00    -0.067 C  
HETATM    7  C   UNL     1      -8.464   5.998  67.393  1.00  0.00    -0.104 A  
HETATM    8  C   UNL     1     -10.907   7.320  67.270  1.00  0.00    -0.354 A  
HETATM    9  C   UNL     1      -9.618   5.278  67.081  1.00  0.00    -0.141 A  
HETATM   10  C   UNL     1      -8.345   3.314  66.989  1.00  0.00    -0.097 C  
HETATM   11  C   UNL     1      -8.515   7.379  67.595  1.00  0.00    -0.120 A  
HETATM   12  O   UNL     1      -9.641   3.920  66.894  1.00  0.00    -0.200 OA 
HETATM   13  O   UNL     1      -7.245   5.390  67.568  1.00  0.00    -0.072 OA 
HETATM   14  C   UNL     1     -10.838   5.946  67.001  1.00  0.00    -0.379 A  
ENDBRANCH   2   5
ENDBRANCH   1   2
BRANCH   1  15
HETATM   15  N   UNL     1     -10.683  11.280  69.450  1.00  0.00    -0.389 NA 
HETATM   16  H   UNL     1      -9.875  11.834  69.165  1.00  0.00     0.000 HD 
BRANCH  15  17
HETATM   17  C   UNL     1     -11.678  11.922  69.916  1.00  0.00    -0.308 C  
HETATM   18  H   UNL     1     -13.201  12.010  71.272  1.00  0.00     0.000 HD 
HETATM   19  O   UNL     1     -12.458  11.530  70.924  1.00  0.00    -0.379 OA 
BRANCH  17  20
HETATM   20  C   UNL     1     -12.072  13.248  69.314  1.00  0.00    -0.291 C  
BRANCH  20  21
HETATM   21  C   UNL     1     -11.959  13.261  67.794  1.00  0.00    -0.356 C  
BRANCH  21  22
HETATM   22  C   UNL     1     -11.560  14.627  67.230  1.00  0.00    -0.404 C  
BRANCH  22  23
HETATM   23  C   UNL     1     -10.451  14.483  66.185  1.00  0.00    -0.303 C  
BRANCH  23  24
HETATM   24  C   UNL     1     -10.854  15.094  64.844  1.00  0.00    -0.437 C  
BRANCH  24  25
HETATM   25  C   UNL     1     -12.192  14.532  64.362  1.00  0.00    -0.480 C  
HETATM   26  C   UNL     1     -12.023  13.173  63.705  1.00  0.00    -0.572 C  
ENDBRANCH  24  25
ENDBRANCH  23  24
ENDBRANCH  22  23
ENDBRANCH  21  22
ENDBRANCH  20  21
ENDBRANCH  17  20
ENDBRANCH  15  17
ENDBRANCH   1  15
BRANCH   1  27
HETATM   27  C   UNL     1      -9.905   9.339  70.612  1.00  0.00    -0.270 C  
BRANCH  27  28
HETATM   28  N   UNL     1     -10.467   8.235  71.428  1.00  0.00    -0.211 NA 
HETATM   29  C   UNL     1      -9.759   6.974  71.105  1.00  0.00    -0.172 C  
HETATM   30  C   UNL     1     -11.881   7.993  71.138  1.00  0.00    -0.284 C  
HETATM   31  C   UNL     1     -10.792   5.857  71.050  1.00  0.00    -0.339 C  
HETATM   32  C   UNL     1     -12.115   6.513  71.367  1.00  0.00    -0.344 C  
ENDBRANCH  27  28
ENDBRANCH   1  27
TORSDOF 12
ENDMDL
MODEL      193
REMARK 921   NORMALIZED FREE ENERGY PREDICTED BY IDOCK:   -4.48 KCAL/MOL
REMARK 922        TOTAL FREE ENERGY PREDICTED BY IDOCK:   -9.69 KCAL/MOL
REMARK 923 INTER-LIGAND FREE ENERGY PREDICTED BY IDOCK:   -8.74 KCAL/MOL
REMARK 924 INTRA-LIGAND FREE ENERGY PREDICTED BY IDOCK:   -0.95 KCAL/MOL
REMARK 927      BINDING AFFINITY PREDICTED BY RF-SCORE:    0.00 PKD
ROOT
HETATM    1  C   UNL     1     -10.367  13.130  67.809  1.00  0.00    -0.230 C  
ENDROOT
BRANCH   1   2
HETATM    2  C   UNL     1      -9.591  14.231  68.604  1.00  0.00    -0.192 C  
HETATM    3  O   UNL     1     -10.211  14.503  69.868  1.00  0.00    -0.429 OA 
HETATM    4  H   UNL     1      -9.740  15.172  70.351  1.00  0.00     0.000 HD 
BRANCH   2   5
HETATM    5  C   UNL     1      -9.377  15.519  67.804  1.00  0.00    -0.195 A  
HETATM    6  C   UNL     1     -10.366  20.048  67.436  1.00  0.00    -0.393 C  
HETATM    7  C   UNL     1     -10.103  17.784  67.276  1.00  0.00    -0.337 A  
HETATM    8  C   UNL     1      -8.219  15.753  67.039  1.00  0.00    -0.262 A  
HETATM    9  C   UNL     1      -8.955  17.998  66.511  1.00  0.00    -0.265 A  
HETATM   10  C   UNL     1      -9.669  20.190  66.093  1.00  0.00    -0.366 C  
HETATM   11  C   UNL     1     -10.338  16.546  67.881  1.00  0.00    -0.294 A  
HETATM   12  O   UNL     1      -8.654  19.193  65.910  1.00  0.00    -0.453 OA 
HETATM   13  O   UNL     1     -11.021  18.776  67.515  1.00  0.00    -0.407 OA 
HETATM   14  C   UNL     1      -8.022  16.973  66.377  1.00  0.00    -0.342 A  
ENDBRANCH   2   5
ENDBRANCH   1   2
BRANCH   1  15
HETATM   15  N   UNL     1     -10.645  12.011  68.725  1.00  0.00    -0.286 NA 
HETATM   16  H   UNL     1     -11.388  12.156  69.410  1.00  0.00     0.000 HD 
BRANCH  15  17
HETATM   17  C   UNL     1     -10.057  10.883  68.754  1.00  0.00    -0.194 C  
HETATM   18  H   UNL     1      -8.376   9.816  69.207  1.00  0.00     0.000 HD 
HETATM   19  O   UNL     1      -8.816  10.659  69.185  1.00  0.00    -0.164 OA 
BRANCH  17  20
HETATM   20  C   UNL     1     -10.767   9.647  68.260  1.00  0.00    -0.262 C  
BRANCH  20  21
HETATM   21  C   UNL     1      -9.920   8.387  68.397  1.00  0.00    -0.208 C  
BRANCH  21  22
HETATM   22  C   UNL     1     -10.746   7.133  68.693  1.00  0.00    -0.198 C  
BRANCH  22  23
HETATM   23  C   UNL     1     -10.804   6.861  70.197  1.00  0.00    -0.300 C  
BRANCH  23  24
HETATM   24  C   UNL     1     -10.345   5.443  70.535  1.00  0.00    -0.344 C  
BRANCH  24  25
HETATM   25  C   UNL     1     -10.315   5.220  72.048  1.00  0.00    -0.273 C  
HETATM   26  C   UNL     1     -11.716   5.184  72.635  1.00  0.00    -0.120 C  
ENDBRANCH  24  25
ENDBRANCH  23  24
ENDBRANCH  22  23
ENDBRANCH  21  22
ENDBRANCH  20  21
ENDBRANCH  17  20
ENDBRANCH  15  17
ENDBRANCH   1  15
BRANCH   1  27
HETATM   27  C   UNL     1      -9.613  12.452  66.613  1.00  0.00    -0.229 C  
BRANCH  27  28
HETATM   28  N   UNL     1     -10.045  12.620  65.204  1.00  0.00    -0.267 NA 
HETATM   29  C   UNL     1     -10.934  13.800  65.098  1.00  0.00    -0.337 C  
HETATM   30  C   UNL     1     -10.824  11.478  64.722  1.00  0.00    -0.297 C  
HETATM   31  C   UNL     1     -12.072  13.447  64.150  1.00  0.00    -0.491 C  
HETATM   32  C   UNL     1     -11.800  12.030  63.701  1.00  0.00    -0.602 C  
ENDBRANCH  27  28
ENDBRANCH   1  27
TORSDOF 12
ENDMDL
MODEL      194
REMARK 921   NORMALIZED FREE ENERGY PREDICTED BY IDOCK:   -4.48 KCAL/MOL
REMARK 922        TOTAL FREE ENERGY PREDICTED BY IDOCK:   -9.68 KCAL/MOL
REMARK 923 INTER-LIGAND FREE ENERGY PREDICTED BY IDOCK:   -7.63 KCAL/MOL
REMARK 924 INTRA-LIGAND FREE ENERGY PREDICTED BY IDOCK:   -2.06 KCAL/MOL
REMARK 927      BINDING AFFINITY PREDICTED BY RF-SCORE:    0.00 PKD
ROOT
HETATM    1  C   UNL     1      -9.314  11.455  68.245  1.00  0.00    -0.187 C  
ENDROOT
BRANCH   1   2
HETATM    2  C   UNL     1      -9.426  10.544  66.979  1.00  0.00    -0.163 C  
HETATM    3  O   UNL     1     -10.647  10.784  66.266  1.00  0.00    -0.246 OA 
HETATM    4  H   UNL     1     -10.715  10.230  65.496  1.00  0.00     0.000 HD 
BRANCH   2   5
HETATM    5  C   UNL     1      -9.247   9.055  67.287  1.00  0.00    -0.159 A  
HETATM    6  C   UNL     1     -10.458   4.706  66.169  1.00  0.00    -0.241 C  
HETATM    7  C   UNL     1     -10.069   6.772  67.065  1.00  0.00    -0.200 A  
HETATM    8  C   UNL     1      -8.072   8.535  67.861  1.00  0.00    -0.115 A  
HETATM    9  C   UNL     1      -8.903   6.271  67.646  1.00  0.00    -0.111 A  
HETATM   10  C   UNL     1      -9.713   4.094  67.344  1.00  0.00    -0.154 C  
HETATM   11  C   UNL     1     -10.263   8.149  66.924  1.00  0.00    -0.387 A  
HETATM   12  O   UNL     1      -8.640   4.934  67.792  1.00  0.00    -0.104 OA 
HETATM   13  O   UNL     1     -11.048   5.953  66.559  1.00  0.00    -0.205 OA 
HETATM   14  C   UNL     1      -7.912   7.157  68.062  1.00  0.00    -0.119 A  
ENDBRANCH   2   5
ENDBRANCH   1   2
BRANCH   1  15
HETATM   15  N   UNL     1     -10.134  10.860  69.315  1.00  0.00    -0.370 NA 
HETATM   16  H   UNL     1      -9.633  10.345  70.040  1.00  0.00     0.000 HD 
BRANCH  15  17
HETATM   17  C   UNL     1     -11.400  10.919  69.430  1.00  0.00    -0.280 C  
HETATM   18  H   UNL     1     -13.223  10.955  68.513  1.00  0.00     0.000 HD 
HETATM   19  O   UNL     1     -12.278  10.911  68.427  1.00  0.00    -0.540 OA 
BRANCH  17  20
HETATM   20  C   UNL     1     -12.030  11.020  70.797  1.00  0.00    -0.436 C  
BRANCH  20  21
HETATM   21  C   UNL     1     -13.269  10.142  70.940  1.00  0.00    -0.360 C  
BRANCH  21  22
HETATM   22  C   UNL     1     -12.964   8.758  71.519  1.00  0.00    -0.359 C  
BRANCH  22  23
HETATM   23  C   UNL     1     -11.743   8.809  72.438  1.00  0.00    -0.337 C  
BRANCH  23  24
HETATM   24  C   UNL     1     -10.750   7.690  72.125  1.00  0.00    -0.289 C  
BRANCH  24  25
HETATM   25  C   UNL     1     -10.691   7.411  70.623  1.00  0.00    -0.242 C  
HETATM   26  C   UNL     1     -11.246   6.037  70.287  1.00  0.00    -0.392 C  
ENDBRANCH  24  25
ENDBRANCH  23  24
ENDBRANCH  22  23
ENDBRANCH  21  22
ENDBRANCH  20  21
ENDBRANCH  17  20
ENDBRANCH  15  17
ENDBRANCH   1  15
BRANCH   1  27
HETATM   27  C   UNL     1      -9.871  12.916  68.122  1.00  0.00    -0.227 C  
BRANCH  27  28
HETATM   28  N   UNL     1     -10.203  13.533  66.814  1.00  0.00    -0.260 NA 
HETATM   29  C   UNL     1      -9.301  14.683  66.568  1.00  0.00    -0.288 C  
HETATM   30  C   UNL     1     -11.564  14.069  66.783  1.00  0.00    -0.386 C  
HETATM   31  C   UNL     1     -10.128  15.804  65.955  1.00  0.00    -0.381 C  
HETATM   32  C   UNL     1     -11.532  15.257  65.842  1.00  0.00    -0.092 C  
ENDBRANCH  27  28
ENDBRANCH   1  27
TORSDOF 12
ENDMDL
MODEL      195
REMARK 921   NORMALIZED FREE ENERGY PREDICTED BY IDOCK:   -4.48 KCAL/MOL
REMARK 922        TOTAL FREE ENERGY PREDICTED BY IDOCK:   -9.68 KCAL/MOL
REMARK 923 INTER-LIGAND FREE ENERGY PREDICTED BY IDOCK:   -8.15 KCAL/MOL
REMARK 924 INTRA-LIGAND FREE ENERGY PREDICTED BY IDOCK:   -1.53 KCAL/MOL
REMARK 927      BINDING AFFINITY PREDICTED BY RF-SCORE:    0.00 PKD
ROOT
HETATM    1  C   UNL     1     -10.218  11.198  68.997  1.00  0.00    -0.176 C  
ENDROOT
BRANCH   1   2
HETATM    2  C   UNL     1     -11.352  10.149  69.241  1.00  0.00    -0.156 C  
HETATM    3  O   UNL     1     -12.641  10.774  69.299  1.00  0.00    -0.681 OA 
HETATM    4  H   UNL     1     -13.331  10.137  69.448  1.00  0.00     0.000 HD 
BRANCH   2   5
HETATM    5  C   UNL     1     -11.108   9.267  70.468  1.00  0.00    -0.317 A  
HETATM    6  C   UNL     1      -8.195   8.184  73.928  1.00  0.00    -0.250 C  
HETATM    7  C   UNL     1      -9.537   8.344  72.085  1.00  0.00    -0.297 A  
HETATM    8  C   UNL     1     -12.157   8.736  71.242  1.00  0.00    -0.344 A  
HETATM    9  C   UNL     1     -10.586   7.813  72.836  1.00  0.00    -0.366 A  
HETATM   10  C   UNL     1      -9.035   7.007  74.396  1.00  0.00    -0.207 C  
HETATM   11  C   UNL     1      -9.786   9.026  70.891  1.00  0.00    -0.329 A  
HETATM   12  O   UNL     1     -10.413   7.154  74.026  1.00  0.00    -0.353 OA 
HETATM   13  O   UNL     1      -8.229   8.273  72.498  1.00  0.00    -0.152 OA 
HETATM   14  C   UNL     1     -11.897   7.993  72.402  1.00  0.00    -0.429 A  
ENDBRANCH   2   5
ENDBRANCH   1   2
BRANCH   1  15
HETATM   15  N   UNL     1     -10.843  12.521  68.823  1.00  0.00    -0.266 NA 
HETATM   16  H   UNL     1     -10.945  13.090  69.663  1.00  0.00     0.000 HD 
BRANCH  15  17
HETATM   17  C   UNL     1     -11.268  13.028  67.736  1.00  0.00    -0.279 C  
HETATM   18  H   UNL     1     -12.474  12.853  66.098  1.00  0.00     0.000 HD 
HETATM   19  O   UNL     1     -12.156  12.474  66.910  1.00  0.00    -0.537 OA 
BRANCH  17  20
HETATM   20  C   UNL     1     -10.755  14.369  67.276  1.00  0.00    -0.285 C  
BRANCH  20  21
HETATM   21  C   UNL     1      -9.818  15.020  68.288  1.00  0.00    -0.219 C  
BRANCH  21  22
HETATM   22  C   UNL     1      -8.932  16.108  67.678  1.00  0.00    -0.194 C  
BRANCH  22  23
HETATM   23  C   UNL     1      -8.798  17.299  68.628  1.00  0.00    -0.261 C  
BRANCH  23  24
HETATM   24  C   UNL     1     -10.047  18.180  68.612  1.00  0.00    -0.406 C  
BRANCH  24  25
HETATM   25  C   UNL     1     -10.562  18.377  67.186  1.00  0.00    -0.416 C  
HETATM   26  C   UNL     1     -10.205  19.752  66.647  1.00  0.00    -0.595 C  
ENDBRANCH  24  25
ENDBRANCH  23  24
ENDBRANCH  22  23
ENDBRANCH  21  22
ENDBRANCH  20  21
ENDBRANCH  17  20
ENDBRANCH  15  17
ENDBRANCH   1  15
BRANCH   1  27
HETATM   27  C   UNL     1      -9.354  11.023  67.699  1.00  0.00    -0.157 C  
BRANCH  27  28
HETATM   28  N   UNL     1      -7.888  11.248  67.684  1.00  0.00    -0.113 NA 
HETATM   29  C   UNL     1      -7.397  11.397  69.075  1.00  0.00    -0.108 C  
HETATM   30  C   UNL     1      -7.523  12.484  66.990  1.00  0.00    -0.003 C  
HETATM   31  C   UNL     1      -6.363  12.513  69.091  1.00  0.00    -0.095 C  
HETATM   32  C   UNL     1      -6.262  12.992  67.661  1.00  0.00    -0.158 C  
ENDBRANCH  27  28
ENDBRANCH   1  27
TORSDOF 12
ENDMDL
MODEL      196
REMARK 921   NORMALIZED FREE ENERGY PREDICTED BY IDOCK:   -4.48 KCAL/MOL
REMARK 922        TOTAL FREE ENERGY PREDICTED BY IDOCK:   -9.67 KCAL/MOL
REMARK 923 INTER-LIGAND FREE ENERGY PREDICTED BY IDOCK:   -7.90 KCAL/MOL
REMARK 924 INTRA-LIGAND FREE ENERGY PREDICTED BY IDOCK:   -1.77 KCAL/MOL
REMARK 927      BINDING AFFINITY PREDICTED BY RF-SCORE:    0.00 PKD
ROOT
HETATM    1  C   UNL     1      -8.828   7.866  67.429  1.00  0.00    -0.127 C  
ENDROOT
BRANCH   1   2
HETATM    2  C   UNL     1     -10.300   8.356  67.229  1.00  0.00    -0.299 C  
HETATM    3  O   UNL     1     -11.136   7.311  66.715  1.00  0.00    -0.539 OA 
HETATM    4  H   UNL     1     -12.031   7.609  66.594  1.00  0.00     0.000 HD 
BRANCH   2   5
HETATM    5  C   UNL     1     -10.405   9.622  66.374  1.00  0.00    -0.246 A  
HETATM    6  C   UNL     1     -10.974  14.238  66.360  1.00  0.00    -0.311 C  
HETATM    7  C   UNL     1     -11.065  11.960  66.193  1.00  0.00    -0.326 A  
HETATM    8  C   UNL     1      -9.800   9.735  65.108  1.00  0.00    -0.294 A  
HETATM    9  C   UNL     1     -10.470  12.055  64.934  1.00  0.00    -0.285 A  
HETATM   10  C   UNL     1     -11.069  14.318  64.845  1.00  0.00    -0.390 C  
HETATM   11  C   UNL     1     -11.074  10.749  66.891  1.00  0.00    -0.204 A  
HETATM   12  O   UNL     1     -10.407  13.216  64.209  1.00  0.00    -0.421 OA 
HETATM   13  O   UNL     1     -11.617  13.046  66.828  1.00  0.00    -0.330 OA 
HETATM   14  C   UNL     1      -9.854  10.934  64.384  1.00  0.00    -0.365 A  
ENDBRANCH   2   5
ENDBRANCH   1   2
BRANCH   1  15
HETATM   15  N   UNL     1      -8.767   7.089  68.679  1.00  0.00    -0.123 NA 
HETATM   16  H   UNL     1      -8.090   7.399  69.376  1.00  0.00     0.000 HD 
BRANCH  15  17
HETATM   17  C   UNL     1      -9.469   6.071  68.980  1.00  0.00    -0.127 C  
HETATM   18  H   UNL     1     -10.236   4.266  68.414  1.00  0.00     0.000 HD 
HETATM   19  O   UNL     1      -9.711   5.026  68.189  1.00  0.00    -0.136 OA 
BRANCH  17  20
HETATM   20  C   UNL     1     -10.125   5.980  70.335  1.00  0.00    -0.249 C  
BRANCH  20  21
HETATM   21  C   UNL     1     -11.395   6.819  70.433  1.00  0.00    -0.399 C  
BRANCH  21  22
HETATM   22  C   UNL     1     -11.716   7.266  71.861  1.00  0.00    -0.323 C  
BRANCH  22  23
HETATM   23  C   UNL     1     -11.513   8.774  72.019  1.00  0.00    -0.441 C  
BRANCH  23  24
HETATM   24  C   UNL     1     -11.340   9.467  70.668  1.00  0.00    -0.364 C  
BRANCH  24  25
HETATM   25  C   UNL     1     -12.330  10.622  70.512  1.00  0.00    -0.448 C  
HETATM   26  C   UNL     1     -13.139  10.840  71.779  1.00  0.00    -0.573 C  
ENDBRANCH  24  25
ENDBRANCH  23  24
ENDBRANCH  22  23
ENDBRANCH  21  22
ENDBRANCH  20  21
ENDBRANCH  17  20
ENDBRANCH  15  17
ENDBRANCH   1  15
BRANCH   1  27
HETATM   27  C   UNL     1      -7.731   8.970  67.626  1.00  0.00    -0.097 C  
BRANCH  27  28
HETATM   28  N   UNL     1      -7.724   9.884  68.795  1.00  0.00    -0.083 NA 
HETATM   29  C   UNL     1      -7.816  11.287  68.324  1.00  0.00    -0.130 C  
HETATM   30  C   UNL     1      -6.482   9.794  69.563  1.00  0.00    -0.046 C  
HETATM   31  C   UNL     1      -6.874  12.129  69.173  1.00  0.00    -0.078 C  
HETATM   32  C   UNL     1      -6.249  11.169  70.158  1.00  0.00    -0.147 C  
ENDBRANCH  27  28
ENDBRANCH   1  27
TORSDOF 12
ENDMDL
MODEL      197
REMARK 921   NORMALIZED FREE ENERGY PREDICTED BY IDOCK:   -4.47 KCAL/MOL
REMARK 922        TOTAL FREE ENERGY PREDICTED BY IDOCK:   -9.66 KCAL/MOL
REMARK 923 INTER-LIGAND FREE ENERGY PREDICTED BY IDOCK:   -8.22 KCAL/MOL
REMARK 924 INTRA-LIGAND FREE ENERGY PREDICTED BY IDOCK:   -1.44 KCAL/MOL
REMARK 927      BINDING AFFINITY PREDICTED BY RF-SCORE:    0.00 PKD
ROOT
HETATM    1  C   UNL     1     -11.142  11.883  65.900  1.00  0.00    -0.316 C  
ENDROOT
BRANCH   1   2
HETATM    2  C   UNL     1      -9.799  11.254  66.398  1.00  0.00    -0.211 C  
HETATM    3  O   UNL     1      -8.679  11.748  65.653  1.00  0.00    -0.403 OA 
HETATM    4  H   UNL     1      -7.863  11.366  65.955  1.00  0.00     0.000 HD 
BRANCH   2   5
HETATM    5  C   UNL     1      -9.819   9.723  66.420  1.00  0.00    -0.298 A  
HETATM    6  C   UNL     1      -7.497   5.815  65.437  1.00  0.00    -0.078 C  
HETATM    7  C   UNL     1      -8.888   7.620  65.617  1.00  0.00    -0.050 A  
HETATM    8  C   UNL     1     -10.581   8.987  67.348  1.00  0.00    -0.309 A  
HETATM    9  C   UNL     1      -9.657   6.902  66.534  1.00  0.00    -0.143 A  
HETATM   10  C   UNL     1      -8.677   4.916  65.770  1.00  0.00    -0.131 C  
HETATM   11  C   UNL     1      -8.996   9.010  65.526  1.00  0.00    -0.252 A  
HETATM   12  O   UNL     1      -9.582   5.542  66.690  1.00  0.00    -0.137 OA 
HETATM   13  O   UNL     1      -7.960   7.015  64.805  1.00  0.00    -0.121 OA 
HETATM   14  C   UNL     1     -10.519   7.587  67.387  1.00  0.00    -0.367 A  
ENDBRANCH   2   5
ENDBRANCH   1   2
BRANCH   1  15
HETATM   15  N   UNL     1     -10.827  12.868  64.851  1.00  0.00    -0.295 NA 
HETATM   16  H   UNL     1      -9.948  12.736  64.350  1.00  0.00     0.000 HD 
BRANCH  15  17
HETATM   17  C   UNL     1     -11.534  13.867  64.504  1.00  0.00    -0.381 C  
HETATM   18  H   UNL     1     -13.248  14.558  63.636  1.00  0.00     0.000 HD 
HETATM   19  O   UNL     1     -12.719  13.812  63.895  1.00  0.00    -0.673 OA 
BRANCH  17  20
HETATM   20  C   UNL     1     -11.044  15.269  64.765  1.00  0.00    -0.407 C  
BRANCH  20  21
HETATM   21  C   UNL     1      -9.811  15.304  65.663  1.00  0.00    -0.383 C  
BRANCH  21  22
HETATM   22  C   UNL     1      -9.565  16.674  66.299  1.00  0.00    -0.325 C  
BRANCH  22  23
HETATM   23  C   UNL     1      -8.107  17.103  66.123  1.00  0.00    -0.283 C  
BRANCH  23  24
HETATM   24  C   UNL     1      -7.195  16.444  67.157  1.00  0.00    -0.233 C  
BRANCH  24  25
HETATM   25  C   UNL     1      -7.741  16.633  68.573  1.00  0.00    -0.215 C  
HETATM   26  C   UNL     1      -7.932  15.302  69.280  1.00  0.00    -0.223 C  
ENDBRANCH  24  25
ENDBRANCH  23  24
ENDBRANCH  22  23
ENDBRANCH  21  22
ENDBRANCH  20  21
ENDBRANCH  17  20
ENDBRANCH  15  17
ENDBRANCH   1  15
BRANCH   1  27
HETATM   27  C   UNL     1     -11.973  12.706  66.945  1.00  0.00    -0.275 C  
BRANCH  27  28
HETATM   28  N   UNL     1     -11.414  13.123  68.254  1.00  0.00    -0.292 NA 
HETATM   29  C   UNL     1     -11.892  12.200  69.310  1.00  0.00    -0.313 C  
HETATM   30  C   UNL     1     -11.862  14.459  68.649  1.00  0.00    -0.331 C  
HETATM   31  C   UNL     1     -12.230  13.030  70.541  1.00  0.00    -0.392 C  
HETATM   32  C   UNL     1     -11.917  14.460  70.163  1.00  0.00    -0.386 C  
ENDBRANCH  27  28
ENDBRANCH   1  27
TORSDOF 12
ENDMDL
MODEL      198
REMARK 921   NORMALIZED FREE ENERGY PREDICTED BY IDOCK:   -4.47 KCAL/MOL
REMARK 922        TOTAL FREE ENERGY PREDICTED BY IDOCK:   -9.66 KCAL/MOL
REMARK 923 INTER-LIGAND FREE ENERGY PREDICTED BY IDOCK:   -8.36 KCAL/MOL
REMARK 924 INTRA-LIGAND FREE ENERGY PREDICTED BY IDOCK:   -1.30 KCAL/MOL
REMARK 927      BINDING AFFINITY PREDICTED BY RF-SCORE:    0.00 PKD
ROOT
HETATM    1  C   UNL     1     -10.488  15.453  68.608  1.00  0.00    -0.237 C  
ENDROOT
BRANCH   1   2
HETATM    2  C   UNL     1     -11.355  14.753  67.510  1.00  0.00    -0.344 C  
HETATM    3  O   UNL     1     -12.707  14.567  67.947  1.00  0.00    -0.263 OA 
HETATM    4  H   UNL     1     -13.234  14.142  67.280  1.00  0.00     0.000 HD 
BRANCH   2   5
HETATM    5  C   UNL     1     -10.749  13.439  67.008  1.00  0.00    -0.271 A  
HETATM    6  C   UNL     1     -10.512   8.829  67.575  1.00  0.00    -0.271 C  
HETATM    7  C   UNL     1     -10.239  11.093  67.421  1.00  0.00    -0.190 A  
HETATM    8  C   UNL     1     -10.340  13.254  65.674  1.00  0.00    -0.292 A  
HETATM    9  C   UNL     1      -9.825  10.926  66.098  1.00  0.00    -0.222 A  
HETATM   10  C   UNL     1      -9.418   8.660  66.533  1.00  0.00    -0.216 C  
HETATM   11  C   UNL     1     -10.656  12.343  67.887  1.00  0.00    -0.231 A  
HETATM   12  O   UNL     1      -9.428   9.724  65.572  1.00  0.00    -0.221 OA 
HETATM   13  O   UNL     1     -10.310  10.045  68.305  1.00  0.00    -0.175 OA 
HETATM   14  C   UNL     1      -9.858  12.014  65.230  1.00  0.00    -0.236 A  
ENDBRANCH   2   5
ENDBRANCH   1   2
BRANCH   1  15
HETATM   15  N   UNL     1      -9.076  15.108  68.369  1.00  0.00    -0.179 NA 
HETATM   16  H   UNL     1      -8.808  14.139  68.544  1.00  0.00     0.000 HD 
BRANCH  15  17
HETATM   17  C   UNL     1      -8.156  15.890  67.969  1.00  0.00    -0.141 C  
HETATM   18  H   UNL     1      -6.965  16.521  66.436  1.00  0.00     0.000 HD 
HETATM   19  O   UNL     1      -7.653  15.937  66.735  1.00  0.00    -0.226 OA 
BRANCH  17  20
HETATM   20  C   UNL     1      -7.525  16.869  68.926  1.00  0.00    -0.238 C  
BRANCH  20  21
HETATM   21  C   UNL     1      -7.326  18.250  68.311  1.00  0.00    -0.277 C  
BRANCH  21  22
HETATM   22  C   UNL     1      -8.640  18.959  67.978  1.00  0.00    -0.330 C  
BRANCH  22  23
HETATM   23  C   UNL     1      -8.508  19.777  66.692  1.00  0.00    -0.371 C  
BRANCH  23  24
HETATM   24  C   UNL     1      -7.160  20.492  66.611  1.00  0.00    -0.313 C  
BRANCH  24  25
HETATM   25  C   UNL     1      -6.509  20.283  65.243  1.00  0.00    -0.315 C  
HETATM   26  C   UNL     1      -6.245  18.813  64.967  1.00  0.00    -0.274 C  
ENDBRANCH  24  25
ENDBRANCH  23  24
ENDBRANCH  22  23
ENDBRANCH  21  22
ENDBRANCH  20  21
ENDBRANCH  17  20
ENDBRANCH  15  17
ENDBRANCH   1  15
BRANCH   1  27
HETATM   27  C   UNL     1     -10.731  15.013  70.094  1.00  0.00    -0.156 C  
BRANCH  27  28
HETATM   28  N   UNL     1     -12.045  15.170  70.764  1.00  0.00    -0.308 NA 
HETATM   29  C   UNL     1     -11.892  16.043  71.952  1.00  0.00    -0.534 C  
HETATM   30  C   UNL     1     -12.571  13.897  71.260  1.00  0.00    -0.371 C  
HETATM   31  C   UNL     1     -12.733  15.456  73.077  1.00  0.00    -0.561 C  
HETATM   32  C   UNL     1     -13.388  14.226  72.493  1.00  0.00    -0.595 C  
ENDBRANCH  27  28
ENDBRANCH   1  27
TORSDOF 12
ENDMDL
MODEL      199
REMARK 921   NORMALIZED FREE ENERGY PREDICTED BY IDOCK:   -4.46 KCAL/MOL
REMARK 922        TOTAL FREE ENERGY PREDICTED BY IDOCK:   -9.65 KCAL/MOL
REMARK 923 INTER-LIGAND FREE ENERGY PREDICTED BY IDOCK:   -8.01 KCAL/MOL
REMARK 924 INTRA-LIGAND FREE ENERGY PREDICTED BY IDOCK:   -1.64 KCAL/MOL
REMARK 927      BINDING AFFINITY PREDICTED BY RF-SCORE:    0.00 PKD
ROOT
HETATM    1  C   UNL     1      -8.886   7.123  67.692  1.00  0.00    -0.119 C  
ENDROOT
BRANCH   1   2
HETATM    2  C   UNL     1     -10.367   7.623  67.627  1.00  0.00    -0.237 C  
HETATM    3  O   UNL     1     -11.183   6.746  66.840  1.00  0.00    -0.618 OA 
HETATM    4  H   UNL     1     -12.083   7.049  66.800  1.00  0.00     0.000 HD 
BRANCH   2   5
HETATM    5  C   UNL     1     -10.495   9.073  67.154  1.00  0.00    -0.333 A  
HETATM    6  C   UNL     1     -11.035  11.915  63.512  1.00  0.00    -0.432 C  
HETATM    7  C   UNL     1     -10.395  10.681  65.326  1.00  0.00    -0.251 A  
HETATM    8  C   UNL     1     -11.008  10.096  67.974  1.00  0.00    -0.326 A  
HETATM    9  C   UNL     1     -10.893  11.688  66.154  1.00  0.00    -0.294 A  
HETATM   10  C   UNL     1     -10.841  13.173  64.343  1.00  0.00    -0.397 C  
HETATM   11  C   UNL     1     -10.156   9.398  65.826  1.00  0.00    -0.166 A  
HETATM   12  O   UNL     1     -11.171  12.959  65.722  1.00  0.00    -0.283 OA 
HETATM   13  O   UNL     1     -10.169  10.877  63.986  1.00  0.00    -0.321 OA 
HETATM   14  C   UNL     1     -11.181  11.398  67.485  1.00  0.00    -0.356 A  
ENDBRANCH   2   5
ENDBRANCH   1   2
BRANCH   1  15
HETATM   15  N   UNL     1      -8.719   6.340  68.929  1.00  0.00    -0.125 NA 
HETATM   16  H   UNL     1      -7.898   6.553  69.496  1.00  0.00     0.000 HD 
BRANCH  15  17
HETATM   17  C   UNL     1      -9.490   5.426  69.365  1.00  0.00    -0.133 C  
HETATM   18  H   UNL     1     -10.308   3.575  69.097  1.00  0.00     0.000 HD 
HETATM   19  O   UNL     1      -9.731   4.258  68.771  1.00  0.00    -0.162 OA 
BRANCH  17  20
HETATM   20  C   UNL     1     -10.237   5.622  70.660  1.00  0.00    -0.292 C  
BRANCH  20  21
HETATM   21  C   UNL     1     -11.424   6.570  70.518  1.00  0.00    -0.448 C  
BRANCH  21  22
HETATM   22  C   UNL     1     -12.113   6.879  71.849  1.00  0.00    -0.370 C  
BRANCH  22  23
HETATM   23  C   UNL     1     -11.437   8.057  72.553  1.00  0.00    -0.471 C  
BRANCH  23  24
HETATM   24  C   UNL     1     -11.259   9.251  71.616  1.00  0.00    -0.449 C  
BRANCH  24  25
HETATM   25  C   UNL     1     -12.592   9.956  71.364  1.00  0.00    -0.497 C  
HETATM   26  C   UNL     1     -12.420  11.464  71.288  1.00  0.00    -0.423 C  
ENDBRANCH  24  25
ENDBRANCH  23  24
ENDBRANCH  22  23
ENDBRANCH  21  22
ENDBRANCH  20  21
ENDBRANCH  17  20
ENDBRANCH  15  17
ENDBRANCH   1  15
BRANCH   1  27
HETATM   27  C   UNL     1      -7.769   8.219  67.794  1.00  0.00    -0.103 C  
BRANCH  27  28
HETATM   28  N   UNL     1      -6.768   8.436  66.721  1.00  0.00    -0.061 NA 
HETATM   29  C   UNL     1      -6.706   9.879  66.388  1.00  0.00    -0.085 C  
HETATM   30  C   UNL     1      -7.127   7.747  65.480  1.00  0.00    -0.063 C  
HETATM   31  C   UNL     1      -6.590  10.006  64.876  1.00  0.00    -0.126 C  
HETATM   32  C   UNL     1      -6.571   8.590  64.350  1.00  0.00    -0.067 C  
ENDBRANCH  27  28
ENDBRANCH   1  27
TORSDOF 12
ENDMDL
MODEL      200
REMARK 921   NORMALIZED FREE ENERGY PREDICTED BY IDOCK:   -4.46 KCAL/MOL
REMARK 922        TOTAL FREE ENERGY PREDICTED BY IDOCK:   -9.64 KCAL/MOL
REMARK 923 INTER-LIGAND FREE ENERGY PREDICTED BY IDOCK:   -8.58 KCAL/MOL
REMARK 924 INTRA-LIGAND FREE ENERGY PREDICTED BY IDOCK:   -1.06 KCAL/MOL
REMARK 927      BINDING AFFINITY PREDICTED BY RF-SCORE:    0.00 PKD
ROOT
HETATM    1  C   UNL     1     -11.622  13.058  67.776  1.00  0.00    -0.340 C  
ENDROOT
BRANCH   1   2
HETATM    2  C   UNL     1     -11.840  11.517  67.617  1.00  0.00    -0.118 C  
HETATM    3  O   UNL     1     -12.455  10.950  68.781  1.00  0.00    -0.767 OA 
HETATM    4  H   UNL     1     -12.587  10.014  68.685  1.00  0.00     0.000 HD 
BRANCH   2   5
HETATM    5  C   UNL     1     -10.564  10.761  67.240  1.00  0.00    -0.304 A  
HETATM    6  C   UNL     1      -7.420   7.594  68.551  1.00  0.00    -0.104 C  
HETATM    7  C   UNL     1      -8.657   9.418  67.945  1.00  0.00    -0.120 A  
HETATM    8  C   UNL     1     -10.197  10.510  65.904  1.00  0.00    -0.311 A  
HETATM    9  C   UNL     1      -8.299   9.187  66.616  1.00  0.00    -0.122 A  
HETATM   10  C   UNL     1      -6.522   7.848  67.351  1.00  0.00    -0.056 C  
HETATM   11  C   UNL     1      -9.750  10.230  68.260  1.00  0.00    -0.154 A  
HETATM   12  O   UNL     1      -7.254   8.383  66.239  1.00  0.00    -0.076 OA 
HETATM   13  O   UNL     1      -8.001   8.826  68.996  1.00  0.00    -0.106 OA 
HETATM   14  C   UNL     1      -9.059   9.751  65.596  1.00  0.00    -0.222 A  
ENDBRANCH   2   5
ENDBRANCH   1   2
BRANCH   1  15
HETATM   15  N   UNL     1     -10.433  13.438  66.994  1.00  0.00    -0.256 NA 
HETATM   16  H   UNL     1      -9.533  13.103  67.340  1.00  0.00     0.000 HD 
BRANCH  15  17
HETATM   17  C   UNL     1     -10.409  14.139  65.932  1.00  0.00    -0.316 C  
HETATM   18  H   UNL     1     -11.069  14.410  64.020  1.00  0.00     0.000 HD 
HETATM   19  O   UNL     1     -11.087  13.886  64.813  1.00  0.00    -0.348 OA 
BRANCH  17  20
HETATM   20  C   UNL     1      -9.547  15.375  65.862  1.00  0.00    -0.386 C  
BRANCH  20  21
HETATM   21  C   UNL     1      -8.767  15.623  67.149  1.00  0.00    -0.233 C  
BRANCH  21  22
HETATM   22  C   UNL     1      -8.824  17.078  67.619  1.00  0.00    -0.220 C  
BRANCH  22  23
HETATM   23  C   UNL     1      -9.141  18.016  66.452  1.00  0.00    -0.251 C  
BRANCH  23  24
HETATM   24  C   UNL     1     -10.338  18.916  66.757  1.00  0.00    -0.477 C  
BRANCH  24  25
HETATM   25  C   UNL     1      -9.905  20.166  67.524  1.00  0.00    -0.574 C  
HETATM   26  C   UNL     1      -8.496  20.592  67.149  1.00  0.00    -0.357 C  
ENDBRANCH  24  25
ENDBRANCH  23  24
ENDBRANCH  22  23
ENDBRANCH  21  22
ENDBRANCH  20  21
ENDBRANCH  17  20
ENDBRANCH  15  17
ENDBRANCH   1  15
BRANCH   1  27
HETATM   27  C   UNL     1     -11.301  13.586  69.218  1.00  0.00    -0.262 C  
BRANCH  27  28
HETATM   28  N   UNL     1     -12.125  14.623  69.886  1.00  0.00    -0.319 NA 
HETATM   29  C   UNL     1     -11.237  15.657  70.469  1.00  0.00    -0.362 C  
HETATM   30  C   UNL     1     -12.904  14.081  71.000  1.00  0.00    -0.340 C  
HETATM   31  C   UNL     1     -11.796  16.039  71.833  1.00  0.00    -0.619 C  
HETATM   32  C   UNL     1     -13.043  15.203  72.009  1.00  0.00    -0.453 C  
ENDBRANCH  27  28
ENDBRANCH   1  27
TORSDOF 12
ENDMDL
MODEL      201
REMARK 921   NORMALIZED FREE ENERGY PREDICTED BY IDOCK:   -4.45 KCAL/MOL
REMARK 922        TOTAL FREE ENERGY PREDICTED BY IDOCK:   -9.63 KCAL/MOL
REMARK 923 INTER-LIGAND FREE ENERGY PREDICTED BY IDOCK:   -8.62 KCAL/MOL
REMARK 924 INTRA-LIGAND FREE ENERGY PREDICTED BY IDOCK:   -1.01 KCAL/MOL
REMARK 927      BINDING AFFINITY PREDICTED BY RF-SCORE:    0.00 PKD
ROOT
HETATM    1  C   UNL     1     -10.932  13.399  67.298  1.00  0.00    -0.272 C  
ENDROOT
BRANCH   1   2
HETATM    2  C   UNL     1     -11.419  14.645  66.488  1.00  0.00    -0.351 C  
HETATM    3  O   UNL     1     -11.700  14.308  65.124  1.00  0.00    -0.340 OA 
HETATM    4  H   UNL     1     -11.996  15.065  64.631  1.00  0.00     0.000 HD 
BRANCH   2   5
HETATM    5  C   UNL     1     -10.463  15.837  66.579  1.00  0.00    -0.304 A  
HETATM    6  C   UNL     1      -9.323  19.709  68.890  1.00  0.00    -0.281 C  
HETATM    7  C   UNL     1      -9.989  18.061  67.453  1.00  0.00    -0.326 A  
HETATM    8  C   UNL     1      -9.142  15.788  66.094  1.00  0.00    -0.377 A  
HETATM    9  C   UNL     1      -8.686  18.004  66.957  1.00  0.00    -0.247 A  
HETATM   10  C   UNL     1      -8.265  20.116  67.878  1.00  0.00    -0.215 C  
HETATM   11  C   UNL     1     -10.885  17.012  67.232  1.00  0.00    -0.123 A  
HETATM   12  O   UNL     1      -7.752  18.987  67.158  1.00  0.00    -0.232 OA 
HETATM   13  O   UNL     1     -10.438  19.109  68.218  1.00  0.00    -0.380 OA 
HETATM   14  C   UNL     1      -8.270  16.873  66.259  1.00  0.00    -0.344 A  
ENDBRANCH   2   5
ENDBRANCH   1   2
BRANCH   1  15
HETATM   15  N   UNL     1     -10.453  13.862  68.612  1.00  0.00    -0.245 NA 
HETATM   16  H   UNL     1      -9.442  13.886  68.746  1.00  0.00     0.000 HD 
BRANCH  15  17
HETATM   17  C   UNL     1     -11.166  14.236  69.597  1.00  0.00    -0.210 C  
HETATM   18  H   UNL     1     -11.388  15.476  71.204  1.00  0.00     0.000 HD 
HETATM   19  O   UNL     1     -10.855  15.197  70.468  1.00  0.00    -0.263 OA 
BRANCH  17  20
HETATM   20  C   UNL     1     -12.491  13.568  69.869  1.00  0.00    -0.194 C  
BRANCH  20  21
HETATM   21  C   UNL     1     -12.383  12.438  70.888  1.00  0.00    -0.358 C  
BRANCH  21  22
HETATM   22  C   UNL     1     -11.667  11.200  70.345  1.00  0.00    -0.415 C  
BRANCH  22  23
HETATM   23  C   UNL     1     -12.097   9.944  71.105  1.00  0.00    -0.466 C  
BRANCH  23  24
HETATM   24  C   UNL     1     -13.497  10.094  71.701  1.00  0.00    -0.376 C  
BRANCH  24  25
HETATM   25  C   UNL     1     -13.880   8.861  72.521  1.00  0.00    -0.472 C  
HETATM   26  C   UNL     1     -14.030   7.630  71.642  1.00  0.00    -0.510 C  
ENDBRANCH  24  25
ENDBRANCH  23  24
ENDBRANCH  22  23
ENDBRANCH  21  22
ENDBRANCH  20  21
ENDBRANCH  17  20
ENDBRANCH  15  17
ENDBRANCH   1  15
BRANCH   1  27
HETATM   27  C   UNL     1      -9.710  12.605  66.717  1.00  0.00    -0.240 C  
BRANCH  27  28
HETATM   28  N   UNL     1      -9.839  11.228  66.182  1.00  0.00    -0.217 NA 
HETATM   29  C   UNL     1     -10.889  10.502  66.936  1.00  0.00    -0.187 C  
HETATM   30  C   UNL     1      -8.610  10.451  66.349  1.00  0.00    -0.132 C  
HETATM   31  C   UNL     1     -10.399   9.081  67.174  1.00  0.00    -0.342 C  
HETATM   32  C   UNL     1      -9.039   9.007  66.520  1.00  0.00    -0.202 C  
ENDBRANCH  27  28
ENDBRANCH   1  27
TORSDOF 12
ENDMDL
MODEL      202
REMARK 921   NORMALIZED FREE ENERGY PREDICTED BY IDOCK:   -4.44 KCAL/MOL
REMARK 922        TOTAL FREE ENERGY PREDICTED BY IDOCK:   -9.61 KCAL/MOL
REMARK 923 INTER-LIGAND FREE ENERGY PREDICTED BY IDOCK:   -7.03 KCAL/MOL
REMARK 924 INTRA-LIGAND FREE ENERGY PREDICTED BY IDOCK:   -2.58 KCAL/MOL
REMARK 927      BINDING AFFINITY PREDICTED BY RF-SCORE:    0.00 PKD
ROOT
HETATM    1  C   UNL     1     -11.104  12.954  67.853  1.00  0.00    -0.252 C  
ENDROOT
BRANCH   1   2
HETATM    2  C   UNL     1     -11.762  11.555  67.614  1.00  0.00    -0.208 C  
HETATM    3  O   UNL     1     -12.189  10.958  68.845  1.00  0.00    -0.709 OA 
HETATM    4  H   UNL     1     -12.588  10.108  68.700  1.00  0.00     0.000 HD 
BRANCH   2   5
HETATM    5  C   UNL     1     -10.875  10.599  66.811  1.00  0.00    -0.233 A  
HETATM    6  C   UNL     1      -7.902  10.147  63.264  1.00  0.00    -0.155 C  
HETATM    7  C   UNL     1      -9.615  10.145  64.776  1.00  0.00    -0.314 A  
HETATM    8  C   UNL     1     -10.323   9.430  67.368  1.00  0.00    -0.325 A  
HETATM    9  C   UNL     1      -9.084   8.982  65.336  1.00  0.00    -0.193 A  
HETATM   10  C   UNL     1      -7.842   8.633  63.381  1.00  0.00    -0.151 C  
HETATM   11  C   UNL     1     -10.534  10.925  65.484  1.00  0.00    -0.286 A  
HETATM   12  O   UNL     1      -8.163   8.186  64.705  1.00  0.00    -0.149 OA 
HETATM   13  O   UNL     1      -9.230  10.608  63.542  1.00  0.00    -0.214 OA 
HETATM   14  C   UNL     1      -9.455   8.615  66.627  1.00  0.00    -0.267 A  
ENDBRANCH   2   5
ENDBRANCH   1   2
BRANCH   1  15
HETATM   15  N   UNL     1      -9.920  12.766  68.709  1.00  0.00    -0.421 NA 
HETATM   16  H   UNL     1     -10.095  12.490  69.676  1.00  0.00     0.000 HD 
BRANCH  15  17
HETATM   17  C   UNL     1      -8.702  12.909  68.370  1.00  0.00    -0.119 C  
HETATM   18  H   UNL     1      -7.237  14.134  67.649  1.00  0.00     0.000 HD 
HETATM   19  O   UNL     1      -8.147  14.027  67.902  1.00  0.00    -0.130 OA 
BRANCH  17  20
HETATM   20  C   UNL     1      -7.746  11.746  68.474  1.00  0.00    -0.137 C  
BRANCH  20  21
HETATM   21  C   UNL     1      -7.037  11.448  67.157  1.00  0.00    -0.134 C  
BRANCH  21  22
HETATM   22  C   UNL     1      -5.955  10.374  67.284  1.00  0.00    -0.053 C  
BRANCH  22  23
HETATM   23  C   UNL     1      -6.115   9.590  68.587  1.00  0.00    -0.043 C  
BRANCH  23  24
HETATM   24  C   UNL     1      -6.539   8.144  68.331  1.00  0.00    -0.059 C  
BRANCH  24  25
HETATM   25  C   UNL     1      -7.259   7.558  69.546  1.00  0.00    -0.082 C  
HETATM   26  C   UNL     1      -8.267   8.538  70.124  1.00  0.00    -0.121 C  
ENDBRANCH  24  25
ENDBRANCH  23  24
ENDBRANCH  22  23
ENDBRANCH  21  22
ENDBRANCH  20  21
ENDBRANCH  17  20
ENDBRANCH  15  17
ENDBRANCH   1  15
BRANCH   1  27
HETATM   27  C   UNL     1     -11.956  14.018  68.630  1.00  0.00    -0.354 C  
BRANCH  27  28
HETATM   28  N   UNL     1     -11.662  14.402  70.032  1.00  0.00    -0.283 NA 
HETATM   29  C   UNL     1     -12.830  14.081  70.886  1.00  0.00    -0.318 C  
HETATM   30  C   UNL     1     -11.435  15.840  70.177  1.00  0.00    -0.361 C  
HETATM   31  C   UNL     1     -13.018  15.225  71.873  1.00  0.00    -0.467 C  
HETATM   32  C   UNL     1     -11.911  16.208  71.569  1.00  0.00    -0.490 C  
ENDBRANCH  27  28
ENDBRANCH   1  27
TORSDOF 12
ENDMDL
MODEL      203
REMARK 921   NORMALIZED FREE ENERGY PREDICTED BY IDOCK:   -4.44 KCAL/MOL
REMARK 922        TOTAL FREE ENERGY PREDICTED BY IDOCK:   -9.61 KCAL/MOL
REMARK 923 INTER-LIGAND FREE ENERGY PREDICTED BY IDOCK:   -7.85 KCAL/MOL
REMARK 924 INTRA-LIGAND FREE ENERGY PREDICTED BY IDOCK:   -1.76 KCAL/MOL
REMARK 927      BINDING AFFINITY PREDICTED BY RF-SCORE:    0.00 PKD
ROOT
HETATM    1  C   UNL     1     -10.653  15.931  66.968  1.00  0.00    -0.306 C  
ENDROOT
BRANCH   1   2
HETATM    2  C   UNL     1     -11.766  14.849  66.772  1.00  0.00    -0.233 C  
HETATM    3  O   UNL     1     -12.513  14.640  67.978  1.00  0.00    -0.595 OA 
HETATM    4  H   UNL     1     -13.190  13.983  67.859  1.00  0.00     0.000 HD 
BRANCH   2   5
HETATM    5  C   UNL     1     -11.233  13.527  66.214  1.00  0.00    -0.310 A  
HETATM    6  C   UNL     1      -8.926  11.444  62.755  1.00  0.00    -0.174 C  
HETATM    7  C   UNL     1     -10.384  12.264  64.311  1.00  0.00    -0.348 A  
HETATM    8  C   UNL     1     -10.896  12.436  67.039  1.00  0.00    -0.282 A  
HETATM    9  C   UNL     1     -10.067  11.186  65.138  1.00  0.00    -0.281 A  
HETATM   10  C   UNL     1      -9.201  10.046  63.284  1.00  0.00    -0.284 C  
HETATM   11  C   UNL     1     -11.001  13.406  64.830  1.00  0.00    -0.353 A  
HETATM   12  O   UNL     1      -9.442  10.048  64.698  1.00  0.00    -0.270 OA 
HETATM   13  O   UNL     1     -10.066  12.284  62.976  1.00  0.00    -0.300 OA 
HETATM   14  C   UNL     1     -10.342  11.267  66.501  1.00  0.00    -0.284 A  
ENDBRANCH   2   5
ENDBRANCH   1   2
BRANCH   1  15
HETATM   15  N   UNL     1      -9.481  15.280  67.578  1.00  0.00    -0.201 NA 
HETATM   16  H   UNL     1      -8.845  14.797  66.942  1.00  0.00     0.000 HD 
BRANCH  15  17
HETATM   17  C   UNL     1      -9.177  15.255  68.814  1.00  0.00    -0.203 C  
HETATM   18  H   UNL     1      -9.755  14.866  70.733  1.00  0.00     0.000 HD 
HETATM   19  O   UNL     1      -9.982  14.885  69.810  1.00  0.00    -0.100 OA 
BRANCH  17  20
HETATM   20  C   UNL     1      -7.801  15.681  69.263  1.00  0.00    -0.230 C  
BRANCH  20  21
HETATM   21  C   UNL     1      -6.851  14.502  69.447  1.00  0.00    -0.149 C  
BRANCH  21  22
HETATM   22  C   UNL     1      -6.114  14.115  68.163  1.00  0.00    -0.133 C  
BRANCH  22  23
HETATM   23  C   UNL     1      -6.531  12.719  67.696  1.00  0.00    -0.152 C  
BRANCH  23  24
HETATM   24  C   UNL     1      -7.596  12.110  68.607  1.00  0.00    -0.097 C  
BRANCH  24  25
HETATM   25  C   UNL     1      -7.274  10.651  68.930  1.00  0.00    -0.090 C  
HETATM   26  C   UNL     1      -8.400   9.989  69.707  1.00  0.00    -0.187 C  
ENDBRANCH  24  25
ENDBRANCH  23  24
ENDBRANCH  22  23
ENDBRANCH  21  22
ENDBRANCH  20  21
ENDBRANCH  17  20
ENDBRANCH  15  17
ENDBRANCH   1  15
BRANCH   1  27
HETATM   27  C   UNL     1     -10.973  17.112  67.950  1.00  0.00    -0.208 C  
BRANCH  27  28
HETATM   28  N   UNL     1     -10.925  18.532  67.526  1.00  0.00    -0.284 NA 
HETATM   29  C   UNL     1     -10.483  18.611  66.114  1.00  0.00    -0.430 C  
HETATM   30  C   UNL     1      -9.957  19.310  68.300  1.00  0.00    -0.410 C  
HETATM   31  C   UNL     1      -9.522  19.785  65.989  1.00  0.00    -0.393 C  
HETATM   32  C   UNL     1      -9.438  20.390  67.371  1.00  0.00    -0.561 C  
ENDBRANCH  27  28
ENDBRANCH   1  27
TORSDOF 12
ENDMDL
MODEL      204
REMARK 921   NORMALIZED FREE ENERGY PREDICTED BY IDOCK:   -4.43 KCAL/MOL
REMARK 922        TOTAL FREE ENERGY PREDICTED BY IDOCK:   -9.60 KCAL/MOL
REMARK 923 INTER-LIGAND FREE ENERGY PREDICTED BY IDOCK:   -8.48 KCAL/MOL
REMARK 924 INTRA-LIGAND FREE ENERGY PREDICTED BY IDOCK:   -1.11 KCAL/MOL
REMARK 927      BINDING AFFINITY PREDICTED BY RF-SCORE:    0.00 PKD
ROOT
HETATM    1  C   UNL     1     -10.937  11.517  66.276  1.00  0.00    -0.275 C  
ENDROOT
BRANCH   1   2
HETATM    2  C   UNL     1     -11.956  12.536  65.666  1.00  0.00    -0.433 C  
HETATM    3  O   UNL     1     -12.187  12.280  64.275  1.00  0.00    -0.415 OA 
HETATM    4  H   UNL     1     -12.806  12.899  63.904  1.00  0.00     0.000 HD 
BRANCH   2   5
HETATM    5  C   UNL     1     -11.566  13.997  65.904  1.00  0.00    -0.350 A  
HETATM    6  C   UNL     1     -10.479  17.243  69.053  1.00  0.00    -0.309 C  
HETATM    7  C   UNL     1     -11.353  15.868  67.450  1.00  0.00    -0.048 A  
HETATM    8  C   UNL     1     -10.892  14.769  64.938  1.00  0.00    -0.433 A  
HETATM    9  C   UNL     1     -10.697  16.626  66.479  1.00  0.00    -0.127 A  
HETATM   10  C   UNL     1     -10.459  18.366  68.029  1.00  0.00    -0.363 C  
HETATM   11  C   UNL     1     -11.823  14.585  67.158  1.00  0.00    -0.412 A  
HETATM   12  O   UNL     1     -10.192  17.880  66.707  1.00  0.00    -0.329 OA 
HETATM   13  O   UNL     1     -11.522  16.312  68.738  1.00  0.00    -0.353 OA 
HETATM   14  C   UNL     1     -10.485  16.081  65.216  1.00  0.00    -0.384 A  
ENDBRANCH   2   5
ENDBRANCH   1   2
BRANCH   1  15
HETATM   15  N   UNL     1     -10.915  11.706  67.736  1.00  0.00    -0.218 NA 
HETATM   16  H   UNL     1     -11.615  12.338  68.125  1.00  0.00     0.000 HD 
BRANCH  15  17
HETATM   17  C   UNL     1     -10.116  11.164  68.565  1.00  0.00    -0.201 C  
HETATM   18  H   UNL     1      -8.382  11.291  69.636  1.00  0.00     0.000 HD 
HETATM   19  O   UNL     1      -8.980  11.696  69.017  1.00  0.00     0.021 OA 
BRANCH  17  20
HETATM   20  C   UNL     1     -10.414   9.793  69.118  1.00  0.00    -0.232 C  
BRANCH  20  21
HETATM   21  C   UNL     1      -9.809   9.571  70.500  1.00  0.00    -0.331 C  
BRANCH  21  22
HETATM   22  C   UNL     1     -10.859   9.369  71.594  1.00  0.00    -0.348 C  
BRANCH  22  23
HETATM   23  C   UNL     1     -12.273   9.490  71.021  1.00  0.00    -0.385 C  
BRANCH  23  24
HETATM   24  C   UNL     1     -13.106  10.522  71.780  1.00  0.00    -0.570 C  
BRANCH  24  25
HETATM   25  C   UNL     1     -12.711  11.946  71.385  1.00  0.00    -0.395 C  
HETATM   26  C   UNL     1     -13.456  12.982  72.210  1.00  0.00    -0.645 C  
ENDBRANCH  24  25
ENDBRANCH  23  24
ENDBRANCH  22  23
ENDBRANCH  21  22
ENDBRANCH  20  21
ENDBRANCH  17  20
ENDBRANCH  15  17
ENDBRANCH   1  15
BRANCH   1  27
HETATM   27  C   UNL     1      -9.434  11.678  65.858  1.00  0.00    -0.228 C  
BRANCH  27  28
HETATM   28  N   UNL     1      -8.590  10.523  65.467  1.00  0.00    -0.175 NA 
HETATM   29  C   UNL     1      -9.282   9.263  65.825  1.00  0.00    -0.224 C  
HETATM   30  C   UNL     1      -7.312  10.502  66.180  1.00  0.00    -0.136 C  
HETATM   31  C   UNL     1      -8.244   8.301  66.386  1.00  0.00    -0.107 C  
HETATM   32  C   UNL     1      -6.929   9.043  66.325  1.00  0.00    -0.079 C  
ENDBRANCH  27  28
ENDBRANCH   1  27
TORSDOF 12
ENDMDL
MODEL      205
REMARK 921   NORMALIZED FREE ENERGY PREDICTED BY IDOCK:   -4.42 KCAL/MOL
REMARK 922        TOTAL FREE ENERGY PREDICTED BY IDOCK:   -9.58 KCAL/MOL
REMARK 923 INTER-LIGAND FREE ENERGY PREDICTED BY IDOCK:   -8.43 KCAL/MOL
REMARK 924 INTRA-LIGAND FREE ENERGY PREDICTED BY IDOCK:   -1.15 KCAL/MOL
REMARK 927      BINDING AFFINITY PREDICTED BY RF-SCORE:    0.00 PKD
ROOT
HETATM    1  C   UNL     1      -9.398  11.550  67.147  1.00  0.00    -0.172 C  
ENDROOT
BRANCH   1   2
HETATM    2  C   UNL     1      -9.896  12.958  67.611  1.00  0.00    -0.211 C  
HETATM    3  O   UNL     1      -8.804  13.873  67.778  1.00  0.00    -0.170 OA 
HETATM    4  H   UNL     1      -9.106  14.729  68.060  1.00  0.00     0.000 HD 
BRANCH   2   5
HETATM    5  C   UNL     1     -10.772  12.908  68.865  1.00  0.00    -0.195 A  
HETATM    6  C   UNL     1     -13.941  15.117  71.456  1.00  0.00    -0.522 C  
HETATM    7  C   UNL     1     -12.134  14.095  70.500  1.00  0.00    -0.350 A  
HETATM    8  C   UNL     1     -11.212  11.698  69.434  1.00  0.00    -0.311 A  
HETATM    9  C   UNL     1     -12.553  12.888  71.062  1.00  0.00    -0.287 A  
HETATM   10  C   UNL     1     -13.898  14.079  72.566  1.00  0.00    -0.505 C  
HETATM   11  C   UNL     1     -11.221  14.112  69.442  1.00  0.00    -0.298 A  
HETATM   12  O   UNL     1     -13.462  12.800  72.084  1.00  0.00    -0.530 OA 
HETATM   13  O   UNL     1     -12.628  15.307  70.913  1.00  0.00    -0.347 OA 
HETATM   14  C   UNL     1     -12.075  11.689  70.540  1.00  0.00    -0.458 A  
ENDBRANCH   2   5
ENDBRANCH   1   2
BRANCH   1  15
HETATM   15  N   UNL     1      -7.976  11.422  67.509  1.00  0.00    -0.121 NA 
HETATM   16  H   UNL     1      -7.305  11.880  66.891  1.00  0.00     0.000 HD 
BRANCH  15  17
HETATM   17  C   UNL     1      -7.496  10.800  68.510  1.00  0.00    -0.100 C  
HETATM   18  H   UNL     1      -6.403  10.874  70.233  1.00  0.00     0.000 HD 
HETATM   19  O   UNL     1      -6.763  11.338  69.485  1.00  0.00    -0.111 OA 
BRANCH  17  20
HETATM   20  C   UNL     1      -7.730   9.319  68.664  1.00  0.00    -0.085 C  
BRANCH  20  21
HETATM   21  C   UNL     1      -7.490   8.547  67.370  1.00  0.00    -0.093 C  
BRANCH  21  22
HETATM   22  C   UNL     1      -8.641   7.606  67.006  1.00  0.00    -0.122 C  
BRANCH  22  23
HETATM   23  C   UNL     1      -9.879   7.907  67.853  1.00  0.00    -0.201 C  
BRANCH  23  24
HETATM   24  C   UNL     1     -10.750   6.666  68.045  1.00  0.00    -0.330 C  
BRANCH  24  25
HETATM   25  C   UNL     1     -11.220   6.542  69.494  1.00  0.00    -0.434 C  
HETATM   26  C   UNL     1     -10.630   5.316  70.170  1.00  0.00    -0.297 C  
ENDBRANCH  24  25
ENDBRANCH  23  24
ENDBRANCH  22  23
ENDBRANCH  21  22
ENDBRANCH  20  21
ENDBRANCH  17  20
ENDBRANCH  15  17
ENDBRANCH   1  15
BRANCH   1  27
HETATM   27  C   UNL     1      -9.416  11.262  65.605  1.00  0.00    -0.229 C  
BRANCH  27  28
HETATM   28  N   UNL     1     -10.664  11.290  64.805  1.00  0.00    -0.305 NA 
HETATM   29  C   UNL     1     -10.456  12.118  63.594  1.00  0.00    -0.460 C  
HETATM   30  C   UNL     1     -11.776  11.905  65.532  1.00  0.00    -0.157 C  
HETATM   31  C   UNL     1     -11.711  12.950  63.373  1.00  0.00    -0.526 C  
HETATM   32  C   UNL     1     -12.655  12.563  64.488  1.00  0.00    -0.503 C  
ENDBRANCH  27  28
ENDBRANCH   1  27
TORSDOF 12
ENDMDL
MODEL      206
REMARK 921   NORMALIZED FREE ENERGY PREDICTED BY IDOCK:   -4.42 KCAL/MOL
REMARK 922        TOTAL FREE ENERGY PREDICTED BY IDOCK:   -9.57 KCAL/MOL
REMARK 923 INTER-LIGAND FREE ENERGY PREDICTED BY IDOCK:   -7.93 KCAL/MOL
REMARK 924 INTRA-LIGAND FREE ENERGY PREDICTED BY IDOCK:   -1.64 KCAL/MOL
REMARK 927      BINDING AFFINITY PREDICTED BY RF-SCORE:    0.00 PKD
ROOT
HETATM    1  C   UNL     1      -9.435   9.684  66.564  1.00  0.00    -0.181 C  
ENDROOT
BRANCH   1   2
HETATM    2  C   UNL     1      -9.362   8.196  67.041  1.00  0.00    -0.155 C  
HETATM    3  O   UNL     1      -9.788   7.293  66.011  1.00  0.00    -0.424 OA 
HETATM    4  H   UNL     1      -9.743   6.388  66.301  1.00  0.00     0.000 HD 
BRANCH   2   5
HETATM    5  C   UNL     1     -10.117   7.941  68.348  1.00  0.00    -0.218 A  
HETATM    6  C   UNL     1     -12.814   9.764  71.670  1.00  0.00    -0.421 C  
HETATM    7  C   UNL     1     -11.205   8.846  70.331  1.00  0.00    -0.230 A  
HETATM    8  C   UNL     1     -10.609   6.671  68.705  1.00  0.00    -0.271 A  
HETATM    9  C   UNL     1     -11.676   7.579  70.680  1.00  0.00    -0.215 A  
HETATM   10  C   UNL     1     -12.760   8.515  72.534  1.00  0.00    -0.270 C  
HETATM   11  C   UNL     1     -10.398   9.024  69.204  1.00  0.00    -0.229 A  
HETATM   12  O   UNL     1     -12.489   7.340  71.757  1.00  0.00    -0.320 OA 
HETATM   13  O   UNL     1     -11.547   9.975  71.034  1.00  0.00    -0.343 OA 
HETATM   14  C   UNL     1     -11.360   6.488  69.875  1.00  0.00    -0.469 A  
ENDBRANCH   2   5
ENDBRANCH   1   2
BRANCH   1  15
HETATM   15  N   UNL     1     -10.129   9.717  65.265  1.00  0.00    -0.341 NA 
HETATM   16  H   UNL     1     -11.085   9.360  65.249  1.00  0.00     0.000 HD 
BRANCH  15  17
HETATM   17  C   UNL     1      -9.662  10.144  64.161  1.00  0.00    -0.233 C  
HETATM   18  H   UNL     1      -8.502   9.792  62.518  1.00  0.00     0.000 HD 
HETATM   19  O   UNL     1      -8.851   9.473  63.343  1.00  0.00    -0.227 OA 
BRANCH  17  20
HETATM   20  C   UNL     1     -10.010  11.530  63.678  1.00  0.00    -0.409 C  
BRANCH  20  21
HETATM   21  C   UNL     1     -11.057  12.213  64.552  1.00  0.00    -0.375 C  
BRANCH  21  22
HETATM   22  C   UNL     1     -10.601  13.570  65.092  1.00  0.00    -0.364 C  
BRANCH  22  23
HETATM   23  C   UNL     1     -11.215  13.844  66.466  1.00  0.00    -0.327 C  
BRANCH  23  24
HETATM   24  C   UNL     1     -11.650  12.554  67.161  1.00  0.00    -0.437 C  
BRANCH  24  25
HETATM   25  C   UNL     1     -11.294  12.583  68.648  1.00  0.00    -0.329 C  
HETATM   26  C   UNL     1     -11.979  13.735  69.364  1.00  0.00    -0.397 C  
ENDBRANCH  24  25
ENDBRANCH  23  24
ENDBRANCH  22  23
ENDBRANCH  21  22
ENDBRANCH  20  21
ENDBRANCH  17  20
ENDBRANCH  15  17
ENDBRANCH   1  15
BRANCH   1  27
HETATM   27  C   UNL     1      -8.073  10.406  66.276  1.00  0.00    -0.136 C  
BRANCH  27  28
HETATM   28  N   UNL     1      -7.321  11.132  67.329  1.00  0.00    -0.111 NA 
HETATM   29  C   UNL     1      -7.772  12.543  67.374  1.00  0.00    -0.167 C  
HETATM   30  C   UNL     1      -5.884  11.174  67.054  1.00  0.00    -0.079 C  
HETATM   31  C   UNL     1      -6.545  13.422  67.570  1.00  0.00    -0.143 C  
HETATM   32  C   UNL     1      -5.374  12.470  67.651  1.00  0.00    -0.111 C  
ENDBRANCH  27  28
ENDBRANCH   1  27
TORSDOF 12
ENDMDL
MODEL      207
REMARK 921   NORMALIZED FREE ENERGY PREDICTED BY IDOCK:   -4.42 KCAL/MOL
REMARK 922        TOTAL FREE ENERGY PREDICTED BY IDOCK:   -9.57 KCAL/MOL
REMARK 923 INTER-LIGAND FREE ENERGY PREDICTED BY IDOCK:   -8.30 KCAL/MOL
REMARK 924 INTRA-LIGAND FREE ENERGY PREDICTED BY IDOCK:   -1.27 KCAL/MOL
REMARK 927      BINDING AFFINITY PREDICTED BY RF-SCORE:    0.00 PKD
ROOT
HETATM    1  C   UNL     1     -10.277  13.010  67.831  1.00  0.00    -0.234 C  
ENDROOT
BRANCH   1   2
HETATM    2  C   UNL     1      -9.473  14.134  68.563  1.00  0.00    -0.202 C  
HETATM    3  O   UNL     1     -10.023  14.415  69.857  1.00  0.00    -0.286 OA 
HETATM    4  H   UNL     1      -9.534  15.099  70.302  1.00  0.00     0.000 HD 
BRANCH   2   5
HETATM    5  C   UNL     1      -9.328  15.412  67.733  1.00  0.00    -0.195 A  
HETATM    6  C   UNL     1     -10.406  19.921  67.362  1.00  0.00    -0.426 C  
HETATM    7  C   UNL     1     -10.118  17.659  67.218  1.00  0.00    -0.331 A  
HETATM    8  C   UNL     1      -8.222  15.652  66.895  1.00  0.00    -0.288 A  
HETATM    9  C   UNL     1      -9.023  17.878  66.382  1.00  0.00    -0.227 A  
HETATM   10  C   UNL     1      -9.793  20.053  65.978  1.00  0.00    -0.406 C  
HETATM   11  C   UNL     1     -10.297  16.427  67.854  1.00  0.00    -0.286 A  
HETATM   12  O   UNL     1      -8.776  19.068  65.747  1.00  0.00    -0.403 OA 
HETATM   13  O   UNL     1     -11.035  18.641  67.499  1.00  0.00    -0.392 OA 
HETATM   14  C   UNL     1      -8.084  16.865  66.206  1.00  0.00    -0.351 A  
ENDBRANCH   2   5
ENDBRANCH   1   2
BRANCH   1  15
HETATM   15  N   UNL     1     -10.111  11.758  68.588  1.00  0.00    -0.288 NA 
HETATM   16  H   UNL     1     -10.911  11.451  69.143  1.00  0.00     0.000 HD 
BRANCH  15  17
HETATM   17  C   UNL     1      -9.077  11.018  68.625  1.00  0.00    -0.174 C  
HETATM   18  H   UNL     1      -7.040  10.890  68.675  1.00  0.00     0.000 HD 
HETATM   19  O   UNL     1      -7.813  11.442  68.648  1.00  0.00    -0.128 OA 
BRANCH  17  20
HETATM   20  C   UNL     1      -9.220   9.517  68.635  1.00  0.00    -0.135 C  
BRANCH  20  21
HETATM   21  C   UNL     1     -10.529   9.046  68.011  1.00  0.00    -0.270 C  
BRANCH  21  22
HETATM   22  C   UNL     1     -10.328   8.057  66.860  1.00  0.00    -0.408 C  
BRANCH  22  23
HETATM   23  C   UNL     1      -8.892   8.115  66.336  1.00  0.00    -0.182 C  
BRANCH  23  24
HETATM   24  C   UNL     1      -8.786   8.953  65.063  1.00  0.00    -0.200 C  
BRANCH  24  25
HETATM   25  C   UNL     1      -7.603   9.920  65.139  1.00  0.00    -0.132 C  
HETATM   26  C   UNL     1      -6.887  10.033  63.803  1.00  0.00    -0.126 C  
ENDBRANCH  24  25
ENDBRANCH  23  24
ENDBRANCH  22  23
ENDBRANCH  21  22
ENDBRANCH  20  21
ENDBRANCH  17  20
ENDBRANCH  15  17
ENDBRANCH   1  15
BRANCH   1  27
HETATM   27  C   UNL     1      -9.812  12.630  66.382  1.00  0.00    -0.259 C  
BRANCH  27  28
HETATM   28  N   UNL     1     -10.595  12.993  65.175  1.00  0.00    -0.302 NA 
HETATM   29  C   UNL     1     -12.025  13.130  65.538  1.00  0.00    -0.412 C  
HETATM   30  C   UNL     1     -10.535  11.957  64.143  1.00  0.00    -0.349 C  
HETATM   31  C   UNL     1     -12.854  12.506  64.424  1.00  0.00    -0.366 C  
HETATM   32  C   UNL     1     -11.855  12.019  63.400  1.00  0.00    -0.542 C  
ENDBRANCH  27  28
ENDBRANCH   1  27
TORSDOF 12
ENDMDL
MODEL      208
REMARK 921   NORMALIZED FREE ENERGY PREDICTED BY IDOCK:   -4.40 KCAL/MOL
REMARK 922        TOTAL FREE ENERGY PREDICTED BY IDOCK:   -9.55 KCAL/MOL
REMARK 923 INTER-LIGAND FREE ENERGY PREDICTED BY IDOCK:   -8.73 KCAL/MOL
REMARK 924 INTRA-LIGAND FREE ENERGY PREDICTED BY IDOCK:   -0.81 KCAL/MOL
REMARK 927      BINDING AFFINITY PREDICTED BY RF-SCORE:    0.00 PKD
ROOT
HETATM    1  C   UNL     1     -13.022  10.924  70.629  1.00  0.00    -0.184 C  
ENDROOT
BRANCH   1   2
HETATM    2  C   UNL     1     -13.206   9.515  71.284  1.00  0.00    -0.328 C  
HETATM    3  O   UNL     1     -13.754   9.618  72.605  1.00  0.00    -0.701 OA 
HETATM    4  H   UNL     1     -13.866   8.762  73.003  1.00  0.00     0.000 HD 
BRANCH   2   5
HETATM    5  C   UNL     1     -11.926   8.675  71.279  1.00  0.00    -0.339 A  
HETATM    6  C   UNL     1      -8.065   7.503  73.591  1.00  0.00    -0.138 C  
HETATM    7  C   UNL     1      -9.706   8.261  72.193  1.00  0.00    -0.274 A  
HETATM    8  C   UNL     1     -11.816   7.465  70.567  1.00  0.00    -0.187 A  
HETATM    9  C   UNL     1      -9.606   7.070  71.473  1.00  0.00    -0.158 A  
HETATM   10  C   UNL     1      -7.505   6.688  72.436  1.00  0.00    -0.093 C  
HETATM   11  C   UNL     1     -10.832   9.079  72.068  1.00  0.00    -0.342 A  
HETATM   12  O   UNL     1      -8.541   6.211  71.567  1.00  0.00    -0.130 OA 
HETATM   13  O   UNL     1      -8.745   8.660  73.090  1.00  0.00    -0.371 OA 
HETATM   14  C   UNL     1     -10.655   6.683  70.644  1.00  0.00    -0.268 A  
ENDBRANCH   2   5
ENDBRANCH   1   2
BRANCH   1  15
HETATM   15  N   UNL     1     -11.787  10.901  69.826  1.00  0.00    -0.316 NA 
HETATM   16  H   UNL     1     -10.926  10.668  70.321  1.00  0.00     0.000 HD 
BRANCH  15  17
HETATM   17  C   UNL     1     -11.680  11.140  68.581  1.00  0.00    -0.320 C  
HETATM   18  H   UNL     1     -11.359  10.416  66.699  1.00  0.00     0.000 HD 
HETATM   19  O   UNL     1     -11.439  10.238  67.630  1.00  0.00    -0.345 OA 
BRANCH  17  20
HETATM   20  C   UNL     1     -11.819  12.551  68.067  1.00  0.00    -0.382 C  
BRANCH  20  21
HETATM   21  C   UNL     1     -10.578  13.398  68.331  1.00  0.00    -0.259 C  
BRANCH  21  22
HETATM   22  C   UNL     1     -10.049  14.100  67.079  1.00  0.00    -0.261 C  
BRANCH  22  23
HETATM   23  C   UNL     1      -8.961  15.114  67.441  1.00  0.00    -0.193 C  
BRANCH  23  24
HETATM   24  C   UNL     1      -9.543  16.349  68.128  1.00  0.00    -0.227 C  
BRANCH  24  25
HETATM   25  C   UNL     1      -8.491  17.451  68.259  1.00  0.00    -0.249 C  
HETATM   26  C   UNL     1      -8.715  18.561  67.247  1.00  0.00    -0.272 C  
ENDBRANCH  24  25
ENDBRANCH  23  24
ENDBRANCH  22  23
ENDBRANCH  21  22
ENDBRANCH  20  21
ENDBRANCH  17  20
ENDBRANCH  15  17
ENDBRANCH   1  15
BRANCH   1  27
HETATM   27  C   UNL     1     -12.811  12.138  71.599  1.00  0.00    -0.285 C  
BRANCH  27  28
HETATM   28  N   UNL     1     -13.363  13.485  71.318  1.00  0.00    -0.217 NA 
HETATM   29  C   UNL     1     -12.253  14.460  71.201  1.00  0.00    -0.350 C  
HETATM   30  C   UNL     1     -14.218  13.972  72.402  1.00  0.00    -0.403 C  
HETATM   31  C   UNL     1     -12.678  15.743  71.901  1.00  0.00    -0.516 C  
HETATM   32  C   UNL     1     -14.076  15.481  72.411  1.00  0.00    -0.627 C  
ENDBRANCH  27  28
ENDBRANCH   1  27
TORSDOF 12
ENDMDL
MODEL      209
REMARK 921   NORMALIZED FREE ENERGY PREDICTED BY IDOCK:   -4.39 KCAL/MOL
REMARK 922        TOTAL FREE ENERGY PREDICTED BY IDOCK:   -9.52 KCAL/MOL
REMARK 923 INTER-LIGAND FREE ENERGY PREDICTED BY IDOCK:   -8.48 KCAL/MOL
REMARK 924 INTRA-LIGAND FREE ENERGY PREDICTED BY IDOCK:   -1.03 KCAL/MOL
REMARK 927      BINDING AFFINITY PREDICTED BY RF-SCORE:    0.00 PKD
ROOT
HETATM    1  C   UNL     1     -10.223  14.319  68.174  1.00  0.00    -0.231 C  
ENDROOT
BRANCH   1   2
HETATM    2  C   UNL     1     -11.588  13.559  68.255  1.00  0.00    -0.346 C  
HETATM    3  O   UNL     1     -12.624  14.395  68.787  1.00  0.00    -0.548 OA 
HETATM    4  H   UNL     1     -13.453  13.934  68.837  1.00  0.00     0.000 HD 
BRANCH   2   5
HETATM    5  C   UNL     1     -11.499  12.234  69.017  1.00  0.00    -0.349 A  
HETATM    6  C   UNL     1     -13.540   9.398  72.086  1.00  0.00    -0.457 C  
HETATM    7  C   UNL     1     -12.256  10.847  70.871  1.00  0.00    -0.381 A  
HETATM    8  C   UNL     1     -10.789  11.122  68.525  1.00  0.00    -0.243 A  
HETATM    9  C   UNL     1     -11.539   9.756  70.378  1.00  0.00    -0.258 A  
HETATM   10  C   UNL     1     -12.354   8.449  72.143  1.00  0.00    -0.370 C  
HETATM   11  C   UNL     1     -12.205  12.086  70.227  1.00  0.00    -0.348 A  
HETATM   12  O   UNL     1     -11.564   8.509  70.948  1.00  0.00    -0.276 OA 
HETATM   13  O   UNL     1     -13.080  10.750  71.966  1.00  0.00    -0.483 OA 
HETATM   14  C   UNL     1     -10.789   9.901  69.214  1.00  0.00    -0.255 A  
ENDBRANCH   2   5
ENDBRANCH   1   2
BRANCH   1  15
HETATM   15  N   UNL     1     -10.500  15.731  67.859  1.00  0.00    -0.263 NA 
HETATM   16  H   UNL     1     -10.722  16.339  68.648  1.00  0.00     0.000 HD 
BRANCH  15  17
HETATM   17  C   UNL     1     -10.493  16.273  66.708  1.00  0.00    -0.287 C  
HETATM   18  H   UNL     1     -11.105  16.213  64.761  1.00  0.00     0.000 HD 
HETATM   19  O   UNL     1     -11.111  15.808  65.621  1.00  0.00    -0.265 OA 
BRANCH  17  20
HETATM   20  C   UNL     1      -9.728  17.552  66.479  1.00  0.00    -0.302 C  
BRANCH  20  21
HETATM   21  C   UNL     1     -10.126  18.659  67.449  1.00  0.00    -0.397 C  
BRANCH  21  22
HETATM   22  C   UNL     1      -9.110  19.801  67.513  1.00  0.00    -0.414 C  
BRANCH  22  23
HETATM   23  C   UNL     1      -7.716  19.272  67.857  1.00  0.00    -0.318 C  
BRANCH  23  24
HETATM   24  C   UNL     1      -7.237  19.779  69.217  1.00  0.00    -0.293 C  
BRANCH  24  25
HETATM   25  C   UNL     1      -5.796  19.346  69.489  1.00  0.00    -0.273 C  
HETATM   26  C   UNL     1      -5.743  18.064  70.304  1.00  0.00    -0.203 C  
ENDBRANCH  24  25
ENDBRANCH  23  24
ENDBRANCH  22  23
ENDBRANCH  21  22
ENDBRANCH  20  21
ENDBRANCH  17  20
ENDBRANCH  15  17
ENDBRANCH   1  15
BRANCH   1  27
HETATM   27  C   UNL     1      -9.228  13.876  67.045  1.00  0.00    -0.250 C  
BRANCH  27  28
HETATM   28  N   UNL     1      -7.765  13.781  67.268  1.00  0.00    -0.129 NA 
HETATM   29  C   UNL     1      -7.505  13.088  68.553  1.00  0.00    -0.123 C  
HETATM   30  C   UNL     1      -7.134  15.097  67.381  1.00  0.00    -0.187 C  
HETATM   31  C   UNL     1      -6.357  13.805  69.249  1.00  0.00    -0.110 C  
HETATM   32  C   UNL     1      -5.953  14.924  68.316  1.00  0.00    -0.125 C  
ENDBRANCH  27  28
ENDBRANCH   1  27
TORSDOF 12
ENDMDL
MODEL      210
REMARK 921   NORMALIZED FREE ENERGY PREDICTED BY IDOCK:   -4.38 KCAL/MOL
REMARK 922        TOTAL FREE ENERGY PREDICTED BY IDOCK:   -9.50 KCAL/MOL
REMARK 923 INTER-LIGAND FREE ENERGY PREDICTED BY IDOCK:   -8.50 KCAL/MOL
REMARK 924 INTRA-LIGAND FREE ENERGY PREDICTED BY IDOCK:   -1.01 KCAL/MOL
REMARK 927      BINDING AFFINITY PREDICTED BY RF-SCORE:    0.00 PKD
ROOT
HETATM    1  C   UNL     1     -10.381   9.458  68.913  1.00  0.00    -0.213 C  
ENDROOT
BRANCH   1   2
HETATM    2  C   UNL     1     -10.136   9.391  70.457  1.00  0.00    -0.275 C  
HETATM    3  O   UNL     1      -8.768   9.670  70.784  1.00  0.00    -0.299 OA 
HETATM    4  H   UNL     1      -8.619   9.630  71.722  1.00  0.00     0.000 HD 
BRANCH   2   5
HETATM    5  C   UNL     1     -10.599   8.075  71.087  1.00  0.00    -0.235 A  
HETATM    6  C   UNL     1      -9.473   4.508  73.850  1.00  0.00    -0.116 C  
HETATM    7  C   UNL     1     -10.022   5.982  72.193  1.00  0.00    -0.165 A  
HETATM    8  C   UNL     1     -11.954   7.794  71.348  1.00  0.00    -0.331 A  
HETATM    9  C   UNL     1     -11.369   5.711  72.435  1.00  0.00    -0.270 A  
HETATM   10  C   UNL     1     -10.752   3.745  73.549  1.00  0.00    -0.215 C  
HETATM   11  C   UNL     1      -9.638   7.127  71.490  1.00  0.00    -0.161 A  
HETATM   12  O   UNL     1     -11.811   4.620  73.137  1.00  0.00    -0.227 OA 
HETATM   13  O   UNL     1      -9.014   5.181  72.671  1.00  0.00    -0.125 OA 
HETATM   14  C   UNL     1     -12.337   6.610  71.993  1.00  0.00    -0.316 A  
ENDBRANCH   2   5
ENDBRANCH   1   2
BRANCH   1  15
HETATM   15  N   UNL     1     -11.680  10.113  68.682  1.00  0.00    -0.607 NA 
HETATM   16  H   UNL     1     -12.210   9.800  67.868  1.00  0.00     0.000 HD 
BRANCH  15  17
HETATM   17  C   UNL     1     -12.211  11.027  69.389  1.00  0.00    -0.259 C  
HETATM   18  H   UNL     1     -13.551  11.534  70.844  1.00  0.00     0.000 HD 
HETATM   19  O   UNL     1     -13.153  10.851  70.316  1.00  0.00    -0.143 OA 
BRANCH  17  20
HETATM   20  C   UNL     1     -11.792  12.464  69.207  1.00  0.00    -0.361 C  
BRANCH  20  21
HETATM   21  C   UNL     1     -12.112  13.330  70.421  1.00  0.00    -0.401 C  
BRANCH  21  22
HETATM   22  C   UNL     1     -12.545  14.751  70.053  1.00  0.00    -0.268 C  
BRANCH  22  23
HETATM   23  C   UNL     1     -13.093  15.488  71.276  1.00  0.00    -0.581 C  
BRANCH  23  24
HETATM   24  C   UNL     1     -12.009  16.304  71.979  1.00  0.00    -0.544 C  
BRANCH  24  25
HETATM   25  C   UNL     1     -12.266  16.377  73.485  1.00  0.00    -0.556 C  
HETATM   26  C   UNL     1     -12.361  14.993  74.103  1.00  0.00    -0.620 C  
ENDBRANCH  24  25
ENDBRANCH  23  24
ENDBRANCH  22  23
ENDBRANCH  21  22
ENDBRANCH  20  21
ENDBRANCH  17  20
ENDBRANCH  15  17
ENDBRANCH   1  15
BRANCH   1  27
HETATM   27  C   UNL     1     -10.515   8.091  68.155  1.00  0.00    -0.167 C  
BRANCH  27  28
HETATM   28  N   UNL     1     -10.168   7.942  66.720  1.00  0.00    -0.294 NA 
HETATM   29  C   UNL     1      -9.123   6.901  66.572  1.00  0.00    -0.155 C  
HETATM   30  C   UNL     1      -9.603   9.168  66.155  1.00  0.00    -0.266 C  
HETATM   31  C   UNL     1      -8.123   7.385  65.531  1.00  0.00    -0.131 C  
HETATM   32  C   UNL     1      -8.634   8.731  65.074  1.00  0.00    -0.196 C  
ENDBRANCH  27  28
ENDBRANCH   1  27
TORSDOF 12
ENDMDL
MODEL      211
REMARK 921   NORMALIZED FREE ENERGY PREDICTED BY IDOCK:   -4.36 KCAL/MOL
REMARK 922        TOTAL FREE ENERGY PREDICTED BY IDOCK:   -9.48 KCAL/MOL
REMARK 923 INTER-LIGAND FREE ENERGY PREDICTED BY IDOCK:   -7.48 KCAL/MOL
REMARK 924 INTRA-LIGAND FREE ENERGY PREDICTED BY IDOCK:   -2.00 KCAL/MOL
REMARK 927      BINDING AFFINITY PREDICTED BY RF-SCORE:    0.00 PKD
ROOT
HETATM    1  C   UNL     1     -11.787  12.362  69.079  1.00  0.00    -0.300 C  
ENDROOT
BRANCH   1   2
HETATM    2  C   UNL     1     -12.696  12.012  70.303  1.00  0.00     0.152 C  
HETATM    3  O   UNL     1     -12.653  13.041  71.301  1.00  0.00    -0.360 OA 
HETATM    4  H   UNL     1     -13.205  12.829  72.045  1.00  0.00     0.000 HD 
BRANCH   2   5
HETATM    5  C   UNL     1     -12.392  10.639  70.909  1.00  0.00    -0.502 A  
HETATM    6  C   UNL     1      -9.237   7.971  73.042  1.00  0.00    -0.270 C  
HETATM    7  C   UNL     1     -10.737   9.026  71.679  1.00  0.00    -0.371 A  
HETATM    8  C   UNL     1     -13.395   9.808  71.443  1.00  0.00    -0.449 A  
HETATM    9  C   UNL     1     -11.741   8.206  72.193  1.00  0.00    -0.359 A  
HETATM   10  C   UNL     1     -10.103   6.724  72.973  1.00  0.00    -0.191 C  
HETATM   11  C   UNL     1     -11.055  10.208  71.005  1.00  0.00    -0.243 A  
HETATM   12  O   UNL     1     -11.497   7.046  72.884  1.00  0.00    -0.229 OA 
HETATM   13  O   UNL     1      -9.403   8.749  71.850  1.00  0.00    -0.268 OA 
HETATM   14  C   UNL     1     -13.073   8.589  72.057  1.00  0.00    -0.403 A  
ENDBRANCH   2   5
ENDBRANCH   1   2
BRANCH   1  15
HETATM   15  N   UNL     1     -12.291  13.607  68.473  1.00  0.00    -0.323 NA 
HETATM   16  H   UNL     1     -13.214  13.562  68.040  1.00  0.00     0.000 HD 
BRANCH  15  17
HETATM   17  C   UNL     1     -11.698  14.731  68.432  1.00  0.00    -0.314 C  
HETATM   18  H   UNL     1     -11.552  16.640  69.141  1.00  0.00     0.000 HD 
HETATM   19  O   UNL     1     -11.995  15.800  69.172  1.00  0.00    -0.387 OA 
BRANCH  17  20
HETATM   20  C   UNL     1     -10.552  14.948  67.475  1.00  0.00    -0.266 C  
BRANCH  20  21
HETATM   21  C   UNL     1      -9.197  14.624  68.095  1.00  0.00    -0.192 C  
BRANCH  21  22
HETATM   22  C   UNL     1      -8.218  13.984  67.109  1.00  0.00    -0.146 C  
BRANCH  22  23
HETATM   23  C   UNL     1      -7.201  13.107  67.842  1.00  0.00    -0.133 C  
BRANCH  23  24
HETATM   24  C   UNL     1      -6.716  11.950  66.969  1.00  0.00    -0.119 C  
BRANCH  24  25
HETATM   25  C   UNL     1      -6.734  10.632  67.743  1.00  0.00    -0.068 C  
HETATM   26  C   UNL     1      -7.505  10.759  69.046  1.00  0.00    -0.118 C  
ENDBRANCH  24  25
ENDBRANCH  23  24
ENDBRANCH  22  23
ENDBRANCH  21  22
ENDBRANCH  20  21
ENDBRANCH  17  20
ENDBRANCH  15  17
ENDBRANCH   1  15
BRANCH   1  27
HETATM   27  C   UNL     1     -11.779  11.345  67.885  1.00  0.00    -0.228 C  
BRANCH  27  28
HETATM   28  N   UNL     1     -10.532  10.718  67.383  1.00  0.00    -0.211 NA 
HETATM   29  C   UNL     1     -10.269  11.182  66.000  1.00  0.00    -0.250 C  
HETATM   30  C   UNL     1     -10.634   9.260  67.311  1.00  0.00    -0.233 C  
HETATM   31  C   UNL     1      -9.776   9.990  65.192  1.00  0.00    -0.380 C  
HETATM   32  C   UNL     1      -9.749   8.828  66.158  1.00  0.00    -0.320 C  
ENDBRANCH  27  28
ENDBRANCH   1  27
TORSDOF 12
ENDMDL
MODEL      212
REMARK 921   NORMALIZED FREE ENERGY PREDICTED BY IDOCK:   -4.36 KCAL/MOL
REMARK 922        TOTAL FREE ENERGY PREDICTED BY IDOCK:   -9.47 KCAL/MOL
REMARK 923 INTER-LIGAND FREE ENERGY PREDICTED BY IDOCK:   -8.58 KCAL/MOL
REMARK 924 INTRA-LIGAND FREE ENERGY PREDICTED BY IDOCK:   -0.90 KCAL/MOL
REMARK 927      BINDING AFFINITY PREDICTED BY RF-SCORE:    0.00 PKD
ROOT
HETATM    1  C   UNL     1     -11.009  15.290  69.022  1.00  0.00    -0.254 C  
ENDROOT
BRANCH   1   2
HETATM    2  C   UNL     1      -9.951  14.145  69.149  1.00  0.00     0.028 C  
HETATM    3  O   UNL     1      -8.625  14.669  69.298  1.00  0.00    -0.352 OA 
HETATM    4  H   UNL     1      -7.981  13.973  69.375  1.00  0.00     0.000 HD 
BRANCH   2   5
HETATM    5  C   UNL     1     -10.020  13.127  68.007  1.00  0.00    -0.233 A  
HETATM    6  C   UNL     1     -10.851  12.450  63.482  1.00  0.00    -0.438 C  
HETATM    7  C   UNL     1     -10.786  12.569  65.763  1.00  0.00    -0.276 A  
HETATM    8  C   UNL     1      -9.265  11.939  68.003  1.00  0.00    -0.190 A  
HETATM    9  C   UNL     1     -10.042  11.389  65.777  1.00  0.00    -0.246 A  
HETATM   10  C   UNL     1     -10.756  10.937  63.592  1.00  0.00    -0.052 C  
HETATM   11  C   UNL     1     -10.814  13.411  66.879  1.00  0.00    -0.282 A  
HETATM   12  O   UNL     1      -9.954  10.532  64.710  1.00  0.00    -0.300 OA 
HETATM   13  O   UNL     1     -11.477  12.988  64.653  1.00  0.00    -0.313 OA 
HETATM   14  C   UNL     1      -9.296  11.065  66.908  1.00  0.00    -0.189 A  
ENDBRANCH   2   5
ENDBRANCH   1   2
BRANCH   1  15
HETATM   15  N   UNL     1     -10.324  16.576  69.242  1.00  0.00    -0.303 NA 
HETATM   16  H   UNL     1     -10.272  16.906  70.206  1.00  0.00     0.000 HD 
BRANCH  15  17
HETATM   17  C   UNL     1      -9.790  17.318  68.357  1.00  0.00    -0.309 C  
HETATM   18  H   UNL     1      -8.800  17.453  66.577  1.00  0.00     0.000 HD 
HETATM   19  O   UNL     1      -9.199  16.898  67.237  1.00  0.00    -0.222 OA 
BRANCH  17  20
HETATM   20  C   UNL     1      -9.778  18.816  68.532  1.00  0.00    -0.426 C  
BRANCH  20  21
HETATM   21  C   UNL     1     -10.658  19.534  67.515  1.00  0.00    -0.599 C  
BRANCH  21  22
HETATM   22  C   UNL     1      -9.872  20.107  66.334  1.00  0.00    -0.560 C  
BRANCH  22  23
HETATM   23  C   UNL     1      -8.400  20.304  66.703  1.00  0.00    -0.295 C  
BRANCH  23  24
HETATM   24  C   UNL     1      -7.468  19.843  65.584  1.00  0.00    -0.285 C  
BRANCH  24  25
HETATM   25  C   UNL     1      -6.089  19.475  66.133  1.00  0.00    -0.182 C  
HETATM   26  C   UNL     1      -6.007  18.002  66.494  1.00  0.00    -0.206 C  
ENDBRANCH  24  25
ENDBRANCH  23  24
ENDBRANCH  22  23
ENDBRANCH  21  22
ENDBRANCH  20  21
ENDBRANCH  17  20
ENDBRANCH  15  17
ENDBRANCH   1  15
BRANCH   1  27
HETATM   27  C   UNL     1     -12.171  15.305  70.075  1.00  0.00    -0.349 C  
BRANCH  27  28
HETATM   28  N   UNL     1     -12.178  14.419  71.264  1.00  0.00    -0.345 NA 
HETATM   29  C   UNL     1     -12.298  13.008  70.828  1.00  0.00    -0.310 C  
HETATM   30  C   UNL     1     -13.323  14.673  72.140  1.00  0.00    -0.375 C  
HETATM   31  C   UNL     1     -13.251  12.301  71.782  1.00  0.00    -0.428 C  
HETATM   32  C   UNL     1     -13.662  13.347  72.792  1.00  0.00    -0.286 C  
ENDBRANCH  27  28
ENDBRANCH   1  27
TORSDOF 12
ENDMDL
MODEL      213
REMARK 921   NORMALIZED FREE ENERGY PREDICTED BY IDOCK:   -4.35 KCAL/MOL
REMARK 922        TOTAL FREE ENERGY PREDICTED BY IDOCK:   -9.46 KCAL/MOL
REMARK 923 INTER-LIGAND FREE ENERGY PREDICTED BY IDOCK:   -7.51 KCAL/MOL
REMARK 924 INTRA-LIGAND FREE ENERGY PREDICTED BY IDOCK:   -1.94 KCAL/MOL
REMARK 927      BINDING AFFINITY PREDICTED BY RF-SCORE:    0.00 PKD
ROOT
HETATM    1  C   UNL     1      -9.956  11.338  67.703  1.00  0.00    -0.178 C  
ENDROOT
BRANCH   1   2
HETATM    2  C   UNL     1      -9.586  10.329  66.566  1.00  0.00    -0.181 C  
HETATM    3  O   UNL     1     -10.476  10.447  65.449  1.00  0.00    -0.237 OA 
HETATM    4  H   UNL     1     -10.252   9.834  64.758  1.00  0.00     0.000 HD 
BRANCH   2   5
HETATM    5  C   UNL     1      -9.494   8.879  67.050  1.00  0.00    -0.215 A  
HETATM    6  C   UNL     1      -7.665   5.958  70.173  1.00  0.00    -0.095 C  
HETATM    7  C   UNL     1      -8.325   7.198  68.371  1.00  0.00    -0.125 A  
HETATM    8  C   UNL     1     -10.523   7.942  66.839  1.00  0.00    -0.388 A  
HETATM    9  C   UNL     1      -9.347   6.275  68.144  1.00  0.00    -0.115 A  
HETATM   10  C   UNL     1      -8.212   4.721  69.480  1.00  0.00    -0.076 C  
HETATM   11  C   UNL     1      -8.371   8.472  67.797  1.00  0.00    -0.130 A  
HETATM   12  O   UNL     1      -9.374   5.020  68.694  1.00  0.00    -0.117 OA 
HETATM   13  O   UNL     1      -7.263   6.929  69.199  1.00  0.00    -0.085 OA 
HETATM   14  C   UNL     1     -10.437   6.643  67.360  1.00  0.00    -0.325 A  
ENDBRANCH   2   5
ENDBRANCH   1   2
BRANCH   1  15
HETATM   15  N   UNL     1     -11.201  10.876  68.341  1.00  0.00    -0.262 NA 
HETATM   16  H   UNL     1     -11.956  10.593  67.715  1.00  0.00     0.000 HD 
BRANCH  15  17
HETATM   17  C   UNL     1     -11.435  10.792  69.589  1.00  0.00    -0.305 C  
HETATM   18  H   UNL     1     -12.476  11.477  71.206  1.00  0.00     0.000 HD 
HETATM   19  O   UNL     1     -12.301  11.540  70.274  1.00  0.00    -0.304 OA 
BRANCH  17  20
HETATM   20  C   UNL     1     -10.693   9.785  70.431  1.00  0.00    -0.368 C  
BRANCH  20  21
HETATM   21  C   UNL     1     -11.620   8.763  71.080  1.00  0.00    -0.344 C  
BRANCH  21  22
HETATM   22  C   UNL     1     -11.066   7.337  71.045  1.00  0.00    -0.281 C  
BRANCH  22  23
HETATM   23  C   UNL     1     -11.882   6.413  71.950  1.00  0.00    -0.380 C  
BRANCH  23  24
HETATM   24  C   UNL     1     -11.050   5.881  73.117  1.00  0.00    -0.259 C  
BRANCH  24  25
HETATM   25  C   UNL     1     -11.182   4.363  73.239  1.00  0.00    -0.364 C  
HETATM   26  C   UNL     1     -10.154   3.641  72.384  1.00  0.00    -0.233 C  
ENDBRANCH  24  25
ENDBRANCH  23  24
ENDBRANCH  22  23
ENDBRANCH  21  22
ENDBRANCH  20  21
ENDBRANCH  17  20
ENDBRANCH  15  17
ENDBRANCH   1  15
BRANCH   1  27
HETATM   27  C   UNL     1     -10.285  12.809  67.269  1.00  0.00    -0.232 C  
BRANCH  27  28
HETATM   28  N   UNL     1     -10.734  13.151  65.897  1.00  0.00    -0.271 NA 
HETATM   29  C   UNL     1     -10.048  14.386  65.448  1.00  0.00    -0.359 C  
HETATM   30  C   UNL     1     -12.168  13.438  65.838  1.00  0.00    -0.450 C  
HETATM   31  C   UNL     1     -11.064  15.243  64.706  1.00  0.00    -0.407 C  
HETATM   32  C   UNL     1     -12.353  14.454  64.729  1.00  0.00    -0.427 C  
ENDBRANCH  27  28
ENDBRANCH   1  27
TORSDOF 12
ENDMDL
MODEL      214
REMARK 921   NORMALIZED FREE ENERGY PREDICTED BY IDOCK:   -4.35 KCAL/MOL
REMARK 922        TOTAL FREE ENERGY PREDICTED BY IDOCK:   -9.45 KCAL/MOL
REMARK 923 INTER-LIGAND FREE ENERGY PREDICTED BY IDOCK:   -8.44 KCAL/MOL
REMARK 924 INTRA-LIGAND FREE ENERGY PREDICTED BY IDOCK:   -1.02 KCAL/MOL
REMARK 927      BINDING AFFINITY PREDICTED BY RF-SCORE:    0.00 PKD
ROOT
HETATM    1  C   UNL     1     -10.998  10.226  67.699  1.00  0.00    -0.294 C  
ENDROOT
BRANCH   1   2
HETATM    2  C   UNL     1      -9.787  11.207  67.565  1.00  0.00    -0.177 C  
HETATM    3  O   UNL     1      -9.206  11.502  68.842  1.00  0.00    -0.369 OA 
HETATM    4  H   UNL     1      -8.470  12.099  68.761  1.00  0.00     0.000 HD 
BRANCH   2   5
HETATM    5  C   UNL     1     -10.128  12.489  66.802  1.00  0.00    -0.233 A  
HETATM    6  C   UNL     1      -9.377  17.061  66.398  1.00  0.00    -0.270 C  
HETATM    7  C   UNL     1     -10.121  14.924  66.718  1.00  0.00    -0.251 A  
HETATM    8  C   UNL     1     -10.551  12.483  65.459  1.00  0.00    -0.304 A  
HETATM    9  C   UNL     1     -10.551  14.903  65.391  1.00  0.00    -0.373 A  
HETATM   10  C   UNL     1     -10.458  17.244  65.345  1.00  0.00    -0.035 C  
HETATM   11  C   UNL     1      -9.952  13.736  67.434  1.00  0.00    -0.237 A  
HETATM   12  O   UNL     1     -10.714  16.030  64.626  1.00  0.00    -0.601 OA 
HETATM   13  O   UNL     1      -9.794  16.090  67.365  1.00  0.00    -0.232 OA 
HETATM   14  C   UNL     1     -10.785  13.680  64.768  1.00  0.00    -0.420 A  
ENDBRANCH   2   5
ENDBRANCH   1   2
BRANCH   1  15
HETATM   15  N   UNL     1     -11.808  10.651  68.853  1.00  0.00    -0.603 NA 
HETATM   16  H   UNL     1     -12.529  11.350  68.671  1.00  0.00     0.000 HD 
BRANCH  15  17
HETATM   17  C   UNL     1     -11.706  10.238  70.052  1.00  0.00    -0.254 C  
HETATM   18  H   UNL     1     -10.492   9.779  71.628  1.00  0.00     0.000 HD 
HETATM   19  O   UNL     1     -10.569  10.087  70.732  1.00  0.00    -0.287 OA 
BRANCH  17  20
HETATM   20  C   UNL     1     -12.941   9.860  70.831  1.00  0.00    -0.351 C  
BRANCH  20  21
HETATM   21  C   UNL     1     -12.678   8.760  71.854  1.00  0.00    -0.427 C  
BRANCH  21  22
HETATM   22  C   UNL     1     -12.612   7.362  71.235  1.00  0.00    -0.376 C  
BRANCH  22  23
HETATM   23  C   UNL     1     -11.717   6.440  72.065  1.00  0.00    -0.376 C  
BRANCH  23  24
HETATM   24  C   UNL     1     -10.448   6.051  71.307  1.00  0.00    -0.283 C  
BRANCH  24  25
HETATM   25  C   UNL     1      -9.206   6.252  72.176  1.00  0.00    -0.144 C  
HETATM   26  C   UNL     1      -9.513   7.089  73.406  1.00  0.00    -0.210 C  
ENDBRANCH  24  25
ENDBRANCH  23  24
ENDBRANCH  22  23
ENDBRANCH  21  22
ENDBRANCH  20  21
ENDBRANCH  17  20
ENDBRANCH  15  17
ENDBRANCH   1  15
BRANCH   1  27
HETATM   27  C   UNL     1     -10.666   8.725  68.011  1.00  0.00    -0.090 C  
BRANCH  27  28
HETATM   28  N   UNL     1     -10.604   7.688  66.953  1.00  0.00    -0.341 NA 
HETATM   29  C   UNL     1     -11.109   6.403  67.492  1.00  0.00    -0.306 C  
HETATM   30  C   UNL     1      -9.235   7.432  66.505  1.00  0.00    -0.165 C  
HETATM   31  C   UNL     1     -10.214   5.290  66.965  1.00  0.00    -0.274 C  
HETATM   32  C   UNL     1      -9.187   5.974  66.092  1.00  0.00    -0.154 C  
ENDBRANCH  27  28
ENDBRANCH   1  27
TORSDOF 12
ENDMDL
MODEL      215
REMARK 921   NORMALIZED FREE ENERGY PREDICTED BY IDOCK:   -4.35 KCAL/MOL
REMARK 922        TOTAL FREE ENERGY PREDICTED BY IDOCK:   -9.45 KCAL/MOL
REMARK 923 INTER-LIGAND FREE ENERGY PREDICTED BY IDOCK:   -8.07 KCAL/MOL
REMARK 924 INTRA-LIGAND FREE ENERGY PREDICTED BY IDOCK:   -1.38 KCAL/MOL
REMARK 927      BINDING AFFINITY PREDICTED BY RF-SCORE:    0.00 PKD
ROOT
HETATM    1  C   UNL     1      -9.478  14.474  66.139  1.00  0.00    -0.259 C  
ENDROOT
BRANCH   1   2
HETATM    2  C   UNL     1      -9.729  13.152  65.341  1.00  0.00    -0.008 C  
HETATM    3  O   UNL     1     -10.933  13.227  64.567  1.00  0.00    -0.343 OA 
HETATM    4  H   UNL     1     -11.086  12.424  64.082  1.00  0.00     0.000 HD 
BRANCH   2   5
HETATM    5  C   UNL     1      -9.714  11.901  66.223  1.00  0.00    -0.247 A  
HETATM    6  C   UNL     1      -7.610   9.659  69.712  1.00  0.00    -0.123 C  
HETATM    7  C   UNL     1      -8.499  10.457  67.765  1.00  0.00    -0.114 A  
HETATM    8  C   UNL     1     -10.875  11.153  66.499  1.00  0.00    -0.302 A  
HETATM    9  C   UNL     1      -9.654   9.718  68.019  1.00  0.00    -0.142 A  
HETATM   10  C   UNL     1      -8.453   8.405  69.543  1.00  0.00    -0.124 C  
HETATM   11  C   UNL     1      -8.512  11.510  66.845  1.00  0.00    -0.165 A  
HETATM   12  O   UNL     1      -9.715   8.690  68.925  1.00  0.00    -0.164 OA 
HETATM   13  O   UNL     1      -7.320  10.231  68.431  1.00  0.00    -0.081 OA 
HETATM   14  C   UNL     1     -10.839  10.055  67.370  1.00  0.00    -0.313 A  
ENDBRANCH   2   5
ENDBRANCH   1   2
BRANCH   1  15
HETATM   15  N   UNL     1     -10.209  14.387  67.415  1.00  0.00    -0.246 NA 
HETATM   16  H   UNL     1      -9.688  14.024  68.215  1.00  0.00     0.000 HD 
BRANCH  15  17
HETATM   17  C   UNL     1     -11.419  14.717  67.627  1.00  0.00    -0.346 C  
HETATM   18  H   UNL     1     -13.388  14.485  67.139  1.00  0.00     0.000 HD 
HETATM   19  O   UNL     1     -12.484  14.239  66.981  1.00  0.00    -0.304 OA 
BRANCH  17  20
HETATM   20  C   UNL     1     -11.751  15.742  68.681  1.00  0.00    -0.353 C  
BRANCH  20  21
HETATM   21  C   UNL     1     -11.595  15.201  70.099  1.00  0.00    -0.326 C  
BRANCH  21  22
HETATM   22  C   UNL     1     -12.640  14.142  70.459  1.00  0.00    -0.410 C  
BRANCH  22  23
HETATM   23  C   UNL     1     -12.584  13.808  71.951  1.00  0.00    -0.284 C  
BRANCH  23  24
HETATM   24  C   UNL     1     -13.321  14.847  72.794  1.00  0.00    -0.576 C  
BRANCH  24  25
HETATM   25  C   UNL     1     -12.429  15.379  73.916  1.00  0.00    -0.763 C  
HETATM   26  C   UNL     1     -11.933  16.783  73.617  1.00  0.00    -0.235 C  
ENDBRANCH  24  25
ENDBRANCH  23  24
ENDBRANCH  22  23
ENDBRANCH  21  22
ENDBRANCH  20  21
ENDBRANCH  17  20
ENDBRANCH  15  17
ENDBRANCH   1  15
BRANCH   1  27
HETATM   27  C   UNL     1     -10.008  15.804  65.499  1.00  0.00    -0.306 C  
BRANCH  27  28
HETATM   28  N   UNL     1      -9.309  17.101  65.666  1.00  0.00    -0.447 NA 
HETATM   29  C   UNL     1      -8.457  17.049  66.878  1.00  0.00    -0.216 C  
HETATM   30  C   UNL     1     -10.240  18.212  65.871  1.00  0.00    -0.234 C  
HETATM   31  C   UNL     1      -8.581  18.386  67.596  1.00  0.00    -0.268 C  
HETATM   32  C   UNL     1      -9.519  19.215  66.750  1.00  0.00    -0.376 C  
ENDBRANCH  27  28
ENDBRANCH   1  27
TORSDOF 12
ENDMDL
MODEL      216
REMARK 921   NORMALIZED FREE ENERGY PREDICTED BY IDOCK:   -4.32 KCAL/MOL
REMARK 922        TOTAL FREE ENERGY PREDICTED BY IDOCK:   -9.41 KCAL/MOL
REMARK 923 INTER-LIGAND FREE ENERGY PREDICTED BY IDOCK:   -7.87 KCAL/MOL
REMARK 924 INTRA-LIGAND FREE ENERGY PREDICTED BY IDOCK:   -1.54 KCAL/MOL
REMARK 927      BINDING AFFINITY PREDICTED BY RF-SCORE:    0.00 PKD
ROOT
HETATM    1  C   UNL     1      -9.085  12.030  67.912  1.00  0.00    -0.183 C  
ENDROOT
BRANCH   1   2
HETATM    2  C   UNL     1      -8.776  10.577  67.423  1.00  0.00    -0.125 C  
HETATM    3  O   UNL     1      -9.043  10.427  66.022  1.00  0.00    -0.154 OA 
HETATM    4  H   UNL     1      -8.855   9.544  65.724  1.00  0.00     0.000 HD 
BRANCH   2   5
HETATM    5  C   UNL     1      -9.489   9.498  68.241  1.00  0.00    -0.143 A  
HETATM    6  C   UNL     1     -11.773   8.508  72.170  1.00  0.00    -0.378 C  
HETATM    7  C   UNL     1     -10.357   8.754  70.393  1.00  0.00    -0.199 A  
HETATM    8  C   UNL     1     -10.113   8.384  67.648  1.00  0.00    -0.268 A  
HETATM    9  C   UNL     1     -10.961   7.647  69.793  1.00  0.00    -0.170 A  
HETATM   10  C   UNL     1     -11.827   7.018  71.876  1.00  0.00    -0.305 C  
HETATM   11  C   UNL     1      -9.593   9.648  69.638  1.00  0.00    -0.225 A  
HETATM   12  O   UNL     1     -11.741   6.747  70.471  1.00  0.00    -0.351 OA 
HETATM   13  O   UNL     1     -10.524   9.050  71.724  1.00  0.00    -0.332 OA 
HETATM   14  C   UNL     1     -10.820   7.453  68.422  1.00  0.00    -0.068 A  
ENDBRANCH   2   5
ENDBRANCH   1   2
BRANCH   1  15
HETATM   15  N   UNL     1     -10.534  12.135  68.155  1.00  0.00    -0.205 NA 
HETATM   16  H   UNL     1     -10.862  11.859  69.081  1.00  0.00     0.000 HD 
BRANCH  15  17
HETATM   17  C   UNL     1     -11.419  12.535  67.334  1.00  0.00    -0.341 C  
HETATM   18  H   UNL     1     -12.447  12.209  65.600  1.00  0.00     0.000 HD 
HETATM   19  O   UNL     1     -11.786  11.910  66.214  1.00  0.00    -0.506 OA 
BRANCH  17  20
HETATM   20  C   UNL     1     -12.153  13.829  67.582  1.00  0.00    -0.333 C  
BRANCH  20  21
HETATM   21  C   UNL     1     -11.674  14.546  68.840  1.00  0.00    -0.354 C  
BRANCH  21  22
HETATM   22  C   UNL     1     -11.571  16.063  68.669  1.00  0.00    -0.343 C  
BRANCH  22  23
HETATM   23  C   UNL     1     -10.316  16.605  69.355  1.00  0.00    -0.294 C  
BRANCH  23  24
HETATM   24  C   UNL     1      -9.908  17.967  68.795  1.00  0.00    -0.360 C  
BRANCH  24  25
HETATM   25  C   UNL     1     -10.868  18.420  67.695  1.00  0.00    -0.295 C  
HETATM   26  C   UNL     1     -10.357  19.661  66.982  1.00  0.00    -0.581 C  
ENDBRANCH  24  25
ENDBRANCH  23  24
ENDBRANCH  22  23
ENDBRANCH  21  22
ENDBRANCH  20  21
ENDBRANCH  17  20
ENDBRANCH  15  17
ENDBRANCH   1  15
BRANCH   1  27
HETATM   27  C   UNL     1      -8.792  13.197  66.906  1.00  0.00    -0.179 C  
BRANCH  27  28
HETATM   28  N   UNL     1      -8.482  14.576  67.357  1.00  0.00    -0.193 NA 
HETATM   29  C   UNL     1      -8.865  15.539  66.297  1.00  0.00    -0.303 C  
HETATM   30  C   UNL     1      -7.051  14.775  67.590  1.00  0.00    -0.184 C  
HETATM   31  C   UNL     1      -7.779  16.603  66.217  1.00  0.00    -0.273 C  
HETATM   32  C   UNL     1      -6.767  16.231  67.275  1.00  0.00    -0.228 C  
ENDBRANCH  27  28
ENDBRANCH   1  27
TORSDOF 12
ENDMDL
MODEL      217
REMARK 921   NORMALIZED FREE ENERGY PREDICTED BY IDOCK:   -4.32 KCAL/MOL
REMARK 922        TOTAL FREE ENERGY PREDICTED BY IDOCK:   -9.40 KCAL/MOL
REMARK 923 INTER-LIGAND FREE ENERGY PREDICTED BY IDOCK:   -7.91 KCAL/MOL
REMARK 924 INTRA-LIGAND FREE ENERGY PREDICTED BY IDOCK:   -1.50 KCAL/MOL
REMARK 927      BINDING AFFINITY PREDICTED BY RF-SCORE:    0.00 PKD
ROOT
HETATM    1  C   UNL     1     -11.480  13.823  68.695  1.00  0.00    -0.301 C  
ENDROOT
BRANCH   1   2
HETATM    2  C   UNL     1     -11.702  15.096  67.813  1.00  0.00    -0.232 C  
HETATM    3  O   UNL     1     -11.990  14.748  66.452  1.00  0.00    -0.299 OA 
HETATM    4  H   UNL     1     -12.125  15.522  65.916  1.00  0.00     0.000 HD 
BRANCH   2   5
HETATM    5  C   UNL     1     -10.549  16.099  67.897  1.00  0.00    -0.309 A  
HETATM    6  C   UNL     1      -6.492  17.481  66.090  1.00  0.00    -0.231 C  
HETATM    7  C   UNL     1      -8.262  16.692  67.302  1.00  0.00    -0.174 A  
HETATM    8  C   UNL     1     -10.707  17.395  68.424  1.00  0.00    -0.301 A  
HETATM    9  C   UNL     1      -8.429  17.970  67.839  1.00  0.00    -0.252 A  
HETATM   10  C   UNL     1      -6.246  18.509  67.182  1.00  0.00    -0.170 C  
HETATM   11  C   UNL     1      -9.291  15.749  67.367  1.00  0.00    -0.214 A  
HETATM   12  O   UNL     1      -7.469  18.947  67.789  1.00  0.00    -0.234 OA 
HETATM   13  O   UNL     1      -7.116  16.317  66.645  1.00  0.00    -0.198 OA 
HETATM   14  C   UNL     1      -9.647  18.313  68.418  1.00  0.00    -0.350 A  
ENDBRANCH   2   5
ENDBRANCH   1   2
BRANCH   1  15
HETATM   15  N   UNL     1     -11.937  12.649  67.932  1.00  0.00    -0.350 NA 
HETATM   16  H   UNL     1     -12.933  12.431  67.984  1.00  0.00     0.000 HD 
BRANCH  15  17
HETATM   17  C   UNL     1     -11.223  11.878  67.214  1.00  0.00    -0.317 C  
HETATM   18  H   UNL     1     -10.431  11.460  65.380  1.00  0.00     0.000 HD 
HETATM   19  O   UNL     1     -10.964  12.036  65.916  1.00  0.00    -0.278 OA 
BRANCH  17  20
HETATM   20  C   UNL     1     -10.589  10.652  67.821  1.00  0.00    -0.275 C  
BRANCH  20  21
HETATM   21  C   UNL     1      -9.822   9.819  66.800  1.00  0.00    -0.265 C  
BRANCH  21  22
HETATM   22  C   UNL     1      -8.303   9.934  66.945  1.00  0.00    -0.124 C  
BRANCH  22  23
HETATM   23  C   UNL     1      -7.911  10.183  68.402  1.00  0.00    -0.102 C  
BRANCH  23  24
HETATM   24  C   UNL     1      -6.902  11.323  68.532  1.00  0.00    -0.071 C  
BRANCH  24  25
HETATM   25  C   UNL     1      -6.333  11.711  67.167  1.00  0.00    -0.139 C  
HETATM   26  C   UNL     1      -5.190  12.704  67.299  1.00  0.00     0.019 C  
ENDBRANCH  24  25
ENDBRANCH  23  24
ENDBRANCH  22  23
ENDBRANCH  21  22
ENDBRANCH  20  21
ENDBRANCH  17  20
ENDBRANCH  15  17
ENDBRANCH   1  15
BRANCH   1  27
HETATM   27  C   UNL     1     -12.293  13.734  70.033  1.00  0.00    -0.300 C  
BRANCH  27  28
HETATM   28  N   UNL     1     -12.715  14.939  70.788  1.00  0.00    -0.341 NA 
HETATM   29  C   UNL     1     -11.546  15.514  71.495  1.00  0.00    -0.419 C  
HETATM   30  C   UNL     1     -13.703  14.629  71.822  1.00  0.00    -0.415 C  
HETATM   31  C   UNL     1     -12.004  15.954  72.878  1.00  0.00    -0.609 C  
HETATM   32  C   UNL     1     -13.478  15.628  72.939  1.00  0.00    -0.657 C  
ENDBRANCH  27  28
ENDBRANCH   1  27
TORSDOF 12
ENDMDL
MODEL      218
REMARK 921   NORMALIZED FREE ENERGY PREDICTED BY IDOCK:   -4.31 KCAL/MOL
REMARK 922        TOTAL FREE ENERGY PREDICTED BY IDOCK:   -9.39 KCAL/MOL
REMARK 923 INTER-LIGAND FREE ENERGY PREDICTED BY IDOCK:   -7.91 KCAL/MOL
REMARK 924 INTRA-LIGAND FREE ENERGY PREDICTED BY IDOCK:   -1.48 KCAL/MOL
REMARK 927      BINDING AFFINITY PREDICTED BY RF-SCORE:    0.00 PKD
ROOT
HETATM    1  C   UNL     1      -9.427  16.241  66.933  1.00  0.00    -0.230 C  
ENDROOT
BRANCH   1   2
HETATM    2  C   UNL     1      -9.270  16.406  68.481  1.00  0.00    -0.226 C  
HETATM    3  O   UNL     1      -8.076  15.770  68.958  1.00  0.00    -0.190 OA 
HETATM    4  H   UNL     1      -7.980  15.870  69.899  1.00  0.00     0.000 HD 
BRANCH   2   5
HETATM    5  C   UNL     1     -10.498  15.940  69.267  1.00  0.00    -0.253 A  
HETATM    6  C   UNL     1     -12.550  15.686  73.433  1.00  0.00    -0.533 C  
HETATM    7  C   UNL     1     -11.510  15.404  71.417  1.00  0.00    -0.406 A  
HETATM    8  C   UNL     1     -11.771  15.811  68.679  1.00  0.00    -0.353 A  
HETATM    9  C   UNL     1     -12.764  15.268  70.819  1.00  0.00    -0.433 A  
HETATM   10  C   UNL     1     -13.696  14.827  72.923  1.00  0.00    -0.287 C  
HETATM   11  C   UNL     1     -10.379  15.693  70.649  1.00  0.00     0.115 A  
HETATM   12  O   UNL     1     -13.915  15.009  71.517  1.00  0.00    -0.422 OA 
HETATM   13  O   UNL     1     -11.332  15.316  72.776  1.00  0.00    -0.374 OA 
HETATM   14  C   UNL     1     -12.889  15.453  69.445  1.00  0.00     0.390 A  
ENDBRANCH   2   5
ENDBRANCH   1   2
BRANCH   1  15
HETATM   15  N   UNL     1      -9.144  14.837  66.589  1.00  0.00    -0.271 NA 
HETATM   16  H   UNL     1      -8.264  14.451  66.933  1.00  0.00     0.000 HD 
BRANCH  15  17
HETATM   17  C   UNL     1      -9.881  14.054  65.909  1.00  0.00    -0.281 C  
HETATM   18  H   UNL     1     -10.726  13.599  64.107  1.00  0.00     0.000 HD 
HETATM   19  O   UNL     1     -10.175  14.184  64.615  1.00  0.00    -0.408 OA 
BRANCH  17  20
HETATM   20  C   UNL     1     -10.519  12.855  66.565  1.00  0.00    -0.275 C  
BRANCH  20  21
HETATM   21  C   UNL     1      -9.645  12.245  67.656  1.00  0.00    -0.191 C  
BRANCH  21  22
HETATM   22  C   UNL     1      -8.915  10.978  67.206  1.00  0.00    -0.138 C  
BRANCH  22  23
HETATM   23  C   UNL     1      -9.862  10.040  66.457  1.00  0.00    -0.267 C  
BRANCH  23  24
HETATM   24  C   UNL     1      -9.290   8.627  66.345  1.00  0.00    -0.271 C  
BRANCH  24  25
HETATM   25  C   UNL     1     -10.157   7.620  67.101  1.00  0.00    -0.323 C  
HETATM   26  C   UNL     1      -9.837   7.611  68.587  1.00  0.00    -0.175 C  
ENDBRANCH  24  25
ENDBRANCH  23  24
ENDBRANCH  22  23
ENDBRANCH  21  22
ENDBRANCH  20  21
ENDBRANCH  17  20
ENDBRANCH  15  17
ENDBRANCH   1  15
BRANCH   1  27
HETATM   27  C   UNL     1      -8.436  17.051  66.027  1.00  0.00    -0.136 C  
BRANCH  27  28
HETATM   28  N   UNL     1      -8.513  18.526  65.885  1.00  0.00    -0.470 NA 
HETATM   29  C   UNL     1      -7.538  19.161  66.804  1.00  0.00    -0.239 C  
HETATM   30  C   UNL     1      -9.827  19.051  66.260  1.00  0.00    -0.374 C  
HETATM   31  C   UNL     1      -8.203  20.384  67.420  1.00  0.00    -0.376 C  
HETATM   32  C   UNL     1      -9.587  20.441  66.815  1.00  0.00    -0.512 C  
ENDBRANCH  27  28
ENDBRANCH   1  27
TORSDOF 12
ENDMDL
MODEL      219
REMARK 921   NORMALIZED FREE ENERGY PREDICTED BY IDOCK:   -4.31 KCAL/MOL
REMARK 922        TOTAL FREE ENERGY PREDICTED BY IDOCK:   -9.38 KCAL/MOL
REMARK 923 INTER-LIGAND FREE ENERGY PREDICTED BY IDOCK:   -7.78 KCAL/MOL
REMARK 924 INTRA-LIGAND FREE ENERGY PREDICTED BY IDOCK:   -1.61 KCAL/MOL
REMARK 927      BINDING AFFINITY PREDICTED BY RF-SCORE:    0.00 PKD
ROOT
HETATM    1  C   UNL     1      -9.917  10.952  68.538  1.00  0.00    -0.182 C  
ENDROOT
BRANCH   1   2
HETATM    2  C   UNL     1      -9.144  11.395  67.252  1.00  0.00    -0.162 C  
HETATM    3  O   UNL     1      -7.729  11.445  67.480  1.00  0.00    -0.114 OA 
HETATM    4  H   UNL     1      -7.259  11.714  66.699  1.00  0.00     0.000 HD 
BRANCH   2   5
HETATM    5  C   UNL     1      -9.657  12.711  66.661  1.00  0.00    -0.249 A  
HETATM    6  C   UNL     1      -9.359  17.352  66.730  1.00  0.00    -0.268 C  
HETATM    7  C   UNL     1      -9.878  15.130  66.853  1.00  0.00    -0.237 A  
HETATM    8  C   UNL     1     -10.174  12.806  65.355  1.00  0.00    -0.299 A  
HETATM    9  C   UNL     1     -10.401  15.208  65.561  1.00  0.00    -0.375 A  
HETATM   10  C   UNL     1     -10.526  17.537  65.774  1.00  0.00    -0.207 C  
HETATM   11  C   UNL     1      -9.550  13.895  67.418  1.00  0.00    -0.235 A  
HETATM   12  O   UNL     1     -10.722  16.387  64.940  1.00  0.00    -0.675 OA 
HETATM   13  O   UNL     1      -9.613  16.247  67.606  1.00  0.00    -0.224 OA 
HETATM   14  C   UNL     1     -10.566  14.041  64.820  1.00  0.00    -0.441 A  
ENDBRANCH   2   5
ENDBRANCH   1   2
BRANCH   1  15
HETATM   15  N   UNL     1      -9.326   9.691  69.018  1.00  0.00    -0.153 NA 
HETATM   16  H   UNL     1      -9.310   8.914  68.356  1.00  0.00     0.000 HD 
BRANCH  15  17
HETATM   17  C   UNL     1      -8.833   9.468  70.170  1.00  0.00    -0.235 C  
HETATM   18  H   UNL     1      -7.300   9.763  71.484  1.00  0.00     0.000 HD 
HETATM   19  O   UNL     1      -7.668   9.930  70.624  1.00  0.00    -0.289 OA 
BRANCH  17  20
HETATM   20  C   UNL     1      -9.577   8.602  71.156  1.00  0.00    -0.281 C  
BRANCH  20  21
HETATM   21  C   UNL     1     -10.590   7.681  70.484  1.00  0.00    -0.229 C  
BRANCH  21  22
HETATM   22  C   UNL     1     -10.572   6.256  71.040  1.00  0.00    -0.289 C  
BRANCH  22  23
HETATM   23  C   UNL     1      -9.167   5.655  70.954  1.00  0.00    -0.178 C  
BRANCH  23  24
HETATM   24  C   UNL     1      -8.696   5.521  69.506  1.00  0.00    -0.105 C  
BRANCH  24  25
HETATM   25  C   UNL     1      -9.664   4.663  68.690  1.00  0.00    -0.217 C  
HETATM   26  C   UNL     1     -10.082   5.359  67.406  1.00  0.00    -0.223 C  
ENDBRANCH  24  25
ENDBRANCH  23  24
ENDBRANCH  22  23
ENDBRANCH  21  22
ENDBRANCH  20  21
ENDBRANCH  17  20
ENDBRANCH  15  17
ENDBRANCH   1  15
BRANCH   1  27
HETATM   27  C   UNL     1     -11.438  10.608  68.371  1.00  0.00    -0.259 C  
BRANCH  27  28
HETATM   28  N   UNL     1     -12.492  11.242  69.201  1.00  0.00    -0.333 NA 
HETATM   29  C   UNL     1     -12.118  12.648  69.482  1.00  0.00    -0.192 C  
HETATM   30  C   UNL     1     -12.638  10.591  70.503  1.00  0.00    -0.339 C  
HETATM   31  C   UNL     1     -12.474  12.947  70.932  1.00  0.00    -0.383 C  
HETATM   32  C   UNL     1     -13.079  11.671  71.471  1.00  0.00    -0.405 C  
ENDBRANCH  27  28
ENDBRANCH   1  27
TORSDOF 12
ENDMDL
MODEL      220
REMARK 921   NORMALIZED FREE ENERGY PREDICTED BY IDOCK:   -4.31 KCAL/MOL
REMARK 922        TOTAL FREE ENERGY PREDICTED BY IDOCK:   -9.38 KCAL/MOL
REMARK 923 INTER-LIGAND FREE ENERGY PREDICTED BY IDOCK:   -7.10 KCAL/MOL
REMARK 924 INTRA-LIGAND FREE ENERGY PREDICTED BY IDOCK:   -2.29 KCAL/MOL
REMARK 927      BINDING AFFINITY PREDICTED BY RF-SCORE:    0.00 PKD
ROOT
HETATM    1  C   UNL     1      -9.037  12.891  67.431  1.00  0.00    -0.197 C  
ENDROOT
BRANCH   1   2
HETATM    2  C   UNL     1      -7.793  11.948  67.338  1.00  0.00    -0.158 C  
HETATM    3  O   UNL     1      -7.463  11.646  65.975  1.00  0.00    -0.352 OA 
HETATM    4  H   UNL     1      -6.708  11.072  65.918  1.00  0.00     0.000 HD 
BRANCH   2   5
HETATM    5  C   UNL     1      -7.939  10.670  68.169  1.00  0.00    -0.113 A  
HETATM    6  C   UNL     1      -8.270   6.031  68.096  1.00  0.00    -0.113 C  
HETATM    7  C   UNL     1      -8.496   8.300  68.258  1.00  0.00    -0.136 A  
HETATM    8  C   UNL     1      -7.489  10.575  69.499  1.00  0.00    -0.146 A  
HETATM    9  C   UNL     1      -8.058   8.222  69.580  1.00  0.00    -0.116 A  
HETATM   10  C   UNL     1      -8.547   5.932  69.587  1.00  0.00    -0.121 C  
HETATM   11  C   UNL     1      -8.481   9.516  67.569  1.00  0.00    -0.126 A  
HETATM   12  O   UNL     1      -8.025   7.058  70.304  1.00  0.00    -0.113 OA 
HETATM   13  O   UNL     1      -8.909   7.194  67.555  1.00  0.00    -0.120 OA 
HETATM   14  C   UNL     1      -7.572   9.367  70.207  1.00  0.00    -0.143 A  
ENDBRANCH   2   5
ENDBRANCH   1   2
BRANCH   1  15
HETATM   15  N   UNL     1     -10.075  12.376  66.522  1.00  0.00    -0.227 NA 
HETATM   16  H   UNL     1      -9.756  12.020  65.621  1.00  0.00     0.000 HD 
BRANCH  15  17
HETATM   17  C   UNL     1     -11.327  12.327  66.742  1.00  0.00    -0.339 C  
HETATM   18  H   UNL     1     -13.215  12.175  65.980  1.00  0.00     0.000 HD 
HETATM   19  O   UNL     1     -12.279  12.211  65.816  1.00  0.00    -0.586 OA 
BRANCH  17  20
HETATM   20  C   UNL     1     -11.852  12.413  68.154  1.00  0.00    -0.372 C  
BRANCH  20  21
HETATM   21  C   UNL     1     -12.144  11.043  68.758  1.00  0.00    -0.184 C  
BRANCH  21  22
HETATM   22  C   UNL     1     -11.251  10.708  69.954  1.00  0.00    -0.378 C  
BRANCH  22  23
HETATM   23  C   UNL     1     -11.383   9.232  70.337  1.00  0.00    -0.283 C  
BRANCH  23  24
HETATM   24  C   UNL     1     -10.993   8.987  71.794  1.00  0.00    -0.443 C  
BRANCH  24  25
HETATM   25  C   UNL     1     -12.035   8.122  72.504  1.00  0.00    -0.410 C  
HETATM   26  C   UNL     1     -13.338   8.064  71.725  1.00  0.00    -0.370 C  
ENDBRANCH  24  25
ENDBRANCH  23  24
ENDBRANCH  22  23
ENDBRANCH  21  22
ENDBRANCH  20  21
ENDBRANCH  17  20
ENDBRANCH  15  17
ENDBRANCH   1  15
BRANCH   1  27
HETATM   27  C   UNL     1      -8.840  14.376  66.965  1.00  0.00    -0.237 C  
BRANCH  27  28
HETATM   28  N   UNL     1      -9.834  15.438  67.255  1.00  0.00    -0.216 NA 
HETATM   29  C   UNL     1      -9.302  16.747  66.806  1.00  0.00    -0.245 C  
HETATM   30  C   UNL     1     -10.096  15.577  68.688  1.00  0.00    -0.210 C  
HETATM   31  C   UNL     1      -9.663  17.786  67.858  1.00  0.00    -0.294 C  
HETATM   32  C   UNL     1     -10.433  17.036  68.920  1.00  0.00    -0.347 C  
ENDBRANCH  27  28
ENDBRANCH   1  27
TORSDOF 12
ENDMDL
MODEL      221
REMARK 921   NORMALIZED FREE ENERGY PREDICTED BY IDOCK:   -4.29 KCAL/MOL
REMARK 922        TOTAL FREE ENERGY PREDICTED BY IDOCK:   -9.36 KCAL/MOL
REMARK 923 INTER-LIGAND FREE ENERGY PREDICTED BY IDOCK:   -8.14 KCAL/MOL
REMARK 924 INTRA-LIGAND FREE ENERGY PREDICTED BY IDOCK:   -1.22 KCAL/MOL
REMARK 927      BINDING AFFINITY PREDICTED BY RF-SCORE:    0.00 PKD
ROOT
HETATM    1  C   UNL     1     -10.296  12.717  67.928  1.00  0.00    -0.218 C  
ENDROOT
BRANCH   1   2
HETATM    2  C   UNL     1      -9.086  11.726  67.961  1.00  0.00    -0.180 C  
HETATM    3  O   UNL     1      -8.209  11.931  66.845  1.00  0.00    -0.166 OA 
HETATM    4  H   UNL     1      -7.473  11.329  66.865  1.00  0.00     0.000 HD 
BRANCH   2   5
HETATM    5  C   UNL     1      -9.508  10.259  68.071  1.00  0.00    -0.156 A  
HETATM    6  C   UNL     1     -10.924   6.849  70.899  1.00  0.00    -0.253 C  
HETATM    7  C   UNL     1      -9.886   8.303  69.475  1.00  0.00    -0.181 A  
HETATM    8  C   UNL     1     -10.089   9.553  67.000  1.00  0.00    -0.297 A  
HETATM    9  C   UNL     1     -10.449   7.612  68.401  1.00  0.00    -0.169 A  
HETATM   10  C   UNL     1     -10.851   5.787  69.814  1.00  0.00    -0.349 C  
HETATM   11  C   UNL     1      -9.380   9.595  69.307  1.00  0.00    -0.184 A  
HETATM   12  O   UNL     1     -10.983   6.353  68.503  1.00  0.00    -0.290 OA 
HETATM   13  O   UNL     1      -9.848   7.782  70.745  1.00  0.00    -0.180 OA 
HETATM   14  C   UNL     1     -10.532   8.233  67.158  1.00  0.00    -0.386 A  
ENDBRANCH   2   5
ENDBRANCH   1   2
BRANCH   1  15
HETATM   15  N   UNL     1      -9.889  13.963  68.600  1.00  0.00    -0.326 NA 
HETATM   16  H   UNL     1     -10.380  14.196  69.464  1.00  0.00     0.000 HD 
BRANCH  15  17
HETATM   17  C   UNL     1      -8.990  14.778  68.219  1.00  0.00    -0.181 C  
HETATM   18  H   UNL     1      -7.950  15.610  66.672  1.00  0.00     0.000 HD 
HETATM   19  O   UNL     1      -8.621  15.001  66.957  1.00  0.00    -0.209 OA 
BRANCH  17  20
HETATM   20  C   UNL     1      -8.226  15.591  69.234  1.00  0.00    -0.255 C  
BRANCH  20  21
HETATM   21  C   UNL     1      -7.428  16.725  68.600  1.00  0.00    -0.219 C  
BRANCH  21  22
HETATM   22  C   UNL     1      -8.215  18.033  68.495  1.00  0.00    -0.311 C  
BRANCH  22  23
HETATM   23  C   UNL     1      -7.501  19.027  67.577  1.00  0.00    -0.251 C  
BRANCH  23  24
HETATM   24  C   UNL     1      -8.289  19.279  66.292  1.00  0.00    -0.327 C  
BRANCH  24  25
HETATM   25  C   UNL     1      -9.703  18.704  66.393  1.00  0.00    -0.363 C  
HETATM   26  C   UNL     1     -10.757  19.763  66.120  1.00  0.00    -0.492 C  
ENDBRANCH  24  25
ENDBRANCH  23  24
ENDBRANCH  22  23
ENDBRANCH  21  22
ENDBRANCH  20  21
ENDBRANCH  17  20
ENDBRANCH  15  17
ENDBRANCH   1  15
BRANCH   1  27
HETATM   27  C   UNL     1     -11.591  12.285  68.700  1.00  0.00    -0.323 C  
BRANCH  27  28
HETATM   28  N   UNL     1     -11.701  12.370  70.177  1.00  0.00    -0.247 NA 
HETATM   29  C   UNL     1     -12.241  11.095  70.706  1.00  0.00    -0.385 C  
HETATM   30  C   UNL     1     -12.632  13.415  70.605  1.00  0.00    -0.253 C  
HETATM   31  C   UNL     1     -13.235  11.429  71.810  1.00  0.00    -0.472 C  
HETATM   32  C   UNL     1     -13.238  12.937  71.910  1.00  0.00    -0.521 C  
ENDBRANCH  27  28
ENDBRANCH   1  27
TORSDOF 12
ENDMDL
MODEL      222
REMARK 921   NORMALIZED FREE ENERGY PREDICTED BY IDOCK:   -4.27 KCAL/MOL
REMARK 922        TOTAL FREE ENERGY PREDICTED BY IDOCK:   -9.32 KCAL/MOL
REMARK 923 INTER-LIGAND FREE ENERGY PREDICTED BY IDOCK:   -7.85 KCAL/MOL
REMARK 924 INTRA-LIGAND FREE ENERGY PREDICTED BY IDOCK:   -1.47 KCAL/MOL
REMARK 927      BINDING AFFINITY PREDICTED BY RF-SCORE:    0.00 PKD
ROOT
HETATM    1  C   UNL     1      -9.731  10.128  66.262  1.00  0.00    -0.218 C  
ENDROOT
BRANCH   1   2
HETATM    2  C   UNL     1     -11.008   9.619  67.009  1.00  0.00     0.050 C  
HETATM    3  O   UNL     1     -11.662  10.681  67.716  1.00  0.00    -0.675 OA 
HETATM    4  H   UNL     1     -12.438  10.372  68.170  1.00  0.00     0.000 HD 
BRANCH   2   5
HETATM    5  C   UNL     1     -10.736   8.426  67.928  1.00  0.00    -0.141 A  
HETATM    6  C   UNL     1     -11.304   6.612  72.173  1.00  0.00    -0.274 C  
HETATM    7  C   UNL     1     -10.630   7.525  70.190  1.00  0.00    -0.235 A  
HETATM    8  C   UNL     1     -10.552   7.118  67.440  1.00  0.00    -0.372 A  
HETATM    9  C   UNL     1     -10.436   6.236  69.692  1.00  0.00    -0.238 A  
HETATM   10  C   UNL     1     -10.412   5.415  71.886  1.00  0.00    -0.224 C  
HETATM   11  C   UNL     1     -10.735   8.617  69.324  1.00  0.00    -0.151 A  
HETATM   12  O   UNL     1     -10.348   5.120  70.484  1.00  0.00    -0.256 OA 
HETATM   13  O   UNL     1     -10.778   7.780  71.531  1.00  0.00    -0.220 OA 
HETATM   14  C   UNL     1     -10.378   6.037  68.315  1.00  0.00    -0.252 A  
ENDBRANCH   2   5
ENDBRANCH   1   2
BRANCH   1  15
HETATM   15  N   UNL     1      -9.753   9.587  64.892  1.00  0.00    -0.438 NA 
HETATM   16  H   UNL     1      -9.994   8.599  64.796  1.00  0.00     0.000 HD 
BRANCH  15  17
HETATM   17  C   UNL     1      -9.504  10.219  63.816  1.00  0.00    -0.300 C  
HETATM   18  H   UNL     1      -8.624  10.225  61.974  1.00  0.00     0.000 HD 
HETATM   19  O   UNL     1      -8.810   9.752  62.778  1.00  0.00    -0.208 OA 
BRANCH  17  20
HETATM   20  C   UNL     1     -10.000  11.632  63.638  1.00  0.00    -0.406 C  
BRANCH  20  21
HETATM   21  C   UNL     1     -11.517  11.711  63.500  1.00  0.00    -0.427 C  
BRANCH  21  22
HETATM   22  C   UNL     1     -12.073  13.116  63.742  1.00  0.00    -0.563 C  
BRANCH  22  23
HETATM   23  C   UNL     1     -12.585  13.260  65.177  1.00  0.00    -0.512 C  
BRANCH  23  24
HETATM   24  C   UNL     1     -11.546  13.912  66.087  1.00  0.00    -0.371 C  
BRANCH  24  25
HETATM   25  C   UNL     1     -10.534  14.721  65.276  1.00  0.00    -0.427 C  
HETATM   26  C   UNL     1      -9.427  15.277  66.156  1.00  0.00    -0.361 C  
ENDBRANCH  24  25
ENDBRANCH  23  24
ENDBRANCH  22  23
ENDBRANCH  21  22
ENDBRANCH  20  21
ENDBRANCH  17  20
ENDBRANCH  15  17
ENDBRANCH   1  15
BRANCH   1  27
HETATM   27  C   UNL     1      -8.344   9.659  66.824  1.00  0.00    -0.117 C  
BRANCH  27  28
HETATM   28  N   UNL     1      -7.291  10.617  67.241  1.00  0.00    -0.089 NA 
HETATM   29  C   UNL     1      -6.854  10.299  68.621  1.00  0.00    -0.057 C  
HETATM   30  C   UNL     1      -7.778  11.996  67.276  1.00  0.00    -0.168 C  
HETATM   31  C   UNL     1      -6.665  11.612  69.367  1.00  0.00    -0.110 C  
HETATM   32  C   UNL     1      -6.993  12.697  68.368  1.00  0.00    -0.094 C  
ENDBRANCH  27  28
ENDBRANCH   1  27
TORSDOF 12
ENDMDL
MODEL      223
REMARK 921   NORMALIZED FREE ENERGY PREDICTED BY IDOCK:   -4.26 KCAL/MOL
REMARK 922        TOTAL FREE ENERGY PREDICTED BY IDOCK:   -9.31 KCAL/MOL
REMARK 923 INTER-LIGAND FREE ENERGY PREDICTED BY IDOCK:   -8.30 KCAL/MOL
REMARK 924 INTRA-LIGAND FREE ENERGY PREDICTED BY IDOCK:   -1.01 KCAL/MOL
REMARK 927      BINDING AFFINITY PREDICTED BY RF-SCORE:    0.00 PKD
ROOT
HETATM    1  C   UNL     1     -10.749  10.811  67.538  1.00  0.00    -0.264 C  
ENDROOT
BRANCH   1   2
HETATM    2  C   UNL     1      -9.762   9.803  66.863  1.00  0.00    -0.192 C  
HETATM    3  O   UNL     1      -9.940   9.766  65.441  1.00  0.00    -0.320 OA 
HETATM    4  H   UNL     1      -9.340   9.153  65.030  1.00  0.00     0.000 HD 
BRANCH   2   5
HETATM    5  C   UNL     1      -9.825   8.398  67.467  1.00  0.00    -0.235 A  
HETATM    6  C   UNL     1      -8.572   5.654  71.007  1.00  0.00    -0.127 C  
HETATM    7  C   UNL     1      -8.933   6.771  69.046  1.00  0.00    -0.131 A  
HETATM    8  C   UNL     1     -10.885   7.508  67.207  1.00  0.00    -0.297 A  
HETATM    9  C   UNL     1      -9.983   5.893  68.770  1.00  0.00    -0.152 A  
HETATM   10  C   UNL     1      -9.119   4.396  70.351  1.00  0.00    -0.106 C  
HETATM   11  C   UNL     1      -8.826   7.991  68.373  1.00  0.00    -0.134 A  
HETATM   12  O   UNL     1     -10.159   4.694  69.410  1.00  0.00    -0.211 OA 
HETATM   13  O   UNL     1      -7.995   6.512  70.014  1.00  0.00    -0.111 OA 
HETATM   14  C   UNL     1     -10.949   6.256  67.835  1.00  0.00    -0.421 A  
ENDBRANCH   2   5
ENDBRANCH   1   2
BRANCH   1  15
HETATM   15  N   UNL     1     -10.335  12.177  67.172  1.00  0.00    -0.213 NA 
HETATM   16  H   UNL     1      -9.521  12.552  67.659  1.00  0.00     0.000 HD 
BRANCH  15  17
HETATM   17  C   UNL     1     -10.884  12.937  66.312  1.00  0.00    -0.275 C  
HETATM   18  H   UNL     1     -12.590  13.521  65.355  1.00  0.00     0.000 HD 
HETATM   19  O   UNL     1     -12.179  12.953  65.997  1.00  0.00    -0.452 OA 
BRANCH  17  20
HETATM   20  C   UNL     1     -10.052  13.928  65.537  1.00  0.00    -0.319 C  
BRANCH  20  21
HETATM   21  C   UNL     1     -10.862  15.123  65.048  1.00  0.00    -0.457 C  
BRANCH  21  22
HETATM   22  C   UNL     1     -10.366  16.459  65.606  1.00  0.00    -0.371 C  
BRANCH  22  23
HETATM   23  C   UNL     1     -10.450  16.476  67.134  1.00  0.00    -0.300 C  
BRANCH  23  24
HETATM   24  C   UNL     1     -10.483  17.902  67.683  1.00  0.00    -0.406 C  
BRANCH  24  25
HETATM   25  C   UNL     1      -9.500  18.803  66.934  1.00  0.00    -0.329 C  
HETATM   26  C   UNL     1      -9.968  20.248  66.918  1.00  0.00    -0.592 C  
ENDBRANCH  24  25
ENDBRANCH  23  24
ENDBRANCH  22  23
ENDBRANCH  21  22
ENDBRANCH  20  21
ENDBRANCH  17  20
ENDBRANCH  15  17
ENDBRANCH   1  15
BRANCH   1  27
HETATM   27  C   UNL     1     -10.775  10.840  69.106  1.00  0.00    -0.227 C  
BRANCH  27  28
HETATM   28  N   UNL     1     -11.514   9.834  69.907  1.00  0.00    -0.188 NA 
HETATM   29  C   UNL     1     -12.756  10.443  70.439  1.00  0.00    -0.218 C  
HETATM   30  C   UNL     1     -10.751   9.383  71.072  1.00  0.00    -0.337 C  
HETATM   31  C   UNL     1     -12.939   9.961  71.872  1.00  0.00    -0.545 C  
HETATM   32  C   UNL     1     -11.770   9.042  72.142  1.00  0.00    -0.366 C  
ENDBRANCH  27  28
ENDBRANCH   1  27
TORSDOF 12
ENDMDL
MODEL      224
REMARK 921   NORMALIZED FREE ENERGY PREDICTED BY IDOCK:   -4.24 KCAL/MOL
REMARK 922        TOTAL FREE ENERGY PREDICTED BY IDOCK:   -9.26 KCAL/MOL
REMARK 923 INTER-LIGAND FREE ENERGY PREDICTED BY IDOCK:   -7.78 KCAL/MOL
REMARK 924 INTRA-LIGAND FREE ENERGY PREDICTED BY IDOCK:   -1.48 KCAL/MOL
REMARK 927      BINDING AFFINITY PREDICTED BY RF-SCORE:    0.00 PKD
ROOT
HETATM    1  C   UNL     1     -10.434  11.279  67.449  1.00  0.00    -0.212 C  
ENDROOT
BRANCH   1   2
HETATM    2  C   UNL     1     -10.071   9.765  67.606  1.00  0.00    -0.190 C  
HETATM    3  O   UNL     1     -10.447   9.012  66.445  1.00  0.00    -0.215 OA 
HETATM    4  H   UNL     1     -10.227   8.092  66.540  1.00  0.00     0.000 HD 
BRANCH   2   5
HETATM    5  C   UNL     1     -10.637   9.137  68.882  1.00  0.00    -0.214 A  
HETATM    6  C   UNL     1     -10.662   5.417  71.673  1.00  0.00    -0.198 C  
HETATM    7  C   UNL     1     -11.034   7.137  70.215  1.00  0.00    -0.263 A  
HETATM    8  C   UNL     1     -11.082   9.906  69.973  1.00  0.00    -0.335 A  
HETATM    9  C   UNL     1     -11.485   7.911  71.285  1.00  0.00    -0.265 A  
HETATM   10  C   UNL     1     -11.782   5.959  72.546  1.00  0.00    -0.236 C  
HETATM   11  C   UNL     1     -10.656   7.734  69.010  1.00  0.00    -0.179 A  
HETATM   12  O   UNL     1     -11.849   7.391  72.500  1.00  0.00    -0.263 OA 
HETATM   13  O   UNL     1     -10.891   5.774  70.305  1.00  0.00    -0.299 OA 
HETATM   14  C   UNL     1     -11.527   9.297  71.155  1.00  0.00    -0.403 A  
ENDBRANCH   2   5
ENDBRANCH   1   2
BRANCH   1  15
HETATM   15  N   UNL     1     -11.411  11.407  66.354  1.00  0.00    -0.336 NA 
HETATM   16  H   UNL     1     -12.356  11.072  66.546  1.00  0.00     0.000 HD 
BRANCH  15  17
HETATM   17  C   UNL     1     -11.203  11.890  65.196  1.00  0.00    -0.289 C  
HETATM   18  H   UNL     1     -10.295  11.700  63.377  1.00  0.00     0.000 HD 
HETATM   19  O   UNL     1     -10.451  11.339  64.243  1.00  0.00    -0.309 OA 
BRANCH  17  20
HETATM   20  C   UNL     1     -11.823  13.208  64.803  1.00  0.00    -0.413 C  
BRANCH  20  21
HETATM   21  C   UNL     1     -12.310  14.011  66.004  1.00  0.00    -0.504 C  
BRANCH  21  22
HETATM   22  C   UNL     1     -11.398  15.189  66.354  1.00  0.00    -0.225 C  
BRANCH  22  23
HETATM   23  C   UNL     1     -11.407  15.457  67.860  1.00  0.00    -0.328 C  
BRANCH  23  24
HETATM   24  C   UNL     1     -11.900  14.245  68.649  1.00  0.00    -0.379 C  
BRANCH  24  25
HETATM   25  C   UNL     1     -11.694  14.446  70.151  1.00  0.00    -0.361 C  
HETATM   26  C   UNL     1     -12.597  13.535  70.965  1.00  0.00    -0.438 C  
ENDBRANCH  24  25
ENDBRANCH  23  24
ENDBRANCH  22  23
ENDBRANCH  21  22
ENDBRANCH  20  21
ENDBRANCH  17  20
ENDBRANCH  15  17
ENDBRANCH   1  15
BRANCH   1  27
HETATM   27  C   UNL     1      -9.275  12.248  67.026  1.00  0.00    -0.205 C  
BRANCH  27  28
HETATM   28  N   UNL     1      -8.547  13.091  68.005  1.00  0.00    -0.177 NA 
HETATM   29  C   UNL     1      -7.997  14.283  67.317  1.00  0.00    -0.168 C  
HETATM   30  C   UNL     1      -7.401  12.396  68.593  1.00  0.00    -0.102 C  
HETATM   31  C   UNL     1      -6.599  14.537  67.864  1.00  0.00    -0.178 C  
HETATM   32  C   UNL     1      -6.368  13.462  68.901  1.00  0.00    -0.099 C  
ENDBRANCH  27  28
ENDBRANCH   1  27
TORSDOF 12
ENDMDL
MODEL      225
REMARK 921   NORMALIZED FREE ENERGY PREDICTED BY IDOCK:   -4.23 KCAL/MOL
REMARK 922        TOTAL FREE ENERGY PREDICTED BY IDOCK:   -9.26 KCAL/MOL
REMARK 923 INTER-LIGAND FREE ENERGY PREDICTED BY IDOCK:   -7.39 KCAL/MOL
REMARK 924 INTRA-LIGAND FREE ENERGY PREDICTED BY IDOCK:   -1.87 KCAL/MOL
REMARK 927      BINDING AFFINITY PREDICTED BY RF-SCORE:    0.00 PKD
ROOT
HETATM    1  C   UNL     1      -9.668   8.628  67.140  1.00  0.00    -0.190 C  
ENDROOT
BRANCH   1   2
HETATM    2  C   UNL     1     -10.831   9.064  68.091  1.00  0.00    -0.027 C  
HETATM    3  O   UNL     1     -11.133  10.458  67.946  1.00  0.00    -0.284 OA 
HETATM    4  H   UNL     1     -11.840  10.724  68.524  1.00  0.00     0.000 HD 
BRANCH   2   5
HETATM    5  C   UNL     1     -10.583   8.700  69.557  1.00  0.00    -0.218 A  
HETATM    6  C   UNL     1     -10.869   5.396  72.818  1.00  0.00    -0.263 C  
HETATM    7  C   UNL     1     -11.021   7.206  71.431  1.00  0.00    -0.234 A  
HETATM    8  C   UNL     1      -9.590   9.324  70.336  1.00  0.00    -0.292 A  
HETATM    9  C   UNL     1     -10.042   7.842  72.197  1.00  0.00    -0.210 A  
HETATM   10  C   UNL     1     -10.458   6.335  73.941  1.00  0.00    -0.280 C  
HETATM   11  C   UNL     1     -11.323   7.653  70.142  1.00  0.00    -0.147 A  
HETATM   12  O   UNL     1      -9.683   7.440  73.457  1.00  0.00    -0.236 OA 
HETATM   13  O   UNL     1     -11.692   6.093  71.875  1.00  0.00    -0.309 OA 
HETATM   14  C   UNL     1      -9.341   8.915  71.654  1.00  0.00    -0.328 A  
ENDBRANCH   2   5
ENDBRANCH   1   2
BRANCH   1  15
HETATM   15  N   UNL     1      -9.999   9.071  65.775  1.00  0.00    -0.440 NA 
HETATM   16  H   UNL     1     -10.719   8.540  65.285  1.00  0.00     0.000 HD 
BRANCH  15  17
HETATM   17  C   UNL     1      -9.483  10.047  65.142  1.00  0.00    -0.270 C  
HETATM   18  H   UNL     1      -7.819  11.152  64.720  1.00  0.00     0.000 HD 
HETATM   19  O   UNL     1      -8.205  10.423  65.193  1.00  0.00    -0.158 OA 
BRANCH  17  20
HETATM   20  C   UNL     1     -10.339  10.903  64.243  1.00  0.00    -0.436 C  
BRANCH  20  21
HETATM   21  C   UNL     1     -10.659  12.263  64.854  1.00  0.00    -0.329 C  
BRANCH  21  22
HETATM   22  C   UNL     1     -12.160  12.522  64.997  1.00  0.00    -0.504 C  
BRANCH  22  23
HETATM   23  C   UNL     1     -12.428  13.977  65.388  1.00  0.00    -0.520 C  
BRANCH  23  24
HETATM   24  C   UNL     1     -11.525  14.431  66.534  1.00  0.00    -0.369 C  
BRANCH  24  25
HETATM   25  C   UNL     1     -11.950  13.789  67.856  1.00  0.00    -0.391 C  
HETATM   26  C   UNL     1     -11.768  14.743  69.024  1.00  0.00    -0.343 C  
ENDBRANCH  24  25
ENDBRANCH  23  24
ENDBRANCH  22  23
ENDBRANCH  21  22
ENDBRANCH  20  21
ENDBRANCH  17  20
ENDBRANCH  15  17
ENDBRANCH   1  15
BRANCH   1  27
HETATM   27  C   UNL     1      -9.420   7.087  66.979  1.00  0.00    -0.149 C  
BRANCH  27  28
HETATM   28  N   UNL     1      -8.285   6.393  67.634  1.00  0.00    -0.117 NA 
HETATM   29  C   UNL     1      -8.798   5.527  68.723  1.00  0.00    -0.107 C  
HETATM   30  C   UNL     1      -7.351   7.327  68.264  1.00  0.00    -0.100 C  
HETATM   31  C   UNL     1      -7.849   5.650  69.906  1.00  0.00    -0.087 C  
HETATM   32  C   UNL     1      -6.764   6.602  69.459  1.00  0.00    -0.050 C  
ENDBRANCH  27  28
ENDBRANCH   1  27
TORSDOF 12
ENDMDL
MODEL      226
REMARK 921   NORMALIZED FREE ENERGY PREDICTED BY IDOCK:   -4.23 KCAL/MOL
REMARK 922        TOTAL FREE ENERGY PREDICTED BY IDOCK:   -9.26 KCAL/MOL
REMARK 923 INTER-LIGAND FREE ENERGY PREDICTED BY IDOCK:   -8.25 KCAL/MOL
REMARK 924 INTRA-LIGAND FREE ENERGY PREDICTED BY IDOCK:   -1.01 KCAL/MOL
REMARK 927      BINDING AFFINITY PREDICTED BY RF-SCORE:    0.00 PKD
ROOT
HETATM    1  C   UNL     1      -9.707  11.138  67.041  1.00  0.00    -0.186 C  
ENDROOT
BRANCH   1   2
HETATM    2  C   UNL     1     -10.227  11.935  68.282  1.00  0.00    -0.204 C  
HETATM    3  O   UNL     1      -9.293  12.945  68.686  1.00  0.00    -0.385 OA 
HETATM    4  H   UNL     1      -9.608  13.430  69.441  1.00  0.00     0.000 HD 
BRANCH   2   5
HETATM    5  C   UNL     1     -10.615  11.037  69.460  1.00  0.00    -0.182 A  
HETATM    6  C   UNL     1     -14.058   8.786  71.630  1.00  0.00    -0.370 C  
HETATM    7  C   UNL     1     -12.362  10.130  70.896  1.00  0.00    -0.363 A  
HETATM    8  C   UNL     1      -9.708  10.148  70.067  1.00  0.00    -0.144 A  
HETATM    9  C   UNL     1     -11.449   9.262  71.497  1.00  0.00    -0.384 A  
HETATM   10  C   UNL     1     -13.181   8.380  72.804  1.00  0.00     0.047 C  
HETATM   11  C   UNL     1     -11.947  11.039  69.919  1.00  0.00    -0.427 A  
HETATM   12  O   UNL     1     -11.794   8.332  72.444  1.00  0.00    -0.364 OA 
HETATM   13  O   UNL     1     -13.703  10.102  71.187  1.00  0.00    -0.200 OA 
HETATM   14  C   UNL     1     -10.117   9.286  71.095  1.00  0.00    -0.374 A  
ENDBRANCH   2   5
ENDBRANCH   1   2
BRANCH   1  15
HETATM   15  N   UNL     1     -10.118  11.860  65.825  1.00  0.00    -0.233 NA 
HETATM   16  H   UNL     1      -9.537  11.726  64.997  1.00  0.00     0.000 HD 
BRANCH  15  17
HETATM   17  C   UNL     1     -11.120  12.634  65.697  1.00  0.00    -0.292 C  
HETATM   18  H   UNL     1     -13.137  12.899  65.870  1.00  0.00     0.000 HD 
HETATM   19  O   UNL     1     -12.388  12.321  65.965  1.00  0.00    -0.609 OA 
BRANCH  17  20
HETATM   20  C   UNL     1     -10.929  14.043  65.193  1.00  0.00    -0.357 C  
BRANCH  20  21
HETATM   21  C   UNL     1     -10.896  15.072  66.319  1.00  0.00    -0.333 C  
BRANCH  21  22
HETATM   22  C   UNL     1      -9.760  16.087  66.176  1.00  0.00    -0.353 C  
BRANCH  22  23
HETATM   23  C   UNL     1     -10.312  17.508  66.047  1.00  0.00    -0.309 C  
BRANCH  23  24
HETATM   24  C   UNL     1     -10.645  18.112  67.411  1.00  0.00    -0.406 C  
BRANCH  24  25
HETATM   25  C   UNL     1      -9.483  17.938  68.389  1.00  0.00    -0.304 C  
HETATM   26  C   UNL     1      -8.601  19.174  68.436  1.00  0.00    -0.387 C  
ENDBRANCH  24  25
ENDBRANCH  23  24
ENDBRANCH  22  23
ENDBRANCH  21  22
ENDBRANCH  20  21
ENDBRANCH  17  20
ENDBRANCH  15  17
ENDBRANCH   1  15
BRANCH   1  27
HETATM   27  C   UNL     1     -10.287   9.696  66.828  1.00  0.00    -0.222 C  
BRANCH  27  28
HETATM   28  N   UNL     1      -9.489   8.472  67.088  1.00  0.00    -0.153 NA 
HETATM   29  C   UNL     1      -8.545   8.252  65.967  1.00  0.00    -0.149 C  
HETATM   30  C   UNL     1     -10.323   7.271  67.160  1.00  0.00    -0.297 C  
HETATM   31  C   UNL     1      -8.518   6.760  65.663  1.00  0.00    -0.142 C  
HETATM   32  C   UNL     1      -9.465   6.127  66.656  1.00  0.00    -0.173 C  
ENDBRANCH  27  28
ENDBRANCH   1  27
TORSDOF 12
ENDMDL
MODEL      227
REMARK 921   NORMALIZED FREE ENERGY PREDICTED BY IDOCK:   -4.22 KCAL/MOL
REMARK 922        TOTAL FREE ENERGY PREDICTED BY IDOCK:   -9.23 KCAL/MOL
REMARK 923 INTER-LIGAND FREE ENERGY PREDICTED BY IDOCK:   -7.24 KCAL/MOL
REMARK 924 INTRA-LIGAND FREE ENERGY PREDICTED BY IDOCK:   -1.99 KCAL/MOL
REMARK 927      BINDING AFFINITY PREDICTED BY RF-SCORE:    0.00 PKD
ROOT
HETATM    1  C   UNL     1      -9.734   9.352  68.684  1.00  0.00    -0.152 C  
ENDROOT
BRANCH   1   2
HETATM    2  C   UNL     1     -10.765   9.221  67.515  1.00  0.00    -0.203 C  
HETATM    3  O   UNL     1     -10.547   8.025  66.754  1.00  0.00    -0.363 OA 
HETATM    4  H   UNL     1     -11.174   7.945  66.043  1.00  0.00     0.000 HD 
BRANCH   2   5
HETATM    5  C   UNL     1     -10.813  10.454  66.609  1.00  0.00    -0.140 A  
HETATM    6  C   UNL     1     -11.125  15.089  66.406  1.00  0.00    -0.329 C  
HETATM    7  C   UNL     1     -11.344  12.816  66.337  1.00  0.00    -0.323 A  
HETATM    8  C   UNL     1     -10.219  10.480  65.332  1.00  0.00    -0.340 A  
HETATM    9  C   UNL     1     -10.763  12.825  65.069  1.00  0.00    -0.296 A  
HETATM   10  C   UNL     1     -11.237  15.112  64.891  1.00  0.00    -0.417 C  
HETATM   11  C   UNL     1     -11.411  11.637  67.085  1.00  0.00    -0.373 A  
HETATM   12  O   UNL     1     -10.645  13.950  64.294  1.00  0.00    -0.328 OA 
HETATM   13  O   UNL     1     -11.826  13.956  66.932  1.00  0.00    -0.376 OA 
HETATM   14  C   UNL     1     -10.218  11.650  64.559  1.00  0.00    -0.337 A  
ENDBRANCH   2   5
ENDBRANCH   1   2
BRANCH   1  15
HETATM   15  N   UNL     1      -8.966   8.097  68.762  1.00  0.00    -0.144 NA 
HETATM   16  H   UNL     1      -9.500   7.245  68.935  1.00  0.00     0.000 HD 
BRANCH  15  17
HETATM   17  C   UNL     1      -7.707   7.964  68.637  1.00  0.00    -0.113 C  
HETATM   18  H   UNL     1      -6.027   6.887  69.071  1.00  0.00     0.000 HD 
HETATM   19  O   UNL     1      -6.968   6.987  69.164  1.00  0.00    -0.072 OA 
BRANCH  17  20
HETATM   20  C   UNL     1      -6.914   8.971  67.842  1.00  0.00    -0.078 C  
BRANCH  20  21
HETATM   21  C   UNL     1      -7.166   8.867  66.342  1.00  0.00    -0.084 C  
BRANCH  21  22
HETATM   22  C   UNL     1      -6.900   7.469  65.780  1.00  0.00    -0.056 C  
BRANCH  22  23
HETATM   23  C   UNL     1      -8.026   7.037  64.838  1.00  0.00    -0.127 C  
BRANCH  23  24
HETATM   24  C   UNL     1      -7.586   7.073  63.375  1.00  0.00    -0.105 C  
BRANCH  24  25
HETATM   25  C   UNL     1      -8.191   8.275  62.649  1.00  0.00    -0.154 C  
HETATM   26  C   UNL     1      -7.154   9.357  62.398  1.00  0.00    -0.101 C  
ENDBRANCH  24  25
ENDBRANCH  23  24
ENDBRANCH  22  23
ENDBRANCH  21  22
ENDBRANCH  20  21
ENDBRANCH  17  20
ENDBRANCH  15  17
ENDBRANCH   1  15
BRANCH   1  27
HETATM   27  C   UNL     1     -10.317   9.521  70.130  1.00  0.00    -0.255 C  
BRANCH  27  28
HETATM   28  N   UNL     1     -11.774   9.539  70.403  1.00  0.00    -0.216 NA 
HETATM   29  C   UNL     1     -12.202  10.926  70.704  1.00  0.00    -0.376 C  
HETATM   30  C   UNL     1     -12.130   8.741  71.577  1.00  0.00    -0.329 C  
HETATM   31  C   UNL     1     -13.200  10.871  71.852  1.00  0.00    -0.508 C  
HETATM   32  C   UNL     1     -13.346   9.406  72.192  1.00  0.00    -0.545 C  
ENDBRANCH  27  28
ENDBRANCH   1  27
TORSDOF 12
ENDMDL
MODEL      228
REMARK 921   NORMALIZED FREE ENERGY PREDICTED BY IDOCK:   -4.22 KCAL/MOL
REMARK 922        TOTAL FREE ENERGY PREDICTED BY IDOCK:   -9.23 KCAL/MOL
REMARK 923 INTER-LIGAND FREE ENERGY PREDICTED BY IDOCK:   -6.85 KCAL/MOL
REMARK 924 INTRA-LIGAND FREE ENERGY PREDICTED BY IDOCK:   -2.39 KCAL/MOL
REMARK 927      BINDING AFFINITY PREDICTED BY RF-SCORE:    0.00 PKD
ROOT
HETATM    1  C   UNL     1      -8.976  10.872  66.422  1.00  0.00    -0.175 C  
ENDROOT
BRANCH   1   2
HETATM    2  C   UNL     1      -9.728  11.179  67.759  1.00  0.00    -0.171 C  
HETATM    3  O   UNL     1      -8.974  12.066  68.595  1.00  0.00    -0.336 OA 
HETATM    4  H   UNL     1      -9.430  12.253  69.408  1.00  0.00     0.000 HD 
BRANCH   2   5
HETATM    5  C   UNL     1     -10.145   9.918  68.522  1.00  0.00    -0.186 A  
HETATM    6  C   UNL     1     -12.538   8.193  72.118  1.00  0.00    -0.310 C  
HETATM    7  C   UNL     1     -11.032   8.918  70.559  1.00  0.00    -0.241 A  
HETATM    8  C   UNL     1     -10.241   8.656  67.907  1.00  0.00    -0.273 A  
HETATM    9  C   UNL     1     -11.111   7.670  69.940  1.00  0.00    -0.150 A  
HETATM   10  C   UNL     1     -12.025   6.777  71.903  1.00  0.00    -0.333 C  
HETATM   11  C   UNL     1     -10.514  10.023  69.878  1.00  0.00    -0.317 A  
HETATM   12  O   UNL     1     -11.628   6.553  70.543  1.00  0.00    -0.361 OA 
HETATM   13  O   UNL     1     -11.499   9.138  71.832  1.00  0.00    -0.360 OA 
HETATM   14  C   UNL     1     -10.696   7.537  68.618  1.00  0.00    -0.111 A  
ENDBRANCH   2   5
ENDBRANCH   1   2
BRANCH   1  15
HETATM   15  N   UNL     1      -7.663  11.536  66.471  1.00  0.00    -0.316 NA 
HETATM   16  H   UNL     1      -7.669  12.555  66.539  1.00  0.00     0.000 HD 
BRANCH  15  17
HETATM   17  C   UNL     1      -6.521  10.975  66.437  1.00  0.00    -0.127 C  
HETATM   18  H   UNL     1      -4.534  11.117  65.991  1.00  0.00     0.000 HD 
HETATM   19  O   UNL     1      -5.387  11.536  66.016  1.00  0.00    -0.288 OA 
BRANCH  17  20
HETATM   20  C   UNL     1      -6.368   9.545  66.888  1.00  0.00    -0.066 C  
BRANCH  20  21
HETATM   21  C   UNL     1      -5.263   9.370  67.925  1.00  0.00    -0.037 C  
BRANCH  21  22
HETATM   22  C   UNL     1      -5.795   9.115  69.337  1.00  0.00    -0.034 C  
BRANCH  22  23
HETATM   23  C   UNL     1      -7.014   8.192  69.302  1.00  0.00    -0.055 C  
BRANCH  23  24
HETATM   24  C   UNL     1      -7.520   7.866  70.707  1.00  0.00    -0.072 C  
BRANCH  24  25
HETATM   25  C   UNL     1      -7.757   6.365  70.871  1.00  0.00    -0.101 C  
HETATM   26  C   UNL     1      -7.791   5.654  69.529  1.00  0.00    -0.092 C  
ENDBRANCH  24  25
ENDBRANCH  23  24
ENDBRANCH  22  23
ENDBRANCH  21  22
ENDBRANCH  20  21
ENDBRANCH  17  20
ENDBRANCH  15  17
ENDBRANCH   1  15
BRANCH   1  27
HETATM   27  C   UNL     1      -9.621  11.421  65.102  1.00  0.00    -0.229 C  
BRANCH  27  28
HETATM   28  N   UNL     1     -10.922  12.133  65.088  1.00  0.00    -0.301 NA 
HETATM   29  C   UNL     1     -11.614  11.872  63.804  1.00  0.00    -0.462 C  
HETATM   30  C   UNL     1     -10.761  13.585  65.176  1.00  0.00    -0.341 C  
HETATM   31  C   UNL     1     -12.255  13.174  63.344  1.00  0.00    -0.521 C  
HETATM   32  C   UNL     1     -11.923  14.189  64.413  1.00  0.00    -0.478 C  
ENDBRANCH  27  28
ENDBRANCH   1  27
TORSDOF 12
ENDMDL
MODEL      229
REMARK 921   NORMALIZED FREE ENERGY PREDICTED BY IDOCK:   -4.21 KCAL/MOL
REMARK 922        TOTAL FREE ENERGY PREDICTED BY IDOCK:   -9.22 KCAL/MOL
REMARK 923 INTER-LIGAND FREE ENERGY PREDICTED BY IDOCK:   -7.14 KCAL/MOL
REMARK 924 INTRA-LIGAND FREE ENERGY PREDICTED BY IDOCK:   -2.08 KCAL/MOL
REMARK 927      BINDING AFFINITY PREDICTED BY RF-SCORE:    0.00 PKD
ROOT
HETATM    1  C   UNL     1      -9.811  10.339  67.158  1.00  0.00    -0.185 C  
ENDROOT
BRANCH   1   2
HETATM    2  C   UNL     1     -10.522  10.978  68.396  1.00  0.00    -0.180 C  
HETATM    3  O   UNL     1      -9.737  12.034  68.966  1.00  0.00    -0.412 OA 
HETATM    4  H   UNL     1     -10.169  12.422  69.719  1.00  0.00     0.000 HD 
BRANCH   2   5
HETATM    5  C   UNL     1     -10.926   9.952  69.458  1.00  0.00    -0.274 A  
HETATM    6  C   UNL     1     -10.259   5.668  71.142  1.00  0.00    -0.220 C  
HETATM    7  C   UNL     1     -10.955   7.633  70.204  1.00  0.00    -0.246 A  
HETATM    8  C   UNL     1     -11.430  10.324  70.719  1.00  0.00    -0.438 A  
HETATM    9  C   UNL     1     -11.465   8.014  71.446  1.00  0.00    -0.258 A  
HETATM   10  C   UNL     1     -11.406   5.776  72.134  1.00  0.00    -0.258 C  
HETATM   11  C   UNL     1     -10.728   8.581  69.203  1.00  0.00    -0.128 A  
HETATM   12  O   UNL     1     -11.690   7.139  72.477  1.00  0.00    -0.257 OA 
HETATM   13  O   UNL     1     -10.604   6.336  69.921  1.00  0.00    -0.204 OA 
HETATM   14  C   UNL     1     -11.721   9.360  71.695  1.00  0.00    -0.468 A  
ENDBRANCH   2   5
ENDBRANCH   1   2
BRANCH   1  15
HETATM   15  N   UNL     1      -8.514  11.013  66.974  1.00  0.00    -0.137 NA 
HETATM   16  H   UNL     1      -8.537  12.028  66.874  1.00  0.00     0.000 HD 
BRANCH  15  17
HETATM   17  C   UNL     1      -7.367  10.463  66.928  1.00  0.00    -0.106 C  
HETATM   18  H   UNL     1      -5.492  10.433  66.122  1.00  0.00     0.000 HD 
HETATM   19  O   UNL     1      -6.348  10.844  66.157  1.00  0.00    -0.126 OA 
BRANCH  17  20
HETATM   20  C   UNL     1      -7.069   9.262  67.789  1.00  0.00    -0.082 C  
BRANCH  20  21
HETATM   21  C   UNL     1      -6.245   9.612  69.024  1.00  0.00    -0.041 C  
BRANCH  21  22
HETATM   22  C   UNL     1      -7.095  10.104  70.197  1.00  0.00    -0.162 C  
BRANCH  22  23
HETATM   23  C   UNL     1      -7.670   8.926  70.987  1.00  0.00    -0.155 C  
BRANCH  23  24
HETATM   24  C   UNL     1      -6.715   8.460  72.085  1.00  0.00    -0.090 C  
BRANCH  24  25
HETATM   25  C   UNL     1      -7.373   7.407  72.976  1.00  0.00    -0.084 C  
HETATM   26  C   UNL     1      -8.519   7.995  73.783  1.00  0.00    -0.317 C  
ENDBRANCH  24  25
ENDBRANCH  23  24
ENDBRANCH  22  23
ENDBRANCH  21  22
ENDBRANCH  20  21
ENDBRANCH  17  20
ENDBRANCH  15  17
ENDBRANCH   1  15
BRANCH   1  27
HETATM   27  C   UNL     1     -10.516  10.508  65.767  1.00  0.00    -0.143 C  
BRANCH  27  28
HETATM   28  N   UNL     1     -10.707  11.833  65.129  1.00  0.00    -0.282 NA 
HETATM   29  C   UNL     1     -11.809  12.554  65.810  1.00  0.00    -0.437 C  
HETATM   30  C   UNL     1     -11.103  11.721  63.724  1.00  0.00    -0.436 C  
HETATM   31  C   UNL     1     -12.641  13.254  64.745  1.00  0.00    -0.398 C  
HETATM   32  C   UNL     1     -11.974  12.926  63.429  1.00  0.00    -0.612 C  
ENDBRANCH  27  28
ENDBRANCH   1  27
TORSDOF 12
ENDMDL
MODEL      230
REMARK 921   NORMALIZED FREE ENERGY PREDICTED BY IDOCK:   -4.21 KCAL/MOL
REMARK 922        TOTAL FREE ENERGY PREDICTED BY IDOCK:   -9.22 KCAL/MOL
REMARK 923 INTER-LIGAND FREE ENERGY PREDICTED BY IDOCK:   -8.39 KCAL/MOL
REMARK 924 INTRA-LIGAND FREE ENERGY PREDICTED BY IDOCK:   -0.84 KCAL/MOL
REMARK 927      BINDING AFFINITY PREDICTED BY RF-SCORE:    0.00 PKD
ROOT
HETATM    1  C   UNL     1     -10.797  10.792  69.021  1.00  0.00    -0.235 C  
ENDROOT
BRANCH   1   2
HETATM    2  C   UNL     1      -9.597   9.840  69.336  1.00  0.00    -0.207 C  
HETATM    3  O   UNL     1      -8.432  10.576  69.730  1.00  0.00    -0.382 OA 
HETATM    4  H   UNL     1      -7.702   9.998  69.922  1.00  0.00     0.000 HD 
BRANCH   2   5
HETATM    5  C   UNL     1      -9.279   8.868  68.196  1.00  0.00    -0.145 A  
HETATM    6  C   UNL     1      -9.849   4.571  66.511  1.00  0.00    -0.227 C  
HETATM    7  C   UNL     1      -9.178   6.572  67.388  1.00  0.00    -0.121 A  
HETATM    8  C   UNL     1      -9.008   9.301  66.884  1.00  0.00    -0.149 A  
HETATM    9  C   UNL     1      -8.898   7.015  66.095  1.00  0.00    -0.147 A  
HETATM   10  C   UNL     1      -8.881   4.791  65.360  1.00  0.00    -0.146 C  
HETATM   11  C   UNL     1      -9.325   7.481  68.439  1.00  0.00    -0.141 A  
HETATM   12  O   UNL     1      -8.765   6.178  65.017  1.00  0.00    -0.072 OA 
HETATM   13  O   UNL     1      -9.376   5.246  67.684  1.00  0.00    -0.113 OA 
HETATM   14  C   UNL     1      -8.793   8.381  65.848  1.00  0.00    -0.212 A  
ENDBRANCH   2   5
ENDBRANCH   1   2
BRANCH   1  15
HETATM   15  N   UNL     1     -10.303  12.180  69.048  1.00  0.00    -0.421 NA 
HETATM   16  H   UNL     1      -9.525  12.374  69.678  1.00  0.00     0.000 HD 
BRANCH  15  17
HETATM   17  C   UNL     1     -10.744  13.161  68.369  1.00  0.00    -0.253 C  
HETATM   18  H   UNL     1     -10.775  14.161  66.589  1.00  0.00     0.000 HD 
HETATM   19  O   UNL     1     -10.446  13.428  67.097  1.00  0.00    -0.247 OA 
BRANCH  17  20
HETATM   20  C   UNL     1     -11.684  14.157  69.001  1.00  0.00    -0.361 C  
BRANCH  20  21
HETATM   21  C   UNL     1     -10.952  15.250  69.773  1.00  0.00    -0.295 C  
BRANCH  21  22
HETATM   22  C   UNL     1     -11.827  15.938  70.823  1.00  0.00    -0.423 C  
BRANCH  22  23
HETATM   23  C   UNL     1     -13.211  15.289  70.889  1.00  0.00    -0.506 C  
BRANCH  23  24
HETATM   24  C   UNL     1     -13.713  15.169  72.327  1.00  0.00    -0.596 C  
BRANCH  24  25
HETATM   25  C   UNL     1     -12.546  15.095  73.312  1.00  0.00    -0.615 C  
HETATM   26  C   UNL     1     -12.465  16.341  74.178  1.00  0.00    -0.651 C  
ENDBRANCH  24  25
ENDBRANCH  23  24
ENDBRANCH  22  23
ENDBRANCH  21  22
ENDBRANCH  20  21
ENDBRANCH  17  20
ENDBRANCH  15  17
ENDBRANCH   1  15
BRANCH   1  27
HETATM   27  C   UNL     1     -11.986  10.802  70.044  1.00  0.00    -0.347 C  
BRANCH  27  28
HETATM   28  N   UNL     1     -12.069   9.845  71.174  1.00  0.00    -0.345 NA 
HETATM   29  C   UNL     1     -12.242   8.471  70.646  1.00  0.00     0.102 C  
HETATM   30  C   UNL     1     -13.227  10.099  72.032  1.00  0.00    -0.430 C  
HETATM   31  C   UNL     1     -13.255   7.753  71.527  1.00  0.00    -0.356 C  
HETATM   32  C   UNL     1     -13.648   8.753  72.590  1.00  0.00    -0.349 C  
ENDBRANCH  27  28
ENDBRANCH   1  27
TORSDOF 12
ENDMDL
MODEL      231
REMARK 921   NORMALIZED FREE ENERGY PREDICTED BY IDOCK:   -4.20 KCAL/MOL
REMARK 922        TOTAL FREE ENERGY PREDICTED BY IDOCK:   -9.21 KCAL/MOL
REMARK 923 INTER-LIGAND FREE ENERGY PREDICTED BY IDOCK:   -7.52 KCAL/MOL
REMARK 924 INTRA-LIGAND FREE ENERGY PREDICTED BY IDOCK:   -1.69 KCAL/MOL
REMARK 927      BINDING AFFINITY PREDICTED BY RF-SCORE:    0.00 PKD
ROOT
HETATM    1  C   UNL     1      -9.712  11.311  69.063  1.00  0.00    -0.054 C  
ENDROOT
BRANCH   1   2
HETATM    2  C   UNL     1      -8.929  12.148  67.998  1.00  0.00    -0.189 C  
HETATM    3  O   UNL     1      -7.517  12.125  68.246  1.00  0.00    -0.092 OA 
HETATM    4  H   UNL     1      -7.042  12.633  67.598  1.00  0.00     0.000 HD 
BRANCH   2   5
HETATM    5  C   UNL     1      -9.444  13.583  67.858  1.00  0.00    -0.215 A  
HETATM    6  C   UNL     1      -8.497  18.100  68.429  1.00  0.00    -0.299 C  
HETATM    7  C   UNL     1      -9.231  15.936  68.452  1.00  0.00    -0.197 A  
HETATM    8  C   UNL     1     -10.418  13.950  66.909  1.00  0.00    -0.276 A  
HETATM    9  C   UNL     1     -10.206  16.285  67.516  1.00  0.00    -0.270 A  
HETATM   10  C   UNL     1      -9.910  18.539  68.078  1.00  0.00    -0.341 C  
HETATM   11  C   UNL     1      -8.882  14.598  68.656  1.00  0.00    -0.183 A  
HETATM   12  O   UNL     1     -10.578  17.577  67.251  1.00  0.00    -0.341 OA 
HETATM   13  O   UNL     1      -8.536  16.876  69.172  1.00  0.00    -0.190 OA 
HETATM   14  C   UNL     1     -10.813  15.287  66.758  1.00  0.00    -0.312 A  
ENDBRANCH   2   5
ENDBRANCH   1   2
BRANCH   1  15
HETATM   15  N   UNL     1      -8.993  10.043  69.271  1.00  0.00    -0.167 NA 
HETATM   16  H   UNL     1      -8.780   9.497  68.435  1.00  0.00     0.000 HD 
BRANCH  15  17
HETATM   17  C   UNL     1      -8.609   9.555  70.381  1.00  0.00    -0.206 C  
HETATM   18  H   UNL     1      -7.202   9.510  71.860  1.00  0.00     0.000 HD 
HETATM   19  O   UNL     1      -7.489   9.874  71.030  1.00  0.00    -0.289 OA 
BRANCH  17  20
HETATM   20  C   UNL     1      -9.443   8.508  71.076  1.00  0.00    -0.234 C  
BRANCH  20  21
HETATM   21  C   UNL     1     -10.087   7.526  70.103  1.00  0.00    -0.195 C  
BRANCH  21  22
HETATM   22  C   UNL     1     -11.471   7.051  70.552  1.00  0.00    -0.363 C  
BRANCH  22  23
HETATM   23  C   UNL     1     -11.589   7.078  72.077  1.00  0.00    -0.322 C  
BRANCH  23  24
HETATM   24  C   UNL     1     -11.905   5.696  72.646  1.00  0.00    -0.192 C  
BRANCH  24  25
HETATM   25  C   UNL     1     -10.729   5.154  73.460  1.00  0.00    -0.339 C  
HETATM   26  C   UNL     1     -10.001   6.266  74.198  1.00  0.00    -0.299 C  
ENDBRANCH  24  25
ENDBRANCH  23  24
ENDBRANCH  22  23
ENDBRANCH  21  22
ENDBRANCH  20  21
ENDBRANCH  17  20
ENDBRANCH  15  17
ENDBRANCH   1  15
BRANCH   1  27
HETATM   27  C   UNL     1     -11.164  10.856  68.684  1.00  0.00    -0.267 C  
BRANCH  27  28
HETATM   28  N   UNL     1     -12.348  11.212  69.504  1.00  0.00    -0.276 NA 
HETATM   29  C   UNL     1     -12.270  12.641  69.888  1.00  0.00    -0.168 C  
HETATM   30  C   UNL     1     -12.402  10.457  70.757  1.00  0.00    -0.367 C  
HETATM   31  C   UNL     1     -12.724  12.763  71.336  1.00  0.00    -0.353 C  
HETATM   32  C   UNL     1     -13.079  11.359  71.769  1.00  0.00    -0.523 C  
ENDBRANCH  27  28
ENDBRANCH   1  27
TORSDOF 12
ENDMDL
MODEL      232
REMARK 921   NORMALIZED FREE ENERGY PREDICTED BY IDOCK:   -4.20 KCAL/MOL
REMARK 922        TOTAL FREE ENERGY PREDICTED BY IDOCK:   -9.20 KCAL/MOL
REMARK 923 INTER-LIGAND FREE ENERGY PREDICTED BY IDOCK:   -7.43 KCAL/MOL
REMARK 924 INTRA-LIGAND FREE ENERGY PREDICTED BY IDOCK:   -1.77 KCAL/MOL
REMARK 927      BINDING AFFINITY PREDICTED BY RF-SCORE:    0.00 PKD
ROOT
HETATM    1  C   UNL     1      -9.662  11.400  67.518  1.00  0.00    -0.178 C  
ENDROOT
BRANCH   1   2
HETATM    2  C   UNL     1     -10.795  10.362  67.224  1.00  0.00    -0.264 C  
HETATM    3  O   UNL     1     -11.758  10.320  68.285  1.00  0.00    -0.689 OA 
HETATM    4  H   UNL     1     -12.446   9.689  68.107  1.00  0.00     0.000 HD 
BRANCH   2   5
HETATM    5  C   UNL     1     -10.264   8.962  66.901  1.00  0.00    -0.347 A  
HETATM    6  C   UNL     1      -6.678   6.461  65.316  1.00  0.00    -0.047 C  
HETATM    7  C   UNL     1      -8.626   7.574  65.750  1.00  0.00    -0.142 A  
HETATM    8  C   UNL     1     -10.725   7.806  67.559  1.00  0.00    -0.265 A  
HETATM    9  C   UNL     1      -9.101   6.434  66.400  1.00  0.00    -0.154 A  
HETATM   10  C   UNL     1      -7.461   5.158  65.318  1.00  0.00    -0.073 C  
HETATM   11  C   UNL     1      -9.225   8.819  65.960  1.00  0.00    -0.282 A  
HETATM   12  O   UNL     1      -8.546   5.189  66.256  1.00  0.00    -0.112 OA 
HETATM   13  O   UNL     1      -7.530   7.544  64.923  1.00  0.00    -0.077 OA 
HETATM   14  C   UNL     1     -10.165   6.549  67.291  1.00  0.00    -0.242 A  
ENDBRANCH   2   5
ENDBRANCH   1   2
BRANCH   1  15
HETATM   15  N   UNL     1      -9.265  11.260  68.930  1.00  0.00    -0.366 NA 
HETATM   16  H   UNL     1      -9.648  11.947  69.581  1.00  0.00     0.000 HD 
BRANCH  15  17
HETATM   17  C   UNL     1      -8.497  10.374  69.423  1.00  0.00    -0.134 C  
HETATM   18  H   UNL     1      -6.713   9.386  69.337  1.00  0.00     0.000 HD 
HETATM   19  O   UNL     1      -7.287  10.048  68.968  1.00  0.00    -0.074 OA 
BRANCH  17  20
HETATM   20  C   UNL     1      -8.935   9.577  70.626  1.00  0.00    -0.226 C  
BRANCH  20  21
HETATM   21  C   UNL     1      -8.958   8.075  70.361  1.00  0.00    -0.146 C  
BRANCH  21  22
HETATM   22  C   UNL     1      -9.596   7.272  71.496  1.00  0.00    -0.164 C  
BRANCH  22  23
HETATM   23  C   UNL     1     -10.662   8.099  72.217  1.00  0.00    -0.381 C  
BRANCH  23  24
HETATM   24  C   UNL     1     -11.908   8.295  71.353  1.00  0.00    -0.330 C  
BRANCH  24  25
HETATM   25  C   UNL     1     -12.939   9.170  72.066  1.00  0.00    -0.496 C  
HETATM   26  C   UNL     1     -12.816  10.627  71.652  1.00  0.00    -0.570 C  
ENDBRANCH  24  25
ENDBRANCH  23  24
ENDBRANCH  22  23
ENDBRANCH  21  22
ENDBRANCH  20  21
ENDBRANCH  17  20
ENDBRANCH  15  17
ENDBRANCH   1  15
BRANCH   1  27
HETATM   27  C   UNL     1     -10.036  12.917  67.387  1.00  0.00    -0.223 C  
BRANCH  27  28
HETATM   28  N   UNL     1     -10.281  13.780  68.568  1.00  0.00    -0.237 NA 
HETATM   29  C   UNL     1     -11.705  14.190  68.592  1.00  0.00    -0.350 C  
HETATM   30  C   UNL     1      -9.503  15.019  68.521  1.00  0.00    -0.203 C  
HETATM   31  C   UNL     1     -11.765  15.654  69.007  1.00  0.00    -0.408 C  
HETATM   32  C   UNL     1     -10.330  16.069  69.235  1.00  0.00    -0.251 C  
ENDBRANCH  27  28
ENDBRANCH   1  27
TORSDOF 12
ENDMDL
MODEL      233
REMARK 921   NORMALIZED FREE ENERGY PREDICTED BY IDOCK:   -4.19 KCAL/MOL
REMARK 922        TOTAL FREE ENERGY PREDICTED BY IDOCK:   -9.19 KCAL/MOL
REMARK 923 INTER-LIGAND FREE ENERGY PREDICTED BY IDOCK:   -7.76 KCAL/MOL
REMARK 924 INTRA-LIGAND FREE ENERGY PREDICTED BY IDOCK:   -1.43 KCAL/MOL
REMARK 927      BINDING AFFINITY PREDICTED BY RF-SCORE:    0.00 PKD
ROOT
HETATM    1  C   UNL     1      -9.773  11.210  68.472  1.00  0.00    -0.196 C  
ENDROOT
BRANCH   1   2
HETATM    2  C   UNL     1     -11.019  12.145  68.606  1.00  0.00    -0.245 C  
HETATM    3  O   UNL     1     -12.236  11.445  68.316  1.00  0.00    -0.588 OA 
HETATM    4  H   UNL     1     -12.994  12.013  68.397  1.00  0.00     0.000 HD 
BRANCH   2   5
HETATM    5  C   UNL     1     -10.906  13.427  67.776  1.00  0.00    -0.267 A  
HETATM    6  C   UNL     1      -9.301  17.789  67.603  1.00  0.00    -0.250 C  
HETATM    7  C   UNL     1     -10.459  15.821  67.697  1.00  0.00    -0.282 A  
HETATM    8  C   UNL     1     -10.925  13.423  66.368  1.00  0.00    -0.297 A  
HETATM    9  C   UNL     1     -10.492  15.804  66.302  1.00  0.00    -0.309 A  
HETATM   10  C   UNL     1      -9.992  18.093  66.284  1.00  0.00    -0.342 C  
HETATM   11  C   UNL     1     -10.706  14.658  68.432  1.00  0.00    -0.242 A  
HETATM   12  O   UNL     1     -10.237  16.903  65.522  1.00  0.00    -0.580 OA 
HETATM   13  O   UNL     1     -10.135  16.948  68.411  1.00  0.00    -0.271 OA 
HETATM   14  C   UNL     1     -10.745  14.607  65.639  1.00  0.00    -0.340 A  
ENDBRANCH   2   5
ENDBRANCH   1   2
BRANCH   1  15
HETATM   15  N   UNL     1      -9.597  10.492  69.746  1.00  0.00    -0.423 NA 
HETATM   16  H   UNL     1      -8.832  10.806  70.344  1.00  0.00     0.000 HD 
BRANCH  15  17
HETATM   17  C   UNL     1     -10.297   9.522  70.180  1.00  0.00    -0.255 C  
HETATM   18  H   UNL     1     -11.709   8.098  69.798  1.00  0.00     0.000 HD 
HETATM   19  O   UNL     1     -11.185   8.822  69.474  1.00  0.00    -0.057 OA 
BRANCH  17  20
HETATM   20  C   UNL     1     -10.169   9.080  71.616  1.00  0.00    -0.418 C  
BRANCH  20  21
HETATM   21  C   UNL     1     -11.311   8.171  72.057  1.00  0.00    -0.378 C  
BRANCH  21  22
HETATM   22  C   UNL     1     -10.832   6.883  72.731  1.00  0.00    -0.305 C  
BRANCH  22  23
HETATM   23  C   UNL     1     -11.005   5.683  71.798  1.00  0.00    -0.290 C  
BRANCH  23  24
HETATM   24  C   UNL     1      -9.690   4.933  71.589  1.00  0.00    -0.231 C  
BRANCH  24  25
HETATM   25  C   UNL     1      -9.087   5.251  70.221  1.00  0.00    -0.169 C  
HETATM   26  C   UNL     1     -10.047   4.907  69.094  1.00  0.00    -0.229 C  
ENDBRANCH  24  25
ENDBRANCH  23  24
ENDBRANCH  22  23
ENDBRANCH  21  22
ENDBRANCH  20  21
ENDBRANCH  17  20
ENDBRANCH  15  17
ENDBRANCH   1  15
BRANCH   1  27
HETATM   27  C   UNL     1      -8.384  11.903  68.242  1.00  0.00    -0.159 C  
BRANCH  27  28
HETATM   28  N   UNL     1      -7.627  11.762  66.975  1.00  0.00    -0.154 NA 
HETATM   29  C   UNL     1      -8.370  10.872  66.051  1.00  0.00    -0.165 C  
HETATM   30  C   UNL     1      -6.318  11.137  67.176  1.00  0.00    -0.083 C  
HETATM   31  C   UNL     1      -7.361   9.965  65.361  1.00  0.00    -0.128 C  
HETATM   32  C   UNL     1      -6.011  10.372  65.904  1.00  0.00    -0.105 C  
ENDBRANCH  27  28
ENDBRANCH   1  27
TORSDOF 12
ENDMDL
MODEL      234
REMARK 921   NORMALIZED FREE ENERGY PREDICTED BY IDOCK:   -4.19 KCAL/MOL
REMARK 922        TOTAL FREE ENERGY PREDICTED BY IDOCK:   -9.19 KCAL/MOL
REMARK 923 INTER-LIGAND FREE ENERGY PREDICTED BY IDOCK:   -7.99 KCAL/MOL
REMARK 924 INTRA-LIGAND FREE ENERGY PREDICTED BY IDOCK:   -1.20 KCAL/MOL
REMARK 927      BINDING AFFINITY PREDICTED BY RF-SCORE:    0.00 PKD
ROOT
HETATM    1  C   UNL     1      -8.960   9.045  69.076  1.00  0.00    -0.140 C  
ENDROOT
BRANCH   1   2
HETATM    2  C   UNL     1     -10.476   9.398  68.916  1.00  0.00    -0.216 C  
HETATM    3  O   UNL     1     -11.101   8.588  67.912  1.00  0.00    -0.475 OA 
HETATM    4  H   UNL     1     -12.022   8.802  67.814  1.00  0.00     0.000 HD 
BRANCH   2   5
HETATM    5  C   UNL     1     -10.727  10.886  68.664  1.00  0.00    -0.238 A  
HETATM    6  C   UNL     1     -12.004  14.957  70.515  1.00  0.00    -0.309 C  
HETATM    7  C   UNL     1     -11.730  12.981  69.401  1.00  0.00    -0.326 A  
HETATM    8  C   UNL     1     -10.074  11.604  67.644  1.00  0.00    -0.204 A  
HETATM    9  C   UNL     1     -11.085  13.677  68.378  1.00  0.00    -0.264 A  
HETATM   10  C   UNL     1     -12.022  15.671  69.173  1.00  0.00    -0.310 C  
HETATM   11  C   UNL     1     -11.591  11.595  69.521  1.00  0.00    -0.397 A  
HETATM   12  O   UNL     1     -11.161  15.036  68.218  1.00  0.00    -0.263 OA 
HETATM   13  O   UNL     1     -12.480  13.614  70.362  1.00  0.00    -0.326 OA 
HETATM   14  C   UNL     1     -10.272  12.983  67.487  1.00  0.00    -0.221 A  
ENDBRANCH   2   5
ENDBRANCH   1   2
BRANCH   1  15
HETATM   15  N   UNL     1      -8.639   7.958  68.135  1.00  0.00    -0.123 NA 
HETATM   16  H   UNL     1      -9.131   7.074  68.275  1.00  0.00     0.000 HD 
BRANCH  15  17
HETATM   17  C   UNL     1      -7.815   8.004  67.167  1.00  0.00    -0.105 C  
HETATM   18  H   UNL     1      -6.285   7.113  66.150  1.00  0.00     0.000 HD 
HETATM   19  O   UNL     1      -6.901   7.078  66.874  1.00  0.00    -0.060 OA 
BRANCH  17  20
HETATM   20  C   UNL     1      -7.810   9.189  66.234  1.00  0.00    -0.103 C  
BRANCH  20  21
HETATM   21  C   UNL     1      -8.963   9.158  65.236  1.00  0.00    -0.246 C  
BRANCH  21  22
HETATM   22  C   UNL     1      -8.533   9.487  63.805  1.00  0.00    -0.198 C  
BRANCH  22  23
HETATM   23  C   UNL     1      -9.358  10.646  63.241  1.00  0.00    -0.329 C  
BRANCH  23  24
HETATM   24  C   UNL     1     -10.536  10.998  64.148  1.00  0.00    -0.434 C  
BRANCH  24  25
HETATM   25  C   UNL     1     -11.246  12.261  63.661  1.00  0.00    -0.539 C  
HETATM   26  C   UNL     1     -12.745  12.045  63.532  1.00  0.00    -0.567 C  
ENDBRANCH  24  25
ENDBRANCH  23  24
ENDBRANCH  22  23
ENDBRANCH  21  22
ENDBRANCH  20  21
ENDBRANCH  17  20
ENDBRANCH  15  17
ENDBRANCH   1  15
BRANCH   1  27
HETATM   27  C   UNL     1      -8.504   8.478  70.466  1.00  0.00    -0.137 C  
BRANCH  27  28
HETATM   28  N   UNL     1      -9.466   7.936  71.457  1.00  0.00    -0.144 NA 
HETATM   29  C   UNL     1     -10.128   6.734  70.896  1.00  0.00    -0.190 C  
HETATM   30  C   UNL     1     -10.537   8.883  71.767  1.00  0.00    -0.362 C  
HETATM   31  C   UNL     1     -11.599   6.787  71.280  1.00  0.00    -0.366 C  
HETATM   32  C   UNL     1     -11.760   8.050  72.095  1.00  0.00    -0.399 C  
ENDBRANCH  27  28
ENDBRANCH   1  27
TORSDOF 12
ENDMDL
MODEL      235
REMARK 921   NORMALIZED FREE ENERGY PREDICTED BY IDOCK:   -4.18 KCAL/MOL
REMARK 922        TOTAL FREE ENERGY PREDICTED BY IDOCK:   -9.17 KCAL/MOL
REMARK 923 INTER-LIGAND FREE ENERGY PREDICTED BY IDOCK:   -7.99 KCAL/MOL
REMARK 924 INTRA-LIGAND FREE ENERGY PREDICTED BY IDOCK:   -1.18 KCAL/MOL
REMARK 927      BINDING AFFINITY PREDICTED BY RF-SCORE:    0.00 PKD
ROOT
HETATM    1  C   UNL     1     -10.861   8.922  68.332  1.00  0.00     0.010 C  
ENDROOT
BRANCH   1   2
HETATM    2  C   UNL     1     -10.463   7.506  67.799  1.00  0.00    -0.223 C  
HETATM    3  O   UNL     1     -11.610   6.772  67.352  1.00  0.00    -0.704 OA 
HETATM    4  H   UNL     1     -11.369   5.911  67.028  1.00  0.00     0.000 HD 
BRANCH   2   5
HETATM    5  C   UNL     1      -9.640   6.693  68.801  1.00  0.00    -0.131 A  
HETATM    6  C   UNL     1      -9.466   2.889  71.471  1.00  0.00    -0.146 C  
HETATM    7  C   UNL     1      -9.568   4.961  70.514  1.00  0.00    -0.184 A  
HETATM    8  C   UNL     1      -8.233   6.727  68.833  1.00  0.00    -0.121 A  
HETATM    9  C   UNL     1      -8.174   5.014  70.543  1.00  0.00    -0.100 A  
HETATM   10  C   UNL     1      -8.163   3.298  72.138  1.00  0.00    -0.067 C  
HETATM   11  C   UNL     1     -10.300   5.818  69.687  1.00  0.00    -0.330 A  
HETATM   12  O   UNL     1      -7.397   4.187  71.312  1.00  0.00    -0.042 OA 
HETATM   13  O   UNL     1     -10.283   4.043  71.243  1.00  0.00    -0.112 OA 
HETATM   14  C   UNL     1      -7.508   5.913  69.714  1.00  0.00    -0.080 A  
ENDBRANCH   2   5
ENDBRANCH   1   2
BRANCH   1  15
HETATM   15  N   UNL     1     -10.509   9.916  67.303  1.00  0.00    -0.248 NA 
HETATM   16  H   UNL     1     -10.302   9.555  66.371  1.00  0.00     0.000 HD 
BRANCH  15  17
HETATM   17  C   UNL     1     -10.436  11.178  67.452  1.00  0.00    -0.220 C  
HETATM   18  H   UNL     1      -9.261  12.842  67.578  1.00  0.00     0.000 HD 
HETATM   19  O   UNL     1      -9.315  11.900  67.466  1.00  0.00    -0.171 OA 
BRANCH  17  20
HETATM   20  C   UNL     1     -11.692  11.990  67.647  1.00  0.00    -0.365 C  
BRANCH  20  21
HETATM   21  C   UNL     1     -11.577  13.399  67.073  1.00  0.00    -0.396 C  
BRANCH  21  22
HETATM   22  C   UNL     1     -12.759  13.787  66.183  1.00  0.00    -0.335 C  
BRANCH  22  23
HETATM   23  C   UNL     1     -12.290  14.105  64.762  1.00  0.00    -0.436 C  
BRANCH  23  24
HETATM   24  C   UNL     1     -10.927  13.483  64.462  1.00  0.00    -0.405 C  
BRANCH  24  25
HETATM   25  C   UNL     1     -11.081  12.143  63.742  1.00  0.00    -0.505 C  
HETATM   26  C   UNL     1     -12.528  11.874  63.365  1.00  0.00    -0.582 C  
ENDBRANCH  24  25
ENDBRANCH  23  24
ENDBRANCH  22  23
ENDBRANCH  21  22
ENDBRANCH  20  21
ENDBRANCH  17  20
ENDBRANCH  15  17
ENDBRANCH   1  15
BRANCH   1  27
HETATM   27  C   UNL     1     -10.116   9.436  69.613  1.00  0.00    -0.206 C  
BRANCH  27  28
HETATM   28  N   UNL     1     -10.832   9.767  70.869  1.00  0.00    -0.328 NA 
HETATM   29  C   UNL     1     -10.873   8.571  71.743  1.00  0.00    -0.304 C  
HETATM   30  C   UNL     1     -12.225  10.145  70.631  1.00  0.00    -0.302 C  
HETATM   31  C   UNL     1     -12.254   8.504  72.381  1.00  0.00    -0.432 C  
HETATM   32  C   UNL     1     -13.001   9.709  71.858  1.00  0.00    -0.527 C  
ENDBRANCH  27  28
ENDBRANCH   1  27
TORSDOF 12
ENDMDL
MODEL      236
REMARK 921   NORMALIZED FREE ENERGY PREDICTED BY IDOCK:   -4.16 KCAL/MOL
REMARK 922        TOTAL FREE ENERGY PREDICTED BY IDOCK:   -9.14 KCAL/MOL
REMARK 923 INTER-LIGAND FREE ENERGY PREDICTED BY IDOCK:   -7.74 KCAL/MOL
REMARK 924 INTRA-LIGAND FREE ENERGY PREDICTED BY IDOCK:   -1.40 KCAL/MOL
REMARK 927      BINDING AFFINITY PREDICTED BY RF-SCORE:    0.00 PKD
ROOT
HETATM    1  C   UNL     1      -9.655   9.911  69.260  1.00  0.00    -0.205 C  
ENDROOT
BRANCH   1   2
HETATM    2  C   UNL     1     -11.128  10.431  69.180  1.00  0.00    -0.246 C  
HETATM    3  O   UNL     1     -11.819   9.878  68.052  1.00  0.00    -0.336 OA 
HETATM    4  H   UNL     1     -12.714  10.194  68.003  1.00  0.00     0.000 HD 
BRANCH   2   5
HETATM    5  C   UNL     1     -11.232  11.959  69.199  1.00  0.00    -0.314 A  
HETATM    6  C   UNL     1     -10.348  15.920  66.928  1.00  0.00    -0.291 C  
HETATM    7  C   UNL     1     -10.499  14.104  68.308  1.00  0.00    -0.249 A  
HETATM    8  C   UNL     1     -12.234  12.642  69.914  1.00  0.00    -0.238 A  
HETATM    9  C   UNL     1     -11.490  14.770  69.032  1.00  0.00    -0.293 A  
HETATM   10  C   UNL     1     -10.787  16.796  68.090  1.00  0.00    -0.353 C  
HETATM   11  C   UNL     1     -10.339  12.721  68.420  1.00  0.00    -0.248 A  
HETATM   12  O   UNL     1     -11.714  16.120  68.950  1.00  0.00    -0.357 OA 
HETATM   13  O   UNL     1      -9.677  14.754  67.421  1.00  0.00    -0.212 OA 
HETATM   14  C   UNL     1     -12.345  14.038  69.851  1.00  0.00    -0.367 A  
ENDBRANCH   2   5
ENDBRANCH   1   2
BRANCH   1  15
HETATM   15  N   UNL     1      -9.406   9.051  68.090  1.00  0.00    -0.141 NA 
HETATM   16  H   UNL     1      -9.986   8.216  68.006  1.00  0.00     0.000 HD 
BRANCH  15  17
HETATM   17  C   UNL     1      -8.544   9.240  67.173  1.00  0.00    -0.128 C  
HETATM   18  H   UNL     1      -6.868   8.583  66.210  1.00  0.00     0.000 HD 
HETATM   19  O   UNL     1      -7.512   8.443  66.895  1.00  0.00    -0.085 OA 
BRANCH  17  20
HETATM   20  C   UNL     1      -8.632  10.460  66.291  1.00  0.00    -0.147 C  
BRANCH  20  21
HETATM   21  C   UNL     1      -9.832  10.421  65.351  1.00  0.00    -0.347 C  
BRANCH  21  22
HETATM   22  C   UNL     1     -10.076  11.748  64.628  1.00  0.00    -0.310 C  
BRANCH  22  23
HETATM   23  C   UNL     1     -11.527  11.853  64.156  1.00  0.00    -0.449 C  
BRANCH  23  24
HETATM   24  C   UNL     1     -12.477  12.172  65.310  1.00  0.00     0.085 C  
BRANCH  24  25
HETATM   25  C   UNL     1     -12.580  13.680  65.537  1.00  0.00    -0.541 C  
HETATM   26  C   UNL     1     -12.449  14.451  64.234  1.00  0.00    -0.303 C  
ENDBRANCH  24  25
ENDBRANCH  23  24
ENDBRANCH  22  23
ENDBRANCH  21  22
ENDBRANCH  20  21
ENDBRANCH  17  20
ENDBRANCH  15  17
ENDBRANCH   1  15
BRANCH   1  27
HETATM   27  C   UNL     1      -9.290   8.993  70.479  1.00  0.00    -0.219 C  
BRANCH  27  28
HETATM   28  N   UNL     1     -10.324   8.352  71.328  1.00  0.00    -0.204 NA 
HETATM   29  C   UNL     1     -11.058   7.341  70.532  1.00  0.00    -0.267 C  
HETATM   30  C   UNL     1     -11.328   9.308  71.797  1.00  0.00    -0.367 C  
HETATM   31  C   UNL     1     -12.534   7.441  70.894  1.00  0.00    -0.208 C  
HETATM   32  C   UNL     1     -12.623   8.533  71.935  1.00  0.00    -0.400 C  
ENDBRANCH  27  28
ENDBRANCH   1  27
TORSDOF 12
ENDMDL
MODEL      237
REMARK 921   NORMALIZED FREE ENERGY PREDICTED BY IDOCK:   -4.15 KCAL/MOL
REMARK 922        TOTAL FREE ENERGY PREDICTED BY IDOCK:   -9.12 KCAL/MOL
REMARK 923 INTER-LIGAND FREE ENERGY PREDICTED BY IDOCK:   -8.22 KCAL/MOL
REMARK 924 INTRA-LIGAND FREE ENERGY PREDICTED BY IDOCK:   -0.90 KCAL/MOL
REMARK 927      BINDING AFFINITY PREDICTED BY RF-SCORE:    0.00 PKD
ROOT
HETATM    1  C   UNL     1      -9.116  12.995  67.389  1.00  0.00    -0.201 C  
ENDROOT
BRANCH   1   2
HETATM    2  C   UNL     1      -8.266  11.729  67.040  1.00  0.00    -0.172 C  
HETATM    3  O   UNL     1      -8.186  11.524  65.623  1.00  0.00    -0.368 OA 
HETATM    4  H   UNL     1      -7.669  10.755  65.411  1.00  0.00     0.000 HD 
BRANCH   2   5
HETATM    5  C   UNL     1      -8.743  10.464  67.758  1.00  0.00    -0.122 A  
HETATM    6  C   UNL     1      -9.947   8.547  71.820  1.00  0.00    -0.275 C  
HETATM    7  C   UNL     1      -9.032   9.240  69.844  1.00  0.00    -0.183 A  
HETATM    8  C   UNL     1      -9.492   9.462  67.111  1.00  0.00    -0.185 A  
HETATM    9  C   UNL     1      -9.763   8.248  69.189  1.00  0.00    -0.171 A  
HETATM   10  C   UNL     1     -10.069   7.150  71.235  1.00  0.00    -0.189 C  
HETATM   11  C   UNL     1      -8.488  10.314  69.135  1.00  0.00    -0.164 A  
HETATM   12  O   UNL     1     -10.342   7.182  69.827  1.00  0.00    -0.202 OA 
HETATM   13  O   UNL     1      -8.855   9.242  71.206  1.00  0.00    -0.290 OA 
HETATM   14  C   UNL     1      -9.976   8.351  67.816  1.00  0.00    -0.236 A  
ENDBRANCH   2   5
ENDBRANCH   1   2
BRANCH   1  15
HETATM   15  N   UNL     1     -10.060  13.234  66.284  1.00  0.00    -0.288 NA 
HETATM   16  H   UNL     1      -9.657  13.541  65.398  1.00  0.00     0.000 HD 
BRANCH  15  17
HETATM   17  C   UNL     1     -11.325  13.098  66.317  1.00  0.00    -0.315 C  
HETATM   18  H   UNL     1     -12.968  12.031  65.744  1.00  0.00     0.000 HD 
HETATM   19  O   UNL     1     -12.023  12.132  65.720  1.00  0.00    -0.536 OA 
BRANCH  17  20
HETATM   20  C   UNL     1     -12.173  14.090  67.073  1.00  0.00    -0.387 C  
BRANCH  20  21
HETATM   21  C   UNL     1     -12.143  13.862  68.581  1.00  0.00    -0.337 C  
BRANCH  21  22
HETATM   22  C   UNL     1     -12.157  15.161  69.389  1.00  0.00    -0.293 C  
BRANCH  22  23
HETATM   23  C   UNL     1     -12.350  14.875  70.879  1.00  0.00    -0.392 C  
BRANCH  23  24
HETATM   24  C   UNL     1     -12.013  16.092  71.739  1.00  0.00    -0.560 C  
BRANCH  24  25
HETATM   25  C   UNL     1     -12.263  15.806  73.220  1.00  0.00    -0.619 C  
HETATM   26  C   UNL     1     -13.211  14.633  73.410  1.00  0.00    -0.244 C  
ENDBRANCH  24  25
ENDBRANCH  23  24
ENDBRANCH  22  23
ENDBRANCH  21  22
ENDBRANCH  20  21
ENDBRANCH  17  20
ENDBRANCH  15  17
ENDBRANCH   1  15
BRANCH   1  27
HETATM   27  C   UNL     1      -8.345  14.356  67.519  1.00  0.00    -0.187 C  
BRANCH  27  28
HETATM   28  N   UNL     1      -8.563  15.485  66.582  1.00  0.00    -0.271 NA 
HETATM   29  C   UNL     1      -7.376  16.372  66.595  1.00  0.00    -0.206 C  
HETATM   30  C   UNL     1      -9.699  16.320  66.973  1.00  0.00    -0.239 C  
HETATM   31  C   UNL     1      -7.867  17.812  66.558  1.00  0.00    -0.301 C  
HETATM   32  C   UNL     1      -9.375  17.725  66.508  1.00  0.00    -0.291 C  
ENDBRANCH  27  28
ENDBRANCH   1  27
TORSDOF 12
ENDMDL
MODEL      238
REMARK 921   NORMALIZED FREE ENERGY PREDICTED BY IDOCK:   -4.13 KCAL/MOL
REMARK 922        TOTAL FREE ENERGY PREDICTED BY IDOCK:   -9.08 KCAL/MOL
REMARK 923 INTER-LIGAND FREE ENERGY PREDICTED BY IDOCK:   -7.63 KCAL/MOL
REMARK 924 INTRA-LIGAND FREE ENERGY PREDICTED BY IDOCK:   -1.45 KCAL/MOL
REMARK 927      BINDING AFFINITY PREDICTED BY RF-SCORE:    0.00 PKD
ROOT
HETATM    1  C   UNL     1     -11.245  10.266  69.795  1.00  0.00    -0.282 C  
ENDROOT
BRANCH   1   2
HETATM    2  C   UNL     1     -10.207   9.626  68.815  1.00  0.00    -0.196 C  
HETATM    3  O   UNL     1     -10.566   9.856  67.446  1.00  0.00    -0.253 OA 
HETATM    4  H   UNL     1      -9.935   9.467  66.850  1.00  0.00     0.000 HD 
BRANCH   2   5
HETATM    5  C   UNL     1      -9.963   8.138  69.081  1.00  0.00    -0.192 A  
HETATM    6  C   UNL     1      -8.199   4.973  71.997  1.00  0.00    -0.116 C  
HETATM    7  C   UNL     1      -8.760   6.416  70.316  1.00  0.00    -0.143 A  
HETATM    8  C   UNL     1     -10.785   7.127  68.548  1.00  0.00    -0.191 A  
HETATM    9  C   UNL     1      -9.576   5.423  69.772  1.00  0.00    -0.168 A  
HETATM   10  C   UNL     1      -8.430   3.818  71.036  1.00  0.00    -0.071 C  
HETATM   11  C   UNL     1      -8.919   7.754  69.945  1.00  0.00    -0.146 A  
HETATM   12  O   UNL     1      -9.488   4.097  70.110  1.00  0.00    -0.147 OA 
HETATM   13  O   UNL     1      -7.810   6.145  71.270  1.00  0.00    -0.107 OA 
HETATM   14  C   UNL     1     -10.576   5.779  68.871  1.00  0.00    -0.337 A  
ENDBRANCH   2   5
ENDBRANCH   1   2
BRANCH   1  15
HETATM   15  N   UNL     1     -11.043  11.725  69.790  1.00  0.00    -0.475 NA 
HETATM   16  H   UNL     1     -10.082  12.052  69.684  1.00  0.00     0.000 HD 
BRANCH  15  17
HETATM   17  C   UNL     1     -11.940  12.621  69.902  1.00  0.00    -0.295 C  
HETATM   18  H   UNL     1     -13.448  13.433  71.013  1.00  0.00     0.000 HD 
HETATM   19  O   UNL     1     -12.778  12.763  70.929  1.00  0.00    -0.288 OA 
BRANCH  17  20
HETATM   20  C   UNL     1     -12.133  13.640  68.807  1.00  0.00    -0.332 C  
BRANCH  20  21
HETATM   21  C   UNL     1     -11.829  13.080  67.421  1.00  0.00    -0.411 C  
BRANCH  21  22
HETATM   22  C   UNL     1     -11.036  14.047  66.540  1.00  0.00    -0.315 C  
BRANCH  22  23
HETATM   23  C   UNL     1      -9.541  13.972  66.855  1.00  0.00    -0.275 C  
BRANCH  23  24
HETATM   24  C   UNL     1      -9.020  15.281  67.446  1.00  0.00    -0.194 C  
BRANCH  24  25
HETATM   25  C   UNL     1      -9.007  16.392  66.395  1.00  0.00    -0.340 C  
HETATM   26  C   UNL     1      -7.608  16.948  66.185  1.00  0.00    -0.230 C  
ENDBRANCH  24  25
ENDBRANCH  23  24
ENDBRANCH  22  23
ENDBRANCH  21  22
ENDBRANCH  20  21
ENDBRANCH  17  20
ENDBRANCH  15  17
ENDBRANCH   1  15
BRANCH   1  27
HETATM   27  C   UNL     1     -11.124   9.881  71.311  1.00  0.00    -0.232 C  
BRANCH  27  28
HETATM   28  N   UNL     1     -12.205   9.174  72.039  1.00  0.00    -0.377 NA 
HETATM   29  C   UNL     1     -11.966   7.712  71.980  1.00  0.00    -0.302 C  
HETATM   30  C   UNL     1     -13.520   9.395  71.435  1.00  0.00    -0.332 C  
HETATM   31  C   UNL     1     -13.306   7.027  71.752  1.00  0.00    -0.311 C  
HETATM   32  C   UNL     1     -14.327   8.140  71.698  1.00  0.00    -0.570 C  
ENDBRANCH  27  28
ENDBRANCH   1  27
TORSDOF 12
ENDMDL
MODEL      239
REMARK 921   NORMALIZED FREE ENERGY PREDICTED BY IDOCK:   -4.13 KCAL/MOL
REMARK 922        TOTAL FREE ENERGY PREDICTED BY IDOCK:   -9.07 KCAL/MOL
REMARK 923 INTER-LIGAND FREE ENERGY PREDICTED BY IDOCK:   -6.93 KCAL/MOL
REMARK 924 INTRA-LIGAND FREE ENERGY PREDICTED BY IDOCK:   -2.15 KCAL/MOL
REMARK 927      BINDING AFFINITY PREDICTED BY RF-SCORE:    0.00 PKD
ROOT
HETATM    1  C   UNL     1      -9.406   8.532  68.424  1.00  0.00    -0.134 C  
ENDROOT
BRANCH   1   2
HETATM    2  C   UNL     1     -10.489   8.521  67.295  1.00  0.00    -0.296 C  
HETATM    3  O   UNL     1     -10.369   7.359  66.463  1.00  0.00    -0.471 OA 
HETATM    4  H   UNL     1     -11.027   7.352  65.777  1.00  0.00     0.000 HD 
BRANCH   2   5
HETATM    5  C   UNL     1     -10.505   9.803  66.459  1.00  0.00    -0.212 A  
HETATM    6  C   UNL     1     -10.862  14.439  66.502  1.00  0.00    -0.310 C  
HETATM    7  C   UNL     1     -11.050  12.171  66.293  1.00  0.00    -0.310 A  
HETATM    8  C   UNL     1      -9.847   9.907  65.218  1.00  0.00    -0.373 A  
HETATM    9  C   UNL     1     -10.405  12.258  65.059  1.00  0.00    -0.291 A  
HETATM   10  C   UNL     1     -10.896  14.547  64.986  1.00  0.00    -0.412 C  
HETATM   11  C   UNL     1     -11.141  10.951  66.969  1.00  0.00    -0.271 A  
HETATM   12  O   UNL     1     -10.261  13.426  64.356  1.00  0.00    -0.401 OA 
HETATM   13  O   UNL     1     -11.576  13.271  66.926  1.00  0.00    -0.327 OA 
HETATM   14  C   UNL     1      -9.820  11.118  64.513  1.00  0.00    -0.330 A  
ENDBRANCH   2   5
ENDBRANCH   1   2
BRANCH   1  15
HETATM   15  N   UNL     1      -8.776   7.201  68.470  1.00  0.00    -0.126 NA 
HETATM   16  H   UNL     1      -9.374   6.423  68.751  1.00  0.00     0.000 HD 
BRANCH  15  17
HETATM   17  C   UNL     1      -7.566   6.919  68.197  1.00  0.00    -0.108 C  
HETATM   18  H   UNL     1      -6.076   5.524  68.171  1.00  0.00     0.000 HD 
HETATM   19  O   UNL     1      -6.980   5.735  68.375  1.00  0.00    -0.064 OA 
BRANCH  17  20
HETATM   20  C   UNL     1      -6.653   7.976  67.627  1.00  0.00    -0.057 C  
BRANCH  20  21
HETATM   21  C   UNL     1      -6.778   8.108  66.113  1.00  0.00    -0.054 C  
BRANCH  21  22
HETATM   22  C   UNL     1      -5.764   9.081  65.506  1.00  0.00    -0.050 C  
BRANCH  22  23
HETATM   23  C   UNL     1      -6.333  10.500  65.457  1.00  0.00    -0.112 C  
BRANCH  23  24
HETATM   24  C   UNL     1      -5.926  11.316  66.683  1.00  0.00    -0.145 C  
BRANCH  24  25
HETATM   25  C   UNL     1      -7.032  12.293  67.085  1.00  0.00    -0.102 C  
HETATM   26  C   UNL     1      -8.012  11.659  68.057  1.00  0.00    -0.132 C  
ENDBRANCH  24  25
ENDBRANCH  23  24
ENDBRANCH  22  23
ENDBRANCH  21  22
ENDBRANCH  20  21
ENDBRANCH  17  20
ENDBRANCH  15  17
ENDBRANCH   1  15
BRANCH   1  27
HETATM   27  C   UNL     1      -9.911   8.754  69.892  1.00  0.00    -0.187 C  
BRANCH  27  28
HETATM   28  N   UNL     1     -11.313   8.490  70.299  1.00  0.00    -0.189 NA 
HETATM   29  C   UNL     1     -11.646   9.316  71.484  1.00  0.00    -0.382 C  
HETATM   30  C   UNL     1     -11.521   7.098  70.702  1.00  0.00    -0.308 C  
HETATM   31  C   UNL     1     -12.469   8.459  72.436  1.00  0.00    -0.390 C  
HETATM   32  C   UNL     1     -12.612   7.118  71.754  1.00  0.00    -0.381 C  
ENDBRANCH  27  28
ENDBRANCH   1  27
TORSDOF 12
ENDMDL
MODEL      240
REMARK 921   NORMALIZED FREE ENERGY PREDICTED BY IDOCK:   -4.12 KCAL/MOL
REMARK 922        TOTAL FREE ENERGY PREDICTED BY IDOCK:   -9.07 KCAL/MOL
REMARK 923 INTER-LIGAND FREE ENERGY PREDICTED BY IDOCK:   -7.56 KCAL/MOL
REMARK 924 INTRA-LIGAND FREE ENERGY PREDICTED BY IDOCK:   -1.52 KCAL/MOL
REMARK 927      BINDING AFFINITY PREDICTED BY RF-SCORE:    0.00 PKD
ROOT
HETATM    1  C   UNL     1     -11.737   7.116  70.599  1.00  0.00    -0.307 C  
ENDROOT
BRANCH   1   2
HETATM    2  C   UNL     1     -11.112   6.203  71.704  1.00  0.00    -0.276 C  
HETATM    3  O   UNL     1     -12.088   5.817  72.681  1.00  0.00    -0.518 OA 
HETATM    4  H   UNL     1     -11.708   5.262  73.353  1.00  0.00     0.000 HD 
BRANCH   2   5
HETATM    5  C   UNL     1      -9.875   6.815  72.367  1.00  0.00    -0.169 A  
HETATM    6  C   UNL     1      -5.732   8.822  71.707  1.00  0.00    -0.055 C  
HETATM    7  C   UNL     1      -7.551   7.523  72.182  1.00  0.00    -0.082 A  
HETATM    8  C   UNL     1      -9.916   7.416  73.640  1.00  0.00    -0.379 A  
HETATM    9  C   UNL     1      -7.603   8.105  73.449  1.00  0.00    -0.150 A  
HETATM   10  C   UNL     1      -5.388   8.821  73.188  1.00  0.00    -0.075 C  
HETATM   11  C   UNL     1      -8.658   6.847  71.660  1.00  0.00    -0.117 A  
HETATM   12  O   UNL     1      -6.563   8.800  74.010  1.00  0.00    -0.268 OA 
HETATM   13  O   UNL     1      -6.449   7.628  71.370  1.00  0.00    -0.038 OA 
HETATM   14  C   UNL     1      -8.782   8.033  74.186  1.00  0.00    -0.200 A  
ENDBRANCH   2   5
ENDBRANCH   1   2
BRANCH   1  15
HETATM   15  N   UNL     1     -11.762   6.359  69.336  1.00  0.00    -0.570 NA 
HETATM   16  H   UNL     1     -12.657   5.946  69.070  1.00  0.00     0.000 HD 
BRANCH  15  17
HETATM   17  C   UNL     1     -10.788   6.165  68.541  1.00  0.00    -0.314 C  
HETATM   18  H   UNL     1      -8.925   5.384  68.243  1.00  0.00     0.000 HD 
HETATM   19  O   UNL     1      -9.653   5.529  68.836  1.00  0.00    -0.123 OA 
BRANCH  17  20
HETATM   20  C   UNL     1     -10.851   6.683  67.126  1.00  0.00    -0.471 C  
BRANCH  20  21
HETATM   21  C   UNL     1      -9.729   7.666  66.808  1.00  0.00    -0.290 C  
BRANCH  21  22
HETATM   22  C   UNL     1     -10.236   9.066  66.456  1.00  0.00    -0.318 C  
BRANCH  22  23
HETATM   23  C   UNL     1      -9.316  10.141  67.038  1.00  0.00    -0.178 C  
BRANCH  23  24
HETATM   24  C   UNL     1      -8.324   9.556  68.042  1.00  0.00    -0.118 C  
BRANCH  24  25
HETATM   25  C   UNL     1      -8.078  10.524  69.200  1.00  0.00    -0.152 C  
HETATM   26  C   UNL     1      -7.700  11.908  68.701  1.00  0.00    -0.113 C  
ENDBRANCH  24  25
ENDBRANCH  23  24
ENDBRANCH  22  23
ENDBRANCH  21  22
ENDBRANCH  20  21
ENDBRANCH  17  20
ENDBRANCH  15  17
ENDBRANCH   1  15
BRANCH   1  27
HETATM   27  C   UNL     1     -10.954   8.425  70.230  1.00  0.00    -0.232 C  
BRANCH  27  28
HETATM   28  N   UNL     1     -11.171   9.708  70.943  1.00  0.00    -0.322 NA 
HETATM   29  C   UNL     1     -12.360   9.590  71.819  1.00  0.00    -0.394 C  
HETATM   30  C   UNL     1     -11.451  10.812  70.024  1.00  0.00    -0.331 C  
HETATM   31  C   UNL     1     -13.146  10.890  71.720  1.00  0.00    -0.564 C  
HETATM   32  C   UNL     1     -12.363  11.766  70.770  1.00  0.00    -0.433 C  
ENDBRANCH  27  28
ENDBRANCH   1  27
TORSDOF 12
ENDMDL
MODEL      241
REMARK 921   NORMALIZED FREE ENERGY PREDICTED BY IDOCK:   -4.10 KCAL/MOL
REMARK 922        TOTAL FREE ENERGY PREDICTED BY IDOCK:   -9.04 KCAL/MOL
REMARK 923 INTER-LIGAND FREE ENERGY PREDICTED BY IDOCK:   -7.87 KCAL/MOL
REMARK 924 INTRA-LIGAND FREE ENERGY PREDICTED BY IDOCK:   -1.17 KCAL/MOL
REMARK 927      BINDING AFFINITY PREDICTED BY RF-SCORE:    0.00 PKD
ROOT
HETATM    1  C   UNL     1     -10.081  10.134  69.228  1.00  0.00    -0.222 C  
ENDROOT
BRANCH   1   2
HETATM    2  C   UNL     1      -9.880   9.308  67.914  1.00  0.00    -0.167 C  
HETATM    3  O   UNL     1      -8.547   8.788  67.820  1.00  0.00    -0.128 OA 
HETATM    4  H   UNL     1      -8.425   8.286  67.021  1.00  0.00     0.000 HD 
BRANCH   2   5
HETATM    5  C   UNL     1     -10.265  10.080  66.649  1.00  0.00    -0.288 A  
HETATM    6  C   UNL     1     -12.226  13.925  64.917  1.00  0.00    -0.422 C  
HETATM    7  C   UNL     1     -11.587  11.843  65.610  1.00  0.00    -0.210 A  
HETATM    8  C   UNL     1      -9.571   9.937  65.433  1.00  0.00    -0.350 A  
HETATM    9  C   UNL     1     -10.899  11.682  64.407  1.00  0.00    -0.339 A  
HETATM   10  C   UNL     1     -12.152  13.431  63.481  1.00  0.00    -0.432 C  
HETATM   11  C   UNL     1     -11.308  11.025  66.709  1.00  0.00    -0.052 A  
HETATM   12  O   UNL     1     -11.108  12.465  63.301  1.00  0.00    -0.438 OA 
HETATM   13  O   UNL     1     -12.521  12.832  65.795  1.00  0.00    -0.579 OA 
HETATM   14  C   UNL     1      -9.903  10.714  64.314  1.00  0.00    -0.391 A  
ENDBRANCH   2   5
ENDBRANCH   1   2
BRANCH   1  15
HETATM   15  N   UNL     1      -9.409  11.434  69.061  1.00  0.00    -0.407 NA 
HETATM   16  H   UNL     1     -10.001  12.263  69.113  1.00  0.00     0.000 HD 
BRANCH  15  17
HETATM   17  C   UNL     1      -8.168  11.633  68.860  1.00  0.00     0.020 C  
HETATM   18  H   UNL     1      -6.259  10.921  68.976  1.00  0.00     0.000 HD 
HETATM   19  O   UNL     1      -7.185  10.772  69.126  1.00  0.00    -0.085 OA 
BRANCH  17  20
HETATM   20  C   UNL     1      -7.696  12.942  68.279  1.00  0.00    -0.137 C  
BRANCH  20  21
HETATM   21  C   UNL     1      -8.457  13.335  67.017  1.00  0.00    -0.138 C  
BRANCH  21  22
HETATM   22  C   UNL     1      -9.276  14.617  67.181  1.00  0.00    -0.231 C  
BRANCH  22  23
HETATM   23  C   UNL     1      -8.914  15.637  66.100  1.00  0.00    -0.362 C  
BRANCH  23  24
HETATM   24  C   UNL     1      -8.200  16.855  66.686  1.00  0.00    -0.292 C  
BRANCH  24  25
HETATM   25  C   UNL     1      -7.378  16.471  67.917  1.00  0.00    -0.148 C  
HETATM   26  C   UNL     1      -5.913  16.269  67.570  1.00  0.00    -0.188 C  
ENDBRANCH  24  25
ENDBRANCH  23  24
ENDBRANCH  22  23
ENDBRANCH  21  22
ENDBRANCH  20  21
ENDBRANCH  17  20
ENDBRANCH  15  17
ENDBRANCH   1  15
BRANCH   1  27
HETATM   27  C   UNL     1      -9.444   9.552  70.538  1.00  0.00    -0.246 C  
BRANCH  27  28
HETATM   28  N   UNL     1     -10.250   8.864  71.575  1.00  0.00    -0.300 NA 
HETATM   29  C   UNL     1     -10.377   7.429  71.229  1.00  0.00    -0.192 C  
HETATM   30  C   UNL     1     -11.615   9.386  71.655  1.00  0.00    -0.396 C  
HETATM   31  C   UNL     1     -11.804   6.997  71.538  1.00  0.00    -0.351 C  
HETATM   32  C   UNL     1     -12.490   8.226  72.088  1.00  0.00    -0.398 C  
ENDBRANCH  27  28
ENDBRANCH   1  27
TORSDOF 12
ENDMDL
MODEL      242
REMARK 921   NORMALIZED FREE ENERGY PREDICTED BY IDOCK:   -4.10 KCAL/MOL
REMARK 922        TOTAL FREE ENERGY PREDICTED BY IDOCK:   -9.03 KCAL/MOL
REMARK 923 INTER-LIGAND FREE ENERGY PREDICTED BY IDOCK:   -7.20 KCAL/MOL
REMARK 924 INTRA-LIGAND FREE ENERGY PREDICTED BY IDOCK:   -1.84 KCAL/MOL
REMARK 927      BINDING AFFINITY PREDICTED BY RF-SCORE:    0.00 PKD
ROOT
HETATM    1  C   UNL     1      -9.981  11.077  67.271  1.00  0.00    -0.181 C  
ENDROOT
BRANCH   1   2
HETATM    2  C   UNL     1     -10.883  11.626  68.424  1.00  0.00    -0.219 C  
HETATM    3  O   UNL     1     -10.287  12.764  69.062  1.00  0.00    -0.426 OA 
HETATM    4  H   UNL     1     -10.835  13.097  69.763  1.00  0.00     0.000 HD 
BRANCH   2   5
HETATM    5  C   UNL     1     -11.272  10.557  69.449  1.00  0.00    -0.327 A  
HETATM    6  C   UNL     1     -10.267   6.392  71.257  1.00  0.00    -0.200 C  
HETATM    7  C   UNL     1     -11.094   8.253  70.220  1.00  0.00    -0.219 A  
HETATM    8  C   UNL     1     -11.957  10.862  70.641  1.00  0.00    -0.467 A  
HETATM    9  C   UNL     1     -11.784   8.567  71.392  1.00  0.00    -0.294 A  
HETATM   10  C   UNL     1     -11.522   6.354  72.114  1.00  0.00    -0.301 C  
HETATM   11  C   UNL     1     -10.876   9.222  69.237  1.00  0.00    -0.170 A  
HETATM   12  O   UNL     1     -12.011   7.671  72.404  1.00  0.00    -0.299 OA 
HETATM   13  O   UNL     1     -10.553   7.011  69.997  1.00  0.00    -0.216 OA 
HETATM   14  C   UNL     1     -12.233   9.870  71.592  1.00  0.00    -0.482 A  
ENDBRANCH   2   5
ENDBRANCH   1   2
BRANCH   1  15
HETATM   15  N   UNL     1      -8.593  11.496  67.533  1.00  0.00    -0.139 NA 
HETATM   16  H   UNL     1      -8.313  12.405  67.164  1.00  0.00     0.000 HD 
BRANCH  15  17
HETATM   17  C   UNL     1      -7.707  10.844  68.172  1.00  0.00    -0.103 C  
HETATM   18  H   UNL     1      -6.642  10.602  69.897  1.00  0.00     0.000 HD 
HETATM   19  O   UNL     1      -7.304  11.088  69.420  1.00  0.00    -0.124 OA 
BRANCH  17  20
HETATM   20  C   UNL     1      -7.001   9.684  67.516  1.00  0.00    -0.084 C  
BRANCH  20  21
HETATM   21  C   UNL     1      -6.823   9.876  66.013  1.00  0.00    -0.099 C  
BRANCH  21  22
HETATM   22  C   UNL     1      -7.329   8.691  65.189  1.00  0.00    -0.088 C  
BRANCH  22  23
HETATM   23  C   UNL     1      -8.567   8.066  65.835  1.00  0.00    -0.171 C  
BRANCH  23  24
HETATM   24  C   UNL     1      -8.541   6.540  65.754  1.00  0.00    -0.149 C  
BRANCH  24  25
HETATM   25  C   UNL     1      -9.362   5.915  66.882  1.00  0.00    -0.136 C  
HETATM   26  C   UNL     1      -8.473   5.237  67.911  1.00  0.00    -0.101 C  
ENDBRANCH  24  25
ENDBRANCH  23  24
ENDBRANCH  22  23
ENDBRANCH  21  22
ENDBRANCH  20  21
ENDBRANCH  17  20
ENDBRANCH  15  17
ENDBRANCH   1  15
BRANCH   1  27
HETATM   27  C   UNL     1     -10.265  11.620  65.826  1.00  0.00    -0.240 C  
BRANCH  27  28
HETATM   28  N   UNL     1     -11.496  12.374  65.488  1.00  0.00    -0.346 NA 
HETATM   29  C   UNL     1     -11.854  12.124  64.072  1.00  0.00    -0.434 C  
HETATM   30  C   UNL     1     -11.314  13.821  65.612  1.00  0.00    -0.305 C  
HETATM   31  C   UNL     1     -12.316  13.442  63.465  1.00  0.00    -0.398 C  
HETATM   32  C   UNL     1     -12.228  14.455  64.583  1.00  0.00    -0.479 C  
ENDBRANCH  27  28
ENDBRANCH   1  27
TORSDOF 12
ENDMDL
MODEL      243
REMARK 921   NORMALIZED FREE ENERGY PREDICTED BY IDOCK:   -4.10 KCAL/MOL
REMARK 922        TOTAL FREE ENERGY PREDICTED BY IDOCK:   -9.02 KCAL/MOL
REMARK 923 INTER-LIGAND FREE ENERGY PREDICTED BY IDOCK:   -7.81 KCAL/MOL
REMARK 924 INTRA-LIGAND FREE ENERGY PREDICTED BY IDOCK:   -1.21 KCAL/MOL
REMARK 927      BINDING AFFINITY PREDICTED BY RF-SCORE:    0.00 PKD
ROOT
HETATM    1  C   UNL     1      -9.953  14.658  68.901  1.00  0.00    -0.228 C  
ENDROOT
BRANCH   1   2
HETATM    2  C   UNL     1     -10.103  13.101  68.889  1.00  0.00     0.038 C  
HETATM    3  O   UNL     1      -8.901  12.454  69.327  1.00  0.00    -0.030 OA 
HETATM    4  H   UNL     1      -8.991  11.508  69.319  1.00  0.00     0.000 HD 
BRANCH   2   5
HETATM    5  C   UNL     1     -10.570  12.548  67.540  1.00  0.00    -0.238 A  
HETATM    6  C   UNL     1     -12.338  13.553  63.357  1.00  0.00    -0.194 C  
HETATM    7  C   UNL     1     -11.830  12.879  65.481  1.00  0.00    -0.411 A  
HETATM    8  C   UNL     1     -10.062  11.355  66.992  1.00  0.00    -0.237 A  
HETATM    9  C   UNL     1     -11.327  11.688  64.954  1.00  0.00    -0.184 A  
HETATM   10  C   UNL     1     -12.505  12.092  62.970  1.00  0.00    -0.010 C  
HETATM   11  C   UNL     1     -11.493  13.287  66.774  1.00  0.00    -0.387 A  
HETATM   12  O   UNL     1     -11.599  11.243  63.687  1.00  0.00    -0.223 OA 
HETATM   13  O   UNL     1     -12.625  13.727  64.750  1.00  0.00    -0.594 OA 
HETATM   14  C   UNL     1     -10.458  10.917  65.720  1.00  0.00    -0.275 A  
ENDBRANCH   2   5
ENDBRANCH   1   2
BRANCH   1  15
HETATM   15  N   UNL     1      -8.580  14.985  69.322  1.00  0.00    -0.341 NA 
HETATM   16  H   UNL     1      -8.449  15.223  70.306  1.00  0.00     0.000 HD 
BRANCH  15  17
HETATM   17  C   UNL     1      -7.540  15.001  68.590  1.00  0.00    -0.128 C  
HETATM   18  H   UNL     1      -6.450  14.113  67.109  1.00  0.00     0.000 HD 
HETATM   19  O   UNL     1      -7.227  14.101  67.656  1.00  0.00    -0.155 OA 
BRANCH  17  20
HETATM   20  C   UNL     1      -6.521  16.102  68.746  1.00  0.00    -0.122 C  
BRANCH  20  21
HETATM   21  C   UNL     1      -5.870  16.494  67.424  1.00  0.00    -0.187 C  
BRANCH  21  22
HETATM   22  C   UNL     1      -6.545  17.690  66.749  1.00  0.00    -0.226 C  
BRANCH  22  23
HETATM   23  C   UNL     1      -7.910  17.296  66.180  1.00  0.00    -0.305 C  
BRANCH  23  24
HETATM   24  C   UNL     1      -8.932  18.422  66.327  1.00  0.00    -0.205 C  
BRANCH  24  25
HETATM   25  C   UNL     1     -10.052  18.026  67.289  1.00  0.00    -0.346 C  
HETATM   26  C   UNL     1     -10.045  18.887  68.541  1.00  0.00    -0.460 C  
ENDBRANCH  24  25
ENDBRANCH  23  24
ENDBRANCH  22  23
ENDBRANCH  21  22
ENDBRANCH  20  21
ENDBRANCH  17  20
ENDBRANCH  15  17
ENDBRANCH   1  15
BRANCH   1  27
HETATM   27  C   UNL     1     -10.850  15.451  69.915  1.00  0.00    -0.293 C  
BRANCH  27  28
HETATM   28  N   UNL     1     -11.216  14.908  71.246  1.00  0.00    -0.210 NA 
HETATM   29  C   UNL     1     -12.437  14.077  71.121  1.00  0.00    -0.371 C  
HETATM   30  C   UNL     1     -11.540  15.964  72.206  1.00  0.00    -0.397 C  
HETATM   31  C   UNL     1     -13.326  14.366  72.322  1.00  0.00    -0.512 C  
HETATM   32  C   UNL     1     -12.571  15.379  73.151  1.00  0.00    -0.580 C  
ENDBRANCH  27  28
ENDBRANCH   1  27
TORSDOF 12
ENDMDL
MODEL      244
REMARK 921   NORMALIZED FREE ENERGY PREDICTED BY IDOCK:   -4.10 KCAL/MOL
REMARK 922        TOTAL FREE ENERGY PREDICTED BY IDOCK:   -9.02 KCAL/MOL
REMARK 923 INTER-LIGAND FREE ENERGY PREDICTED BY IDOCK:   -7.17 KCAL/MOL
REMARK 924 INTRA-LIGAND FREE ENERGY PREDICTED BY IDOCK:   -1.85 KCAL/MOL
REMARK 927      BINDING AFFINITY PREDICTED BY RF-SCORE:    0.00 PKD
ROOT
HETATM    1  C   UNL     1      -8.416  11.999  67.266  1.00  0.00    -0.175 C  
ENDROOT
BRANCH   1   2
HETATM    2  C   UNL     1      -7.290  10.941  67.017  1.00  0.00    -0.118 C  
HETATM    3  O   UNL     1      -6.547  11.235  65.827  1.00  0.00    -0.367 OA 
HETATM    4  H   UNL     1      -5.863  10.593  65.676  1.00  0.00     0.000 HD 
BRANCH   2   5
HETATM    5  C   UNL     1      -7.806   9.500  67.006  1.00  0.00    -0.098 A  
HETATM    6  C   UNL     1     -10.664   6.405  68.976  1.00  0.00    -0.286 C  
HETATM    7  C   UNL     1      -8.961   7.695  68.167  1.00  0.00    -0.126 A  
HETATM    8  C   UNL     1      -7.819   8.708  65.842  1.00  0.00    -0.102 A  
HETATM    9  C   UNL     1      -8.957   6.916  67.009  1.00  0.00    -0.120 A  
HETATM   10  C   UNL     1     -10.129   5.243  68.155  1.00  0.00    -0.151 C  
HETATM   11  C   UNL     1      -8.356   8.955  68.183  1.00  0.00    -0.125 A  
HETATM   12  O   UNL     1      -9.551   5.684  66.919  1.00  0.00    -0.128 OA 
HETATM   13  O   UNL     1      -9.596   7.297  69.317  1.00  0.00    -0.156 OA 
HETATM   14  C   UNL     1      -8.367   7.417  65.851  1.00  0.00    -0.140 A  
ENDBRANCH   2   5
ENDBRANCH   1   2
BRANCH   1  15
HETATM   15  N   UNL     1      -9.161  12.182  66.009  1.00  0.00    -0.413 NA 
HETATM   16  H   UNL     1      -8.673  12.669  65.256  1.00  0.00     0.000 HD 
BRANCH  15  17
HETATM   17  C   UNL     1     -10.348  11.798  65.762  1.00  0.00    -0.253 C  
HETATM   18  H   UNL     1     -11.600  10.673  64.606  1.00  0.00     0.000 HD 
HETATM   19  O   UNL     1     -10.713  10.959  64.791  1.00  0.00    -0.292 OA 
BRANCH  17  20
HETATM   20  C   UNL     1     -11.497  12.306  66.596  1.00  0.00    -0.431 C  
BRANCH  20  21
HETATM   21  C   UNL     1     -11.750  11.451  67.834  1.00  0.00    -0.300 C  
BRANCH  21  22
HETATM   22  C   UNL     1     -11.573  12.219  69.145  1.00  0.00    -0.373 C  
BRANCH  22  23
HETATM   23  C   UNL     1     -12.110  11.409  70.327  1.00  0.00    -0.459 C  
BRANCH  23  24
HETATM   24  C   UNL     1     -11.184  10.249  70.687  1.00  0.00    -0.406 C  
BRANCH  24  25
HETATM   25  C   UNL     1     -11.948   9.140  71.412  1.00  0.00    -0.410 C  
HETATM   26  C   UNL     1     -13.436   9.439  71.481  1.00  0.00    -0.445 C  
ENDBRANCH  24  25
ENDBRANCH  23  24
ENDBRANCH  22  23
ENDBRANCH  21  22
ENDBRANCH  20  21
ENDBRANCH  17  20
ENDBRANCH  15  17
ENDBRANCH   1  15
BRANCH   1  27
HETATM   27  C   UNL     1      -7.956  13.451  67.640  1.00  0.00    -0.174 C  
BRANCH  27  28
HETATM   28  N   UNL     1      -8.880  14.611  67.601  1.00  0.00    -0.174 NA 
HETATM   29  C   UNL     1      -8.389  15.600  66.612  1.00  0.00    -0.275 C  
HETATM   30  C   UNL     1      -8.942  15.315  68.883  1.00  0.00    -0.209 C  
HETATM   31  C   UNL     1      -8.582  16.990  67.203  1.00  0.00    -0.220 C  
HETATM   32  C   UNL     1      -9.214  16.770  68.558  1.00  0.00    -0.243 C  
ENDBRANCH  27  28
ENDBRANCH   1  27
TORSDOF 12
ENDMDL
MODEL      245
REMARK 921   NORMALIZED FREE ENERGY PREDICTED BY IDOCK:   -4.08 KCAL/MOL
REMARK 922        TOTAL FREE ENERGY PREDICTED BY IDOCK:   -9.00 KCAL/MOL
REMARK 923 INTER-LIGAND FREE ENERGY PREDICTED BY IDOCK:   -8.15 KCAL/MOL
REMARK 924 INTRA-LIGAND FREE ENERGY PREDICTED BY IDOCK:   -0.85 KCAL/MOL
REMARK 927      BINDING AFFINITY PREDICTED BY RF-SCORE:    0.00 PKD
ROOT
HETATM    1  C   UNL     1     -10.852  11.352  66.599  1.00  0.00    -0.289 C  
ENDROOT
BRANCH   1   2
HETATM    2  C   UNL     1      -9.707  10.360  66.211  1.00  0.00    -0.205 C  
HETATM    3  O   UNL     1     -10.000   9.670  64.989  1.00  0.00    -0.425 OA 
HETATM    4  H   UNL     1      -9.303   9.067  64.753  1.00  0.00     0.000 HD 
BRANCH   2   5
HETATM    5  C   UNL     1      -9.353   9.377  67.331  1.00  0.00    -0.151 A  
HETATM    6  C   UNL     1     -10.794   5.799  69.929  1.00  0.00    -0.347 C  
HETATM    7  C   UNL     1     -10.102   7.770  69.001  1.00  0.00    -0.196 A  
HETATM    8  C   UNL     1      -8.028   8.993  67.612  1.00  0.00    -0.101 A  
HETATM    9  C   UNL     1      -8.784   7.407  69.278  1.00  0.00    -0.137 A  
HETATM   10  C   UNL     1      -9.564   5.828  70.823  1.00  0.00    -0.171 C  
HETATM   11  C   UNL     1     -10.388   8.773  68.071  1.00  0.00    -0.273 A  
HETATM   12  O   UNL     1      -8.436   6.417  70.161  1.00  0.00    -0.131 OA 
HETATM   13  O   UNL     1     -11.175   7.135  69.577  1.00  0.00    -0.188 OA 
HETATM   14  C   UNL     1      -7.745   8.035  68.596  1.00  0.00    -0.105 A  
ENDBRANCH   2   5
ENDBRANCH   1   2
BRANCH   1  15
HETATM   15  N   UNL     1     -11.463  11.857  65.357  1.00  0.00    -0.293 NA 
HETATM   16  H   UNL     1     -11.638  11.170  64.623  1.00  0.00     0.000 HD 
BRANCH  15  17
HETATM   17  C   UNL     1     -11.795  13.059  65.103  1.00  0.00    -0.369 C  
HETATM   18  H   UNL     1     -13.251  14.490  65.101  1.00  0.00     0.000 HD 
HETATM   19  O   UNL     1     -13.003  13.592  65.291  1.00  0.00    -0.719 OA 
BRANCH  17  20
HETATM   20  C   UNL     1     -10.783  14.018  64.527  1.00  0.00    -0.355 C  
BRANCH  20  21
HETATM   21  C   UNL     1     -11.122  15.476  64.818  1.00  0.00    -0.421 C  
BRANCH  21  22
HETATM   22  C   UNL     1     -10.441  16.014  66.078  1.00  0.00    -0.356 C  
BRANCH  22  23
HETATM   23  C   UNL     1     -10.262  17.531  65.995  1.00  0.00    -0.306 C  
BRANCH  23  24
HETATM   24  C   UNL     1      -8.919  17.976  66.572  1.00  0.00    -0.280 C  
BRANCH  24  25
HETATM   25  C   UNL     1      -7.787  17.066  66.093  1.00  0.00    -0.295 C  
HETATM   26  C   UNL     1      -6.423  17.672  66.380  1.00  0.00    -0.272 C  
ENDBRANCH  24  25
ENDBRANCH  23  24
ENDBRANCH  22  23
ENDBRANCH  21  22
ENDBRANCH  20  21
ENDBRANCH  17  20
ENDBRANCH  15  17
ENDBRANCH   1  15
BRANCH   1  27
HETATM   27  C   UNL     1     -10.436  12.656  67.365  1.00  0.00    -0.224 C  
BRANCH  27  28
HETATM   28  N   UNL     1     -10.672  12.833  68.818  1.00  0.00    -0.238 NA 
HETATM   29  C   UNL     1     -11.321  11.618  69.365  1.00  0.00    -0.278 C  
HETATM   30  C   UNL     1     -11.584  13.943  69.101  1.00  0.00    -0.313 C  
HETATM   31  C   UNL     1     -12.391  12.061  70.352  1.00  0.00    -0.317 C  
HETATM   32  C   UNL     1     -12.326  13.571  70.369  1.00  0.00    -0.397 C  
ENDBRANCH  27  28
ENDBRANCH   1  27
TORSDOF 12
ENDMDL
MODEL      246
REMARK 921   NORMALIZED FREE ENERGY PREDICTED BY IDOCK:   -4.08 KCAL/MOL
REMARK 922        TOTAL FREE ENERGY PREDICTED BY IDOCK:   -8.99 KCAL/MOL
REMARK 923 INTER-LIGAND FREE ENERGY PREDICTED BY IDOCK:   -7.91 KCAL/MOL
REMARK 924 INTRA-LIGAND FREE ENERGY PREDICTED BY IDOCK:   -1.08 KCAL/MOL
REMARK 927      BINDING AFFINITY PREDICTED BY RF-SCORE:    0.00 PKD
ROOT
HETATM    1  C   UNL     1      -8.787  10.474  67.178  1.00  0.00    -0.136 C  
ENDROOT
BRANCH   1   2
HETATM    2  C   UNL     1      -9.374  11.304  68.367  1.00  0.00    -0.181 C  
HETATM    3  O   UNL     1      -8.387  12.172  68.939  1.00  0.00    -0.357 OA 
HETATM    4  H   UNL     1      -8.743  12.677  69.662  1.00  0.00     0.000 HD 
BRANCH   2   5
HETATM    5  C   UNL     1     -10.038  10.437  69.440  1.00  0.00    -0.251 A  
HETATM    6  C   UNL     1      -9.414   7.885  73.277  1.00  0.00    -0.285 C  
HETATM    7  C   UNL     1      -9.809   8.782  71.213  1.00  0.00    -0.266 A  
HETATM    8  C   UNL     1     -11.386  10.596  69.816  1.00  0.00    -0.371 A  
HETATM    9  C   UNL     1     -11.149   8.941  71.567  1.00  0.00    -0.326 A  
HETATM   10  C   UNL     1     -10.853   7.394  73.301  1.00  0.00    -0.368 C  
HETATM   11  C   UNL     1      -9.265   9.486  70.135  1.00  0.00    -0.281 A  
HETATM   12  O   UNL     1     -11.737   8.298  72.626  1.00  0.00    -0.403 OA 
HETATM   13  O   UNL     1      -8.951   7.979  71.925  1.00  0.00    -0.126 OA 
HETATM   14  C   UNL     1     -11.943   9.835  70.853  1.00  0.00    -0.413 A  
ENDBRANCH   2   5
ENDBRANCH   1   2
BRANCH   1  15
HETATM   15  N   UNL     1      -8.740  11.342  65.989  1.00  0.00    -0.291 NA 
HETATM   16  H   UNL     1      -7.878  11.867  65.841  1.00  0.00     0.000 HD 
BRANCH  15  17
HETATM   17  C   UNL     1      -9.662  11.508  65.127  1.00  0.00    -0.237 C  
HETATM   18  H   UNL     1     -10.389  11.087  63.267  1.00  0.00     0.000 HD 
HETATM   19  O   UNL     1      -9.701  10.963  63.911  1.00  0.00    -0.248 OA 
BRANCH  17  20
HETATM   20  C   UNL     1     -10.840  12.395  65.441  1.00  0.00    -0.320 C  
BRANCH  20  21
HETATM   21  C   UNL     1     -10.452  13.863  65.579  1.00  0.00    -0.333 C  
BRANCH  21  22
HETATM   22  C   UNL     1     -10.669  14.415  66.990  1.00  0.00    -0.285 C  
BRANCH  22  23
HETATM   23  C   UNL     1      -9.568  15.409  67.362  1.00  0.00    -0.210 C  
BRANCH  23  24
HETATM   24  C   UNL     1      -9.390  16.485  66.291  1.00  0.00    -0.334 C  
BRANCH  24  25
HETATM   25  C   UNL     1      -9.519  17.885  66.891  1.00  0.00    -0.279 C  
HETATM   26  C   UNL     1     -10.596  18.696  66.190  1.00  0.00    -0.409 C  
ENDBRANCH  24  25
ENDBRANCH  23  24
ENDBRANCH  22  23
ENDBRANCH  21  22
ENDBRANCH  20  21
ENDBRANCH  17  20
ENDBRANCH  15  17
ENDBRANCH   1  15
BRANCH   1  27
HETATM   27  C   UNL     1      -9.617   9.233  66.698  1.00  0.00    -0.204 C  
BRANCH  27  28
HETATM   28  N   UNL     1      -9.375   7.865  67.219  1.00  0.00    -0.143 NA 
HETATM   29  C   UNL     1      -8.587   7.093  66.229  1.00  0.00    -0.139 C  
HETATM   30  C   UNL     1     -10.619   7.119  67.419  1.00  0.00    -0.302 C  
HETATM   31  C   UNL     1      -9.153   5.681  66.177  1.00  0.00    -0.158 C  
HETATM   32  C   UNL     1     -10.283   5.660  67.180  1.00  0.00    -0.255 C  
ENDBRANCH  27  28
ENDBRANCH   1  27
TORSDOF 12
ENDMDL
MODEL      247
REMARK 921   NORMALIZED FREE ENERGY PREDICTED BY IDOCK:   -4.07 KCAL/MOL
REMARK 922        TOTAL FREE ENERGY PREDICTED BY IDOCK:   -8.98 KCAL/MOL
REMARK 923 INTER-LIGAND FREE ENERGY PREDICTED BY IDOCK:   -7.89 KCAL/MOL
REMARK 924 INTRA-LIGAND FREE ENERGY PREDICTED BY IDOCK:   -1.09 KCAL/MOL
REMARK 927      BINDING AFFINITY PREDICTED BY RF-SCORE:    0.00 PKD
ROOT
HETATM    1  C   UNL     1     -10.780  10.963  68.173  1.00  0.00    -0.214 C  
ENDROOT
BRANCH   1   2
HETATM    2  C   UNL     1     -10.571   9.674  69.036  1.00  0.00    -0.218 C  
HETATM    3  O   UNL     1      -9.944   9.977  70.289  1.00  0.00    -0.352 OA 
HETATM    4  H   UNL     1      -9.817   9.195  70.814  1.00  0.00     0.000 HD 
BRANCH   2   5
HETATM    5  C   UNL     1      -9.820   8.565  68.295  1.00  0.00    -0.190 A  
HETATM    6  C   UNL     1     -10.182   4.671  65.777  1.00  0.00    -0.258 C  
HETATM    7  C   UNL     1      -9.847   6.340  67.302  1.00  0.00    -0.137 A  
HETATM    8  C   UNL     1      -8.541   8.755  67.738  1.00  0.00    -0.129 A  
HETATM    9  C   UNL     1      -8.574   6.538  66.766  1.00  0.00    -0.117 A  
HETATM   10  C   UNL     1      -8.683   4.418  65.777  1.00  0.00    -0.120 C  
HETATM   11  C   UNL     1     -10.450   7.321  68.094  1.00  0.00    -0.244 A  
HETATM   12  O   UNL     1      -7.937   5.628  65.963  1.00  0.00    -0.102 OA 
HETATM   13  O   UNL     1     -10.587   5.213  67.040  1.00  0.00    -0.223 OA 
HETATM   14  C   UNL     1      -7.913   7.741  67.002  1.00  0.00    -0.116 A  
ENDBRANCH   2   5
ENDBRANCH   1   2
BRANCH   1  15
HETATM   15  N   UNL     1     -11.964  11.673  68.686  1.00  0.00    -0.459 NA 
HETATM   16  H   UNL     1     -12.848  11.485  68.213  1.00  0.00     0.000 HD 
BRANCH  15  17
HETATM   17  C   UNL     1     -12.001  12.495  69.656  1.00  0.00    -0.272 C  
HETATM   18  H   UNL     1     -12.182  12.794  71.668  1.00  0.00     0.000 HD 
HETATM   19  O   UNL     1     -12.154  12.180  70.943  1.00  0.00    -0.303 OA 
BRANCH  17  20
HETATM   20  C   UNL     1     -11.878  13.976  69.398  1.00  0.00    -0.381 C  
BRANCH  20  21
HETATM   21  C   UNL     1     -11.632  14.299  67.928  1.00  0.00    -0.367 C  
BRANCH  21  22
HETATM   22  C   UNL     1     -11.309  15.774  67.679  1.00  0.00    -0.194 C  
BRANCH  22  23
HETATM   23  C   UNL     1     -10.314  16.296  68.718  1.00  0.00    -0.261 C  
BRANCH  23  24
HETATM   24  C   UNL     1      -9.579  17.541  68.222  1.00  0.00    -0.299 C  
BRANCH  24  25
HETATM   25  C   UNL     1     -10.511  18.446  67.416  1.00  0.00    -0.443 C  
HETATM   26  C   UNL     1      -9.785  19.675  66.896  1.00  0.00    -0.482 C  
ENDBRANCH  24  25
ENDBRANCH  23  24
ENDBRANCH  22  23
ENDBRANCH  21  22
ENDBRANCH  20  21
ENDBRANCH  17  20
ENDBRANCH  15  17
ENDBRANCH   1  15
BRANCH   1  27
HETATM   27  C   UNL     1     -11.101  10.756  66.652  1.00  0.00    -0.035 C  
BRANCH  27  28
HETATM   28  N   UNL     1     -10.670  11.720  65.611  1.00  0.00    -0.272 NA 
HETATM   29  C   UNL     1     -11.863  12.350  64.997  1.00  0.00    -0.388 C  
HETATM   30  C   UNL     1      -9.945  11.070  64.518  1.00  0.00    -0.310 C  
HETATM   31  C   UNL     1     -11.619  12.454  63.498  1.00  0.00    -0.577 C  
HETATM   32  C   UNL     1     -10.240  11.879  63.271  1.00  0.00    -0.428 C  
ENDBRANCH  27  28
ENDBRANCH   1  27
TORSDOF 12
ENDMDL
MODEL      248
REMARK 921   NORMALIZED FREE ENERGY PREDICTED BY IDOCK:   -4.07 KCAL/MOL
REMARK 922        TOTAL FREE ENERGY PREDICTED BY IDOCK:   -8.98 KCAL/MOL
REMARK 923 INTER-LIGAND FREE ENERGY PREDICTED BY IDOCK:   -7.29 KCAL/MOL
REMARK 924 INTRA-LIGAND FREE ENERGY PREDICTED BY IDOCK:   -1.69 KCAL/MOL
REMARK 927      BINDING AFFINITY PREDICTED BY RF-SCORE:    0.00 PKD
ROOT
HETATM    1  C   UNL     1      -9.485  10.711  68.180  1.00  0.00    -0.154 C  
ENDROOT
BRANCH   1   2
HETATM    2  C   UNL     1     -10.809   9.887  68.306  1.00  0.00    -0.230 C  
HETATM    3  O   UNL     1     -11.963  10.714  68.108  1.00  0.00    -0.791 OA 
HETATM    4  H   UNL     1     -12.768  10.214  68.184  1.00  0.00     0.000 HD 
BRANCH   2   5
HETATM    5  C   UNL     1     -10.909   9.101  69.616  1.00  0.00    -0.210 A  
HETATM    6  C   UNL     1     -10.175   5.031  71.744  1.00  0.00    -0.207 C  
HETATM    7  C   UNL     1     -10.932   6.944  70.750  1.00  0.00    -0.259 A  
HETATM    8  C   UNL     1     -10.864   9.721  70.879  1.00  0.00    -0.399 A  
HETATM    9  C   UNL     1     -10.899   7.573  71.996  1.00  0.00    -0.233 A  
HETATM   10  C   UNL     1     -10.852   5.472  73.031  1.00  0.00    -0.274 C  
HETATM   11  C   UNL     1     -10.981   7.694  69.572  1.00  0.00    -0.108 A  
HETATM   12  O   UNL     1     -10.827   6.897  73.186  1.00  0.00    -0.279 OA 
HETATM   13  O   UNL     1     -10.865   5.580  70.614  1.00  0.00    -0.258 OA 
HETATM   14  C   UNL     1     -10.885   8.964  72.059  1.00  0.00    -0.404 A  
ENDBRANCH   2   5
ENDBRANCH   1   2
BRANCH   1  15
HETATM   15  N   UNL     1      -9.662  11.705  67.107  1.00  0.00    -0.181 NA 
HETATM   16  H   UNL     1     -10.268  11.435  66.332  1.00  0.00     0.000 HD 
BRANCH  15  17
HETATM   17  C   UNL     1      -9.140  12.863  67.045  1.00  0.00    -0.228 C  
HETATM   18  H   UNL     1      -7.456  14.013  67.153  1.00  0.00     0.000 HD 
HETATM   19  O   UNL     1      -7.846  13.147  67.200  1.00  0.00    -0.145 OA 
BRANCH  17  20
HETATM   20  C   UNL     1     -10.006  14.071  66.785  1.00  0.00    -0.268 C  
BRANCH  20  21
HETATM   21  C   UNL     1     -10.853  14.458  67.992  1.00  0.00    -0.250 C  
BRANCH  21  22
HETATM   22  C   UNL     1     -10.051  15.152  69.096  1.00  0.00    -0.245 C  
BRANCH  22  23
HETATM   23  C   UNL     1      -9.668  16.573  68.679  1.00  0.00    -0.247 C  
BRANCH  23  24
HETATM   24  C   UNL     1     -10.696  17.182  67.726  1.00  0.00    -0.329 C  
BRANCH  24  25
HETATM   25  C   UNL     1     -10.387  18.654  67.450  1.00  0.00    -0.447 C  
HETATM   26  C   UNL     1      -9.917  19.371  68.705  1.00  0.00    -0.527 C  
ENDBRANCH  24  25
ENDBRANCH  23  24
ENDBRANCH  22  23
ENDBRANCH  21  22
ENDBRANCH  20  21
ENDBRANCH  17  20
ENDBRANCH  15  17
ENDBRANCH   1  15
BRANCH   1  27
HETATM   27  C   UNL     1      -8.197   9.927  67.750  1.00  0.00    -0.114 C  
BRANCH  27  28
HETATM   28  N   UNL     1      -7.224   9.394  68.735  1.00  0.00    -0.072 NA 
HETATM   29  C   UNL     1      -7.478   7.950  68.947  1.00  0.00    -0.094 C  
HETATM   30  C   UNL     1      -7.361  10.028  70.048  1.00  0.00    -0.167 C  
HETATM   31  C   UNL     1      -7.326   7.660  70.434  1.00  0.00    -0.071 C  
HETATM   32  C   UNL     1      -6.961   8.982  71.069  1.00  0.00    -0.097 C  
ENDBRANCH  27  28
ENDBRANCH   1  27
TORSDOF 12
ENDMDL
MODEL      249
REMARK 921   NORMALIZED FREE ENERGY PREDICTED BY IDOCK:   -4.05 KCAL/MOL
REMARK 922        TOTAL FREE ENERGY PREDICTED BY IDOCK:   -8.95 KCAL/MOL
REMARK 923 INTER-LIGAND FREE ENERGY PREDICTED BY IDOCK:   -7.42 KCAL/MOL
REMARK 924 INTRA-LIGAND FREE ENERGY PREDICTED BY IDOCK:   -1.53 KCAL/MOL
REMARK 927      BINDING AFFINITY PREDICTED BY RF-SCORE:    0.00 PKD
ROOT
HETATM    1  C   UNL     1     -10.558   9.848  69.664  1.00  0.00    -0.250 C  
ENDROOT
BRANCH   1   2
HETATM    2  C   UNL     1     -11.637  10.968  69.838  1.00  0.00    -0.337 C  
HETATM    3  O   UNL     1     -12.965  10.438  69.732  1.00  0.00    -0.592 OA 
HETATM    4  H   UNL     1     -13.621  11.118  69.838  1.00  0.00     0.000 HD 
BRANCH   2   5
HETATM    5  C   UNL     1     -11.437  12.154  68.892  1.00  0.00    -0.350 A  
HETATM    6  C   UNL     1     -11.744  13.700  64.516  1.00  0.00    -0.400 C  
HETATM    7  C   UNL     1     -11.189  12.977  66.612  1.00  0.00    -0.307 A  
HETATM    8  C   UNL     1     -11.513  13.491  69.325  1.00  0.00    -0.345 A  
HETATM    9  C   UNL     1     -11.255  14.298  67.057  1.00  0.00    -0.323 A  
HETATM   10  C   UNL     1     -11.084  15.031  64.838  1.00  0.00    -0.415 C  
HETATM   11  C   UNL     1     -11.235  11.914  67.518  1.00  0.00    -0.359 A  
HETATM   12  O   UNL     1     -11.239  15.384  66.220  1.00  0.00    -0.282 OA 
HETATM   13  O   UNL     1     -11.131  12.653  65.279  1.00  0.00    -0.283 OA 
HETATM   14  C   UNL     1     -11.398  14.554  68.418  1.00  0.00    -0.311 A  
ENDBRANCH   2   5
ENDBRANCH   1   2
BRANCH   1  15
HETATM   15  N   UNL     1     -11.217   8.658  69.098  1.00  0.00    -0.391 NA 
HETATM   16  H   UNL     1     -12.201   8.527  69.334  1.00  0.00     0.000 HD 
BRANCH  15  17
HETATM   17  C   UNL     1     -10.689   7.777  68.348  1.00  0.00    -0.036 C  
HETATM   18  H   UNL     1      -9.510   7.356  66.736  1.00  0.00     0.000 HD 
HETATM   19  O   UNL     1      -9.904   8.014  67.297  1.00  0.00    -0.164 OA 
BRANCH  17  20
HETATM   20  C   UNL     1     -10.941   6.313  68.607  1.00  0.00    -0.423 C  
BRANCH  20  21
HETATM   21  C   UNL     1     -11.501   6.050  70.001  1.00  0.00    -0.236 C  
BRANCH  21  22
HETATM   22  C   UNL     1     -10.437   5.597  71.004  1.00  0.00    -0.316 C  
BRANCH  22  23
HETATM   23  C   UNL     1      -9.498   4.566  70.375  1.00  0.00    -0.252 C  
BRANCH  23  24
HETATM   24  C   UNL     1      -8.073   5.101  70.247  1.00  0.00    -0.086 C  
BRANCH  24  25
HETATM   25  C   UNL     1      -7.410   4.600  68.964  1.00  0.00    -0.053 C  
HETATM   26  C   UNL     1      -6.548   5.675  68.323  1.00  0.00    -0.049 C  
ENDBRANCH  24  25
ENDBRANCH  23  24
ENDBRANCH  22  23
ENDBRANCH  21  22
ENDBRANCH  20  21
ENDBRANCH  17  20
ENDBRANCH  15  17
ENDBRANCH   1  15
BRANCH   1  27
HETATM   27  C   UNL     1      -9.876   9.309  70.969  1.00  0.00    -0.285 C  
BRANCH  27  28
HETATM   28  N   UNL     1      -8.543   8.657  70.958  1.00  0.00    -0.156 NA 
HETATM   29  C   UNL     1      -8.218   8.177  72.322  1.00  0.00    -0.154 C  
HETATM   30  C   UNL     1      -7.474   9.585  70.588  1.00  0.00    -0.118 C  
HETATM   31  C   UNL     1      -6.747   8.467  72.583  1.00  0.00    -0.077 C  
HETATM   32  C   UNL     1      -6.232   9.116  71.319  1.00  0.00    -0.073 C  
ENDBRANCH  27  28
ENDBRANCH   1  27
TORSDOF 12
ENDMDL
MODEL      250
REMARK 921   NORMALIZED FREE ENERGY PREDICTED BY IDOCK:   -4.05 KCAL/MOL
REMARK 922        TOTAL FREE ENERGY PREDICTED BY IDOCK:   -8.94 KCAL/MOL
REMARK 923 INTER-LIGAND FREE ENERGY PREDICTED BY IDOCK:   -7.39 KCAL/MOL
REMARK 924 INTRA-LIGAND FREE ENERGY PREDICTED BY IDOCK:   -1.55 KCAL/MOL
REMARK 927      BINDING AFFINITY PREDICTED BY RF-SCORE:    0.00 PKD
ROOT
HETATM    1  C   UNL     1      -9.904  13.027  67.387  1.00  0.00    -0.215 C  
ENDROOT
BRANCH   1   2
HETATM    2  C   UNL     1      -9.717  14.316  68.254  1.00  0.00    -0.221 C  
HETATM    3  O   UNL     1      -8.469  14.299  68.958  1.00  0.00    -0.323 OA 
HETATM    4  H   UNL     1      -8.355  15.082  69.485  1.00  0.00     0.000 HD 
BRANCH   2   5
HETATM    5  C   UNL     1     -10.887  14.580  69.205  1.00  0.00    -0.278 A  
HETATM    6  C   UNL     1     -12.222  16.374  73.283  1.00  0.00    -0.464 C  
HETATM    7  C   UNL     1     -11.659  15.132  71.449  1.00  0.00    -0.373 A  
HETATM    8  C   UNL     1     -12.213  14.728  68.754  1.00  0.00    -0.135 A  
HETATM    9  C   UNL     1     -12.971  15.264  70.990  1.00  0.00    -0.462 A  
HETATM   10  C   UNL     1     -13.645  15.858  73.154  1.00  0.00    -0.499 C  
HETATM   11  C   UNL     1     -10.633  14.752  70.580  1.00  0.00     0.182 A  
HETATM   12  O   UNL     1     -14.018  15.655  71.784  1.00  0.00    -0.468 OA 
HETATM   13  O   UNL     1     -11.302  15.417  72.744  1.00  0.00    -0.378 OA 
HETATM   14  C   UNL     1     -13.249  15.042  69.644  1.00  0.00     0.741 A  
ENDBRANCH   2   5
ENDBRANCH   1   2
BRANCH   1  15
HETATM   15  N   UNL     1      -8.994  11.990  67.903  1.00  0.00    -0.174 NA 
HETATM   16  H   UNL     1      -8.066  12.300  68.193  1.00  0.00     0.000 HD 
BRANCH  15  17
HETATM   17  C   UNL     1      -9.243  10.748  68.027  1.00  0.00    -0.150 C  
HETATM   18  H   UNL     1      -8.526   8.840  68.129  1.00  0.00     0.000 HD 
HETATM   19  O   UNL     1      -8.340   9.767  68.037  1.00  0.00    -0.110 OA 
BRANCH  17  20
HETATM   20  C   UNL     1     -10.667  10.273  68.169  1.00  0.00    -0.287 C  
BRANCH  20  21
HETATM   21  C   UNL     1     -11.363  10.854  69.395  1.00  0.00    -0.347 C  
BRANCH  21  22
HETATM   22  C   UNL     1     -11.030  10.107  70.689  1.00  0.00    -0.357 C  
BRANCH  22  23
HETATM   23  C   UNL     1     -10.811   8.617  70.417  1.00  0.00    -0.250 C  
BRANCH  23  24
HETATM   24  C   UNL     1      -9.499   8.118  71.022  1.00  0.00    -0.185 C  
BRANCH  24  25
HETATM   25  C   UNL     1      -9.557   8.131  72.549  1.00  0.00    -0.347 C  
HETATM   26  C   UNL     1      -8.177   8.307  73.160  1.00  0.00    -0.233 C  
ENDBRANCH  24  25
ENDBRANCH  23  24
ENDBRANCH  22  23
ENDBRANCH  21  22
ENDBRANCH  20  21
ENDBRANCH  17  20
ENDBRANCH  15  17
ENDBRANCH   1  15
BRANCH   1  27
HETATM   27  C   UNL     1      -9.524  13.130  65.868  1.00  0.00    -0.019 C  
BRANCH  27  28
HETATM   28  N   UNL     1     -10.526  13.434  64.818  1.00  0.00    -0.390 NA 
HETATM   29  C   UNL     1     -11.887  13.378  65.403  1.00  0.00    -0.353 C  
HETATM   30  C   UNL     1     -10.509  12.450  63.734  1.00  0.00    -0.443 C  
HETATM   31  C   UNL     1     -12.802  12.694  64.397  1.00  0.00    -0.344 C  
HETATM   32  C   UNL     1     -11.928  12.373  63.207  1.00  0.00    -0.509 C  
ENDBRANCH  27  28
ENDBRANCH   1  27
TORSDOF 12
ENDMDL
MODEL      251
REMARK 921   NORMALIZED FREE ENERGY PREDICTED BY IDOCK:   -4.04 KCAL/MOL
REMARK 922        TOTAL FREE ENERGY PREDICTED BY IDOCK:   -8.93 KCAL/MOL
REMARK 923 INTER-LIGAND FREE ENERGY PREDICTED BY IDOCK:   -7.13 KCAL/MOL
REMARK 924 INTRA-LIGAND FREE ENERGY PREDICTED BY IDOCK:   -1.80 KCAL/MOL
REMARK 927      BINDING AFFINITY PREDICTED BY RF-SCORE:    0.00 PKD
ROOT
HETATM    1  C   UNL     1      -9.687   9.887  68.688  1.00  0.00    -0.157 C  
ENDROOT
BRANCH   1   2
HETATM    2  C   UNL     1     -10.505   9.316  67.483  1.00  0.00    -0.274 C  
HETATM    3  O   UNL     1     -11.054   8.026  67.785  1.00  0.00    -0.485 OA 
HETATM    4  H   UNL     1     -11.551   7.678  67.053  1.00  0.00     0.000 HD 
BRANCH   2   5
HETATM    5  C   UNL     1      -9.714   9.289  66.173  1.00  0.00    -0.349 A  
HETATM    6  C   UNL     1      -7.189   6.713  63.237  1.00  0.00    -0.064 C  
HETATM    7  C   UNL     1      -8.078   8.173  64.754  1.00  0.00    -0.152 A  
HETATM    8  C   UNL     1      -9.987  10.164  65.104  1.00  0.00    -0.379 A  
HETATM    9  C   UNL     1      -8.350   9.054  63.707  1.00  0.00    -0.176 A  
HETATM   10  C   UNL     1      -6.815   7.900  62.365  1.00  0.00    -0.085 C  
HETATM   11  C   UNL     1      -8.717   8.310  65.989  1.00  0.00    -0.181 A  
HETATM   12  O   UNL     1      -7.775   8.961  62.466  1.00  0.00    -0.109 OA 
HETATM   13  O   UNL     1      -7.223   7.107  64.614  1.00  0.00    -0.064 OA 
HETATM   14  C   UNL     1      -9.291  10.063  63.891  1.00  0.00    -0.315 A  
ENDBRANCH   2   5
ENDBRANCH   1   2
BRANCH   1  15
HETATM   15  N   UNL     1      -8.398  10.381  68.175  1.00  0.00    -0.114 NA 
HETATM   16  H   UNL     1      -7.804   9.700  67.701  1.00  0.00     0.000 HD 
BRANCH  15  17
HETATM   17  C   UNL     1      -7.946  11.568  68.261  1.00  0.00    -0.142 C  
HETATM   18  H   UNL     1      -7.057  13.004  69.407  1.00  0.00     0.000 HD 
HETATM   19  O   UNL     1      -7.395  12.118  69.343  1.00  0.00     0.071 OA 
BRANCH  17  20
HETATM   20  C   UNL     1      -8.016  12.492  67.071  1.00  0.00    -0.086 C  
BRANCH  20  21
HETATM   21  C   UNL     1      -8.954  13.673  67.297  1.00  0.00    -0.226 C  
BRANCH  21  22
HETATM   22  C   UNL     1     -10.428  13.268  67.371  1.00  0.00    -0.243 C  
BRANCH  22  23
HETATM   23  C   UNL     1     -11.333  14.423  66.935  1.00  0.00    -0.357 C  
BRANCH  23  24
HETATM   24  C   UNL     1     -12.384  13.969  65.923  1.00  0.00    -0.515 C  
BRANCH  24  25
HETATM   25  C   UNL     1     -11.763  13.758  64.542  1.00  0.00    -0.432 C  
HETATM   26  C   UNL     1     -12.483  12.669  63.765  1.00  0.00    -0.514 C  
ENDBRANCH  24  25
ENDBRANCH  23  24
ENDBRANCH  22  23
ENDBRANCH  21  22
ENDBRANCH  20  21
ENDBRANCH  17  20
ENDBRANCH  15  17
ENDBRANCH   1  15
BRANCH   1  27
HETATM   27  C   UNL     1      -9.276   8.874  69.813  1.00  0.00    -0.165 C  
BRANCH  27  28
HETATM   28  N   UNL     1     -10.101   8.655  71.026  1.00  0.00    -0.201 NA 
HETATM   29  C   UNL     1     -10.729   7.315  70.959  1.00  0.00    -0.231 C  
HETATM   30  C   UNL     1     -11.201   9.615  71.130  1.00  0.00    -0.384 C  
HETATM   31  C   UNL     1     -12.159   7.441  71.466  1.00  0.00    -0.357 C  
HETATM   32  C   UNL     1     -12.328   8.895  71.842  1.00  0.00    -0.445 C  
ENDBRANCH  27  28
ENDBRANCH   1  27
TORSDOF 12
ENDMDL
MODEL      252
REMARK 921   NORMALIZED FREE ENERGY PREDICTED BY IDOCK:   -4.03 KCAL/MOL
REMARK 922        TOTAL FREE ENERGY PREDICTED BY IDOCK:   -8.91 KCAL/MOL
REMARK 923 INTER-LIGAND FREE ENERGY PREDICTED BY IDOCK:   -7.54 KCAL/MOL
REMARK 924 INTRA-LIGAND FREE ENERGY PREDICTED BY IDOCK:   -1.37 KCAL/MOL
REMARK 927      BINDING AFFINITY PREDICTED BY RF-SCORE:    0.00 PKD
ROOT
HETATM    1  C   UNL     1      -8.307  14.670  68.395  1.00  0.00    -0.157 C  
ENDROOT
BRANCH   1   2
HETATM    2  C   UNL     1      -7.371  13.511  68.872  1.00  0.00    -0.045 C  
HETATM    3  O   UNL     1      -5.993  13.907  68.852  1.00  0.00    -0.079 OA 
HETATM    4  H   UNL     1      -5.424  13.203  69.142  1.00  0.00     0.000 HD 
BRANCH   2   5
HETATM    5  C   UNL     1      -7.585  12.205  68.103  1.00  0.00    -0.125 A  
HETATM    6  C   UNL     1     -10.455   8.645  67.256  1.00  0.00    -0.289 C  
HETATM    7  C   UNL     1      -8.810  10.114  67.855  1.00  0.00    -0.125 A  
HETATM    8  C   UNL     1      -6.962  11.942  66.868  1.00  0.00    -0.072 A  
HETATM    9  C   UNL     1      -8.177   9.860  66.638  1.00  0.00    -0.121 A  
HETATM   10  C   UNL     1      -9.433   7.895  66.418  1.00  0.00    -0.192 C  
HETATM   11  C   UNL     1      -8.490  11.249  68.604  1.00  0.00    -0.143 A  
HETATM   12  O   UNL     1      -8.460   8.779  65.844  1.00  0.00    -0.127 OA 
HETATM   13  O   UNL     1      -9.804   9.305  68.348  1.00  0.00    -0.148 OA 
HETATM   14  C   UNL     1      -7.237  10.767  66.155  1.00  0.00    -0.126 A  
ENDBRANCH   2   5
ENDBRANCH   1   2
BRANCH   1  15
HETATM   15  N   UNL     1      -9.577  14.078  67.939  1.00  0.00    -0.215 NA 
HETATM   16  H   UNL     1      -9.508  13.327  67.252  1.00  0.00     0.000 HD 
BRANCH  15  17
HETATM   17  C   UNL     1     -10.749  14.404  68.310  1.00  0.00    -0.242 C  
HETATM   18  H   UNL     1     -12.755  14.376  67.935  1.00  0.00     0.000 HD 
HETATM   19  O   UNL     1     -11.880  14.132  67.658  1.00  0.00    -0.360 OA 
BRANCH  17  20
HETATM   20  C   UNL     1     -10.950  15.177  69.590  1.00  0.00    -0.291 C  
BRANCH  20  21
HETATM   21  C   UNL     1     -11.976  14.530  70.514  1.00  0.00    -0.387 C  
BRANCH  21  22
HETATM   22  C   UNL     1     -13.277  15.329  70.625  1.00  0.00    -0.370 C  
BRANCH  22  23
HETATM   23  C   UNL     1     -13.701  15.478  72.087  1.00  0.00    -0.614 C  
BRANCH  23  24
HETATM   24  C   UNL     1     -13.074  14.402  72.972  1.00  0.00    -0.581 C  
BRANCH  24  25
HETATM   25  C   UNL     1     -12.217  15.026  74.073  1.00  0.00    -0.633 C  
HETATM   26  C   UNL     1     -12.208  16.543  73.982  1.00  0.00    -0.472 C  
ENDBRANCH  24  25
ENDBRANCH  23  24
ENDBRANCH  22  23
ENDBRANCH  21  22
ENDBRANCH  20  21
ENDBRANCH  17  20
ENDBRANCH  15  17
ENDBRANCH   1  15
BRANCH   1  27
HETATM   27  C   UNL     1      -7.826  15.511  67.162  1.00  0.00    -0.221 C  
BRANCH  27  28
HETATM   28  N   UNL     1      -8.083  16.967  67.044  1.00  0.00    -0.193 NA 
HETATM   29  C   UNL     1      -8.113  17.574  68.396  1.00  0.00    -0.266 C  
HETATM   30  C   UNL     1      -9.385  17.255  66.441  1.00  0.00    -0.258 C  
HETATM   31  C   UNL     1      -9.245  18.590  68.430  1.00  0.00    -0.347 C  
HETATM   32  C   UNL     1      -9.856  18.561  67.048  1.00  0.00    -0.341 C  
ENDBRANCH  27  28
ENDBRANCH   1  27
TORSDOF 12
ENDMDL
MODEL      253
REMARK 921   NORMALIZED FREE ENERGY PREDICTED BY IDOCK:   -4.03 KCAL/MOL
REMARK 922        TOTAL FREE ENERGY PREDICTED BY IDOCK:   -8.91 KCAL/MOL
REMARK 923 INTER-LIGAND FREE ENERGY PREDICTED BY IDOCK:   -8.43 KCAL/MOL
REMARK 924 INTRA-LIGAND FREE ENERGY PREDICTED BY IDOCK:   -0.48 KCAL/MOL
REMARK 927      BINDING AFFINITY PREDICTED BY RF-SCORE:    0.00 PKD
ROOT
HETATM    1  C   UNL     1     -11.734   8.162  71.511  1.00  0.00    -0.286 C  
ENDROOT
BRANCH   1   2
HETATM    2  C   UNL     1     -13.059   8.981  71.658  1.00  0.00    -0.365 C  
HETATM    3  O   UNL     1     -14.138   8.370  70.938  1.00  0.00    -0.594 OA 
HETATM    4  H   UNL     1     -14.943   8.867  71.028  1.00  0.00     0.000 HD 
BRANCH   2   5
HETATM    5  C   UNL     1     -12.904  10.456  71.278  1.00  0.00    -0.533 A  
HETATM    6  C   UNL     1     -13.072  14.864  72.750  1.00  0.00    -0.462 C  
HETATM    7  C   UNL     1     -13.322  12.796  71.810  1.00  0.00    -0.342 A  
HETATM    8  C   UNL     1     -12.074  10.884  70.224  1.00  0.00    -0.440 A  
HETATM    9  C   UNL     1     -12.506  13.206  70.754  1.00  0.00    -0.308 A  
HETATM   10  C   UNL     1     -12.888  15.438  71.354  1.00  0.00    -0.439 C  
HETATM   11  C   UNL     1     -13.557  11.439  72.046  1.00  0.00    -0.127 A  
HETATM   12  O   UNL     1     -12.217  14.518  70.482  1.00  0.00    -0.289 OA 
HETATM   13  O   UNL     1     -13.885  13.686  72.691  1.00  0.00    -0.715 OA 
HETATM   14  C   UNL     1     -11.898  12.247  69.949  1.00  0.00    -0.383 A  
ENDBRANCH   2   5
ENDBRANCH   1   2
BRANCH   1  15
HETATM   15  N   UNL     1     -10.603   9.103  71.562  1.00  0.00    -0.340 NA 
HETATM   16  H   UNL     1     -10.793  10.061  71.266  1.00  0.00     0.000 HD 
BRANCH  15  17
HETATM   17  C   UNL     1      -9.414   8.849  71.937  1.00  0.00    -0.230 C  
HETATM   18  H   UNL     1      -8.165   8.198  73.415  1.00  0.00     0.000 HD 
HETATM   19  O   UNL     1      -9.053   8.387  73.135  1.00  0.00    -0.244 OA 
BRANCH  17  20
HETATM   20  C   UNL     1      -8.259   9.078  70.995  1.00  0.00    -0.220 C  
BRANCH  20  21
HETATM   21  C   UNL     1      -8.478   8.440  69.627  1.00  0.00    -0.127 C  
BRANCH  21  22
HETATM   22  C   UNL     1      -7.413   8.829  68.601  1.00  0.00    -0.092 C  
BRANCH  22  23
HETATM   23  C   UNL     1      -7.878   8.502  67.181  1.00  0.00    -0.097 C  
BRANCH  23  24
HETATM   24  C   UNL     1      -7.293   9.471  66.154  1.00  0.00    -0.093 C  
BRANCH  24  25
HETATM   25  C   UNL     1      -8.399  10.154  65.349  1.00  0.00    -0.159 C  
HETATM   26  C   UNL     1      -9.202  11.117  66.207  1.00  0.00    -0.211 C  
ENDBRANCH  24  25
ENDBRANCH  23  24
ENDBRANCH  22  23
ENDBRANCH  21  22
ENDBRANCH  20  21
ENDBRANCH  17  20
ENDBRANCH  15  17
ENDBRANCH   1  15
BRANCH   1  27
HETATM   27  C   UNL     1     -11.518   7.395  70.160  1.00  0.00    -0.129 C  
BRANCH  27  28
HETATM   28  N   UNL     1     -11.318   5.927  70.103  1.00  0.00    -0.280 NA 
HETATM   29  C   UNL     1     -10.831   5.444  71.416  1.00  0.00    -0.140 C  
HETATM   30  C   UNL     1     -10.298   5.543  69.125  1.00  0.00    -0.248 C  
HETATM   31  C   UNL     1      -9.755   4.397  71.162  1.00  0.00    -0.256 C  
HETATM   32  C   UNL     1      -9.650   4.282  69.659  1.00  0.00    -0.275 C  
ENDBRANCH  27  28
ENDBRANCH   1  27
TORSDOF 12
ENDMDL
MODEL      254
REMARK 921   NORMALIZED FREE ENERGY PREDICTED BY IDOCK:   -4.02 KCAL/MOL
REMARK 922        TOTAL FREE ENERGY PREDICTED BY IDOCK:   -8.89 KCAL/MOL
REMARK 923 INTER-LIGAND FREE ENERGY PREDICTED BY IDOCK:   -7.59 KCAL/MOL
REMARK 924 INTRA-LIGAND FREE ENERGY PREDICTED BY IDOCK:   -1.30 KCAL/MOL
REMARK 927      BINDING AFFINITY PREDICTED BY RF-SCORE:    0.00 PKD
ROOT
HETATM    1  C   UNL     1      -9.774  10.315  69.305  1.00  0.00    -0.225 C  
ENDROOT
BRANCH   1   2
HETATM    2  C   UNL     1     -10.107   9.457  68.040  1.00  0.00    -0.191 C  
HETATM    3  O   UNL     1      -9.044   8.546  67.730  1.00  0.00    -0.135 OA 
HETATM    4  H   UNL     1      -9.246   8.024  66.961  1.00  0.00     0.000 HD 
BRANCH   2   5
HETATM    5  C   UNL     1     -10.489  10.299  66.820  1.00  0.00    -0.279 A  
HETATM    6  C   UNL     1     -11.944  14.442  65.289  1.00  0.00    -0.382 C  
HETATM    7  C   UNL     1     -11.597  12.274  65.921  1.00  0.00    -0.393 A  
HETATM    8  C   UNL     1      -9.965  10.056  65.536  1.00  0.00    -0.367 A  
HETATM    9  C   UNL     1     -11.080  12.014  64.651  1.00  0.00    -0.322 A  
HETATM   10  C   UNL     1     -12.110  13.962  63.856  1.00  0.00    -0.345 C  
HETATM   11  C   UNL     1     -11.344  11.406  66.987  1.00  0.00    -0.309 A  
HETATM   12  O   UNL     1     -11.271  12.835  63.570  1.00  0.00    -0.450 OA 
HETATM   13  O   UNL     1     -12.325  13.404  66.200  1.00  0.00    -0.415 OA 
HETATM   14  C   UNL     1     -10.279  10.892  64.456  1.00  0.00    -0.422 A  
ENDBRANCH   2   5
ENDBRANCH   1   2
BRANCH   1  15
HETATM   15  N   UNL     1      -8.820  11.366  68.910  1.00  0.00    -0.364 NA 
HETATM   16  H   UNL     1      -9.220  12.247  68.586  1.00  0.00     0.000 HD 
BRANCH  15  17
HETATM   17  C   UNL     1      -7.550  11.291  68.930  1.00  0.00    -0.126 C  
HETATM   18  H   UNL     1      -5.882  10.118  68.841  1.00  0.00     0.000 HD 
HETATM   19  O   UNL     1      -6.831  10.174  68.826  1.00  0.00    -0.059 OA 
BRANCH  17  20
HETATM   20  C   UNL     1      -6.722  12.541  69.095  1.00  0.00    -0.089 C  
BRANCH  20  21
HETATM   21  C   UNL     1      -6.908  13.527  67.947  1.00  0.00    -0.151 C  
BRANCH  21  22
HETATM   22  C   UNL     1      -7.515  14.860  68.388  1.00  0.00    -0.115 C  
BRANCH  22  23
HETATM   23  C   UNL     1      -9.034  14.853  68.209  1.00  0.00    -0.177 C  
BRANCH  23  24
HETATM   24  C   UNL     1      -9.756  15.323  69.472  1.00  0.00    -0.224 C  
BRANCH  24  25
HETATM   25  C   UNL     1     -11.272  15.306  69.277  1.00  0.00    -0.291 C  
HETATM   26  C   UNL     1     -11.849  13.918  69.499  1.00  0.00    -0.383 C  
ENDBRANCH  24  25
ENDBRANCH  23  24
ENDBRANCH  22  23
ENDBRANCH  21  22
ENDBRANCH  20  21
ENDBRANCH  17  20
ENDBRANCH  15  17
ENDBRANCH   1  15
BRANCH   1  27
HETATM   27  C   UNL     1      -9.052   9.585  70.491  1.00  0.00    -0.219 C  
BRANCH  27  28
HETATM   28  N   UNL     1      -9.505   8.271  71.008  1.00  0.00    -0.155 NA 
HETATM   29  C   UNL     1     -10.911   8.378  71.464  1.00  0.00    -0.262 C  
HETATM   30  C   UNL     1      -8.732   7.837  72.173  1.00  0.00    -0.130 C  
HETATM   31  C   UNL     1     -11.046   7.590  72.759  1.00  0.00    -0.416 C  
HETATM   32  C   UNL     1      -9.675   7.013  73.026  1.00  0.00    -0.198 C  
ENDBRANCH  27  28
ENDBRANCH   1  27
TORSDOF 12
ENDMDL
MODEL      255
REMARK 921   NORMALIZED FREE ENERGY PREDICTED BY IDOCK:   -4.01 KCAL/MOL
REMARK 922        TOTAL FREE ENERGY PREDICTED BY IDOCK:   -8.87 KCAL/MOL
REMARK 923 INTER-LIGAND FREE ENERGY PREDICTED BY IDOCK:   -7.53 KCAL/MOL
REMARK 924 INTRA-LIGAND FREE ENERGY PREDICTED BY IDOCK:   -1.35 KCAL/MOL
REMARK 927      BINDING AFFINITY PREDICTED BY RF-SCORE:    0.00 PKD
ROOT
HETATM    1  C   UNL     1      -9.507  10.241  68.809  1.00  0.00    -0.176 C  
ENDROOT
BRANCH   1   2
HETATM    2  C   UNL     1      -8.439   9.598  69.754  1.00  0.00    -0.190 C  
HETATM    3  O   UNL     1      -7.121   9.689  69.195  1.00  0.00    -0.059 OA 
HETATM    4  H   UNL     1      -6.472   9.298  69.769  1.00  0.00     0.000 HD 
BRANCH   2   5
HETATM    5  C   UNL     1      -8.773   8.158  70.154  1.00  0.00    -0.130 A  
HETATM    6  C   UNL     1     -10.943   5.403  73.208  1.00  0.00    -0.307 C  
HETATM    7  C   UNL     1      -9.534   6.599  71.865  1.00  0.00    -0.150 A  
HETATM    8  C   UNL     1      -8.846   7.108  69.219  1.00  0.00    -0.136 A  
HETATM    9  C   UNL     1      -9.590   5.564  70.929  1.00  0.00    -0.170 A  
HETATM   10  C   UNL     1     -10.386   4.127  72.599  1.00  0.00    -0.165 C  
HETATM   11  C   UNL     1      -9.089   7.872  71.497  1.00  0.00    -0.169 A  
HETATM   12  O   UNL     1     -10.037   4.301  71.219  1.00  0.00    -0.177 OA 
HETATM   13  O   UNL     1      -9.955   6.440  73.162  1.00  0.00    -0.164 OA 
HETATM   14  C   UNL     1      -9.226   5.817  69.609  1.00  0.00    -0.159 A  
ENDBRANCH   2   5
ENDBRANCH   1   2
BRANCH   1  15
HETATM   15  N   UNL     1      -9.244  11.688  68.735  1.00  0.00    -0.380 NA 
HETATM   16  H   UNL     1      -9.493  12.240  69.556  1.00  0.00     0.000 HD 
BRANCH  15  17
HETATM   17  C   UNL     1      -8.738  12.323  67.755  1.00  0.00    -0.174 C  
HETATM   18  H   UNL     1      -7.201  12.519  66.426  1.00  0.00     0.000 HD 
HETATM   19  O   UNL     1      -7.579  12.045  67.158  1.00  0.00    -0.148 OA 
BRANCH  17  20
HETATM   20  C   UNL     1      -9.457  13.514  67.173  1.00  0.00    -0.244 C  
BRANCH  20  21
HETATM   21  C   UNL     1     -10.519  14.077  68.112  1.00  0.00    -0.243 C  
BRANCH  21  22
HETATM   22  C   UNL     1     -11.180  15.351  67.582  1.00  0.00    -0.311 C  
BRANCH  22  23
HETATM   23  C   UNL     1     -10.139  16.444  67.338  1.00  0.00    -0.262 C  
BRANCH  23  24
HETATM   24  C   UNL     1     -10.327  17.114  65.977  1.00  0.00    -0.317 C  
BRANCH  24  25
HETATM   25  C   UNL     1     -10.341  18.637  66.111  1.00  0.00    -0.481 C  
HETATM   26  C   UNL     1     -10.662  19.070  67.532  1.00  0.00    -0.532 C  
ENDBRANCH  24  25
ENDBRANCH  23  24
ENDBRANCH  22  23
ENDBRANCH  21  22
ENDBRANCH  20  21
ENDBRANCH  17  20
ENDBRANCH  15  17
ENDBRANCH   1  15
BRANCH   1  27
HETATM   27  C   UNL     1     -11.004  10.160  69.270  1.00  0.00    -0.240 C  
BRANCH  27  28
HETATM   28  N   UNL     1     -11.431  10.500  70.649  1.00  0.00    -0.336 NA 
HETATM   29  C   UNL     1     -12.146   9.345  71.243  1.00  0.00    -0.345 C  
HETATM   30  C   UNL     1     -12.373  11.620  70.678  1.00  0.00    -0.344 C  
HETATM   31  C   UNL     1     -13.337   9.883  72.023  1.00  0.00    -0.532 C  
HETATM   32  C   UNL     1     -13.277  11.385  71.872  1.00  0.00    -0.485 C  
ENDBRANCH  27  28
ENDBRANCH   1  27
TORSDOF 12
ENDMDL
MODEL      256
REMARK 921   NORMALIZED FREE ENERGY PREDICTED BY IDOCK:   -4.00 KCAL/MOL
REMARK 922        TOTAL FREE ENERGY PREDICTED BY IDOCK:   -8.87 KCAL/MOL
REMARK 923 INTER-LIGAND FREE ENERGY PREDICTED BY IDOCK:   -7.81 KCAL/MOL
REMARK 924 INTRA-LIGAND FREE ENERGY PREDICTED BY IDOCK:   -1.06 KCAL/MOL
REMARK 927      BINDING AFFINITY PREDICTED BY RF-SCORE:    0.00 PKD
ROOT
HETATM    1  C   UNL     1     -10.431  11.214  67.887  1.00  0.00    -0.190 C  
ENDROOT
BRANCH   1   2
HETATM    2  C   UNL     1     -10.169   9.672  67.852  1.00  0.00    -0.198 C  
HETATM    3  O   UNL     1     -10.668   9.082  66.644  1.00  0.00    -0.159 OA 
HETATM    4  H   UNL     1     -10.509   8.145  66.622  1.00  0.00     0.000 HD 
BRANCH   2   5
HETATM    5  C   UNL     1     -10.700   8.939  69.086  1.00  0.00    -0.162 A  
HETATM    6  C   UNL     1     -10.419   5.126  71.735  1.00  0.00    -0.200 C  
HETATM    7  C   UNL     1     -10.927   6.858  70.332  1.00  0.00    -0.274 A  
HETATM    8  C   UNL     1     -11.248   9.616  70.193  1.00  0.00    -0.302 A  
HETATM    9  C   UNL     1     -11.479   7.540  71.417  1.00  0.00    -0.265 A  
HETATM   10  C   UNL     1     -11.609   5.519  72.595  1.00  0.00    -0.232 C  
HETATM   11  C   UNL     1     -10.581   7.538  69.161  1.00  0.00    -0.204 A  
HETATM   12  O   UNL     1     -11.819   6.937  72.601  1.00  0.00    -0.163 OA 
HETATM   13  O   UNL     1     -10.649   5.514  70.374  1.00  0.00    -0.276 OA 
HETATM   14  C   UNL     1     -11.657   8.918  71.338  1.00  0.00    -0.382 A  
ENDBRANCH   2   5
ENDBRANCH   1   2
BRANCH   1  15
HETATM   15  N   UNL     1     -11.576  11.507  67.009  1.00  0.00    -0.535 NA 
HETATM   16  H   UNL     1     -12.503  11.294  67.381  1.00  0.00     0.000 HD 
BRANCH  15  17
HETATM   17  C   UNL     1     -11.534  11.997  65.836  1.00  0.00    -0.333 C  
HETATM   18  H   UNL     1     -10.880  11.826  63.909  1.00  0.00     0.000 HD 
HETATM   19  O   UNL     1     -10.912  11.460  64.786  1.00  0.00    -0.296 OA 
BRANCH  17  20
HETATM   20  C   UNL     1     -12.219  13.307  65.538  1.00  0.00    -0.506 C  
BRANCH  20  21
HETATM   21  C   UNL     1     -12.121  14.299  66.693  1.00  0.00    -0.448 C  
BRANCH  21  22
HETATM   22  C   UNL     1     -10.989  15.314  66.524  1.00  0.00    -0.295 C  
BRANCH  22  23
HETATM   23  C   UNL     1     -10.861  16.201  67.764  1.00  0.00    -0.318 C  
BRANCH  23  24
HETATM   24  C   UNL     1     -10.102  17.492  67.462  1.00  0.00    -0.326 C  
BRANCH  24  25
HETATM   25  C   UNL     1     -10.536  18.084  66.121  1.00  0.00    -0.336 C  
HETATM   26  C   UNL     1     -10.556  19.603  66.160  1.00  0.00    -0.584 C  
ENDBRANCH  24  25
ENDBRANCH  23  24
ENDBRANCH  22  23
ENDBRANCH  21  22
ENDBRANCH  20  21
ENDBRANCH  17  20
ENDBRANCH  15  17
ENDBRANCH   1  15
BRANCH   1  27
HETATM   27  C   UNL     1      -9.293  12.142  67.335  1.00  0.00    -0.181 C  
BRANCH  27  28
HETATM   28  N   UNL     1      -8.430  12.956  68.224  1.00  0.00    -0.171 NA 
HETATM   29  C   UNL     1      -7.717  13.976  67.420  1.00  0.00    -0.158 C  
HETATM   30  C   UNL     1      -7.393  12.155  68.876  1.00  0.00    -0.054 C  
HETATM   31  C   UNL     1      -6.288  14.066  67.937  1.00  0.00    -0.169 C  
HETATM   32  C   UNL     1      -6.205  13.076  69.075  1.00  0.00    -0.094 C  
ENDBRANCH  27  28
ENDBRANCH   1  27
TORSDOF 12
ENDMDL
MODEL      257
REMARK 921   NORMALIZED FREE ENERGY PREDICTED BY IDOCK:   -4.00 KCAL/MOL
REMARK 922        TOTAL FREE ENERGY PREDICTED BY IDOCK:   -8.85 KCAL/MOL
REMARK 923 INTER-LIGAND FREE ENERGY PREDICTED BY IDOCK:   -7.65 KCAL/MOL
REMARK 924 INTRA-LIGAND FREE ENERGY PREDICTED BY IDOCK:   -1.20 KCAL/MOL
REMARK 927      BINDING AFFINITY PREDICTED BY RF-SCORE:    0.00 PKD
ROOT
HETATM    1  C   UNL     1      -9.888   9.488  69.759  1.00  0.00    -0.215 C  
ENDROOT
BRANCH   1   2
HETATM    2  C   UNL     1      -8.955   9.144  70.967  1.00  0.00    -0.214 C  
HETATM    3  O   UNL     1      -7.698   9.826  70.869  1.00  0.00    -0.324 OA 
HETATM    4  H   UNL     1      -7.130   9.617  71.603  1.00  0.00     0.000 HD 
BRANCH   2   5
HETATM    5  C   UNL     1      -8.756   7.639  71.168  1.00  0.00    -0.138 A  
HETATM    6  C   UNL     1      -6.719   3.767  69.593  1.00  0.00    -0.034 C  
HETATM    7  C   UNL     1      -8.068   5.491  70.248  1.00  0.00    -0.102 A  
HETATM    8  C   UNL     1      -8.853   7.024  72.431  1.00  0.00    -0.141 A  
HETATM    9  C   UNL     1      -8.180   4.891  71.503  1.00  0.00    -0.113 A  
HETATM   10  C   UNL     1      -7.447   2.868  70.578  1.00  0.00    -0.040 C  
HETATM   11  C   UNL     1      -8.393   6.838  70.068  1.00  0.00    -0.135 A  
HETATM   12  O   UNL     1      -7.856   3.583  71.752  1.00  0.00    -0.059 OA 
HETATM   13  O   UNL     1      -7.589   4.816  69.152  1.00  0.00    -0.056 OA 
HETATM   14  C   UNL     1      -8.593   5.656  72.591  1.00  0.00    -0.120 A  
ENDBRANCH   2   5
ENDBRANCH   1   2
BRANCH   1  15
HETATM   15  N   UNL     1      -9.949  10.953  69.627  1.00  0.00    -0.434 NA 
HETATM   16  H   UNL     1      -9.896  11.492  70.492  1.00  0.00     0.000 HD 
BRANCH  15  17
HETATM   17  C   UNL     1     -10.059  11.620  68.548  1.00  0.00    -0.206 C  
HETATM   18  H   UNL     1      -9.192  12.273  66.820  1.00  0.00     0.000 HD 
HETATM   19  O   UNL     1      -9.109  11.775  67.625  1.00  0.00    -0.167 OA 
BRANCH  17  20
HETATM   20  C   UNL     1     -11.349  12.331  68.227  1.00  0.00    -0.339 C  
BRANCH  20  21
HETATM   21  C   UNL     1     -11.449  13.700  68.893  1.00  0.00    -0.344 C  
BRANCH  21  22
HETATM   22  C   UNL     1     -12.296  13.692  70.167  1.00  0.00    -0.372 C  
BRANCH  22  23
HETATM   23  C   UNL     1     -12.577  15.118  70.644  1.00  0.00    -0.450 C  
BRANCH  23  24
HETATM   24  C   UNL     1     -11.602  15.551  71.739  1.00  0.00    -0.515 C  
BRANCH  24  25
HETATM   25  C   UNL     1     -12.351  16.014  72.989  1.00  0.00    -0.625 C  
HETATM   26  C   UNL     1     -13.814  15.606  72.947  1.00  0.00    -0.571 C  
ENDBRANCH  24  25
ENDBRANCH  23  24
ENDBRANCH  22  23
ENDBRANCH  21  22
ENDBRANCH  20  21
ENDBRANCH  17  20
ENDBRANCH  15  17
ENDBRANCH   1  15
BRANCH   1  27
HETATM   27  C   UNL     1     -11.394   9.064  69.880  1.00  0.00    -0.001 C  
BRANCH  27  28
HETATM   28  N   UNL     1     -12.017   8.709  71.178  1.00  0.00    -0.290 NA 
HETATM   29  C   UNL     1     -12.561   7.332  71.104  1.00  0.00    -0.323 C  
HETATM   30  C   UNL     1     -13.150   9.576  71.506  1.00  0.00    -0.389 C  
HETATM   31  C   UNL     1     -13.907   7.320  71.816  1.00  0.00    -0.420 C  
HETATM   32  C   UNL     1     -14.113   8.731  72.316  1.00  0.00    -0.511 C  
ENDBRANCH  27  28
ENDBRANCH   1  27
TORSDOF 12
ENDMDL
MODEL      258
REMARK 921   NORMALIZED FREE ENERGY PREDICTED BY IDOCK:   -3.99 KCAL/MOL
REMARK 922        TOTAL FREE ENERGY PREDICTED BY IDOCK:   -8.85 KCAL/MOL
REMARK 923 INTER-LIGAND FREE ENERGY PREDICTED BY IDOCK:   -7.24 KCAL/MOL
REMARK 924 INTRA-LIGAND FREE ENERGY PREDICTED BY IDOCK:   -1.61 KCAL/MOL
REMARK 927      BINDING AFFINITY PREDICTED BY RF-SCORE:    0.00 PKD
ROOT
HETATM    1  C   UNL     1      -9.445  15.575  68.192  1.00  0.00    -0.198 C  
ENDROOT
BRANCH   1   2
HETATM    2  C   UNL     1     -10.025  16.176  66.869  1.00  0.00    -0.254 C  
HETATM    3  O   UNL     1     -10.746  17.391  67.116  1.00  0.00    -0.295 OA 
HETATM    4  H   UNL     1     -11.098  17.757  66.312  1.00  0.00     0.000 HD 
BRANCH   2   5
HETATM    5  C   UNL     1     -10.872  15.181  66.072  1.00  0.00    -0.335 A  
HETATM    6  C   UNL     1     -10.869  11.362  63.417  1.00  0.00    -0.297 C  
HETATM    7  C   UNL     1     -10.983  13.432  64.380  1.00  0.00    -0.395 A  
HETATM    8  C   UNL     1     -12.219  14.914  66.382  1.00  0.00     0.110 A  
HETATM    9  C   UNL     1     -12.322  13.186  64.689  1.00  0.00    -0.405 A  
HETATM   10  C   UNL     1     -12.351  11.468  63.096  1.00  0.00     0.143 C  
HETATM   11  C   UNL     1     -10.274  14.446  65.030  1.00  0.00    -0.406 A  
HETATM   12  O   UNL     1     -13.067  12.193  64.106  1.00  0.00    -0.694 OA 
HETATM   13  O   UNL     1     -10.286  12.670  63.475  1.00  0.00    -0.371 OA 
HETATM   14  C   UNL     1     -12.945  13.942  65.678  1.00  0.00    -0.361 A  
ENDBRANCH   2   5
ENDBRANCH   1   2
BRANCH   1  15
HETATM   15  N   UNL     1      -8.192  14.871  67.867  1.00  0.00    -0.136 NA 
HETATM   16  H   UNL     1      -8.123  14.473  66.929  1.00  0.00     0.000 HD 
BRANCH  15  17
HETATM   17  C   UNL     1      -7.188  14.706  68.630  1.00  0.00    -0.122 C  
HETATM   18  H   UNL     1      -6.329  15.022  70.455  1.00  0.00     0.000 HD 
HETATM   19  O   UNL     1      -7.079  15.145  69.885  1.00  0.00    -0.183 OA 
BRANCH  17  20
HETATM   20  C   UNL     1      -5.973  13.965  68.132  1.00  0.00    -0.125 C  
BRANCH  20  21
HETATM   21  C   UNL     1      -6.121  12.451  68.240  1.00  0.00    -0.055 C  
BRANCH  21  22
HETATM   22  C   UNL     1      -6.428  11.777  66.901  1.00  0.00    -0.121 C  
BRANCH  22  23
HETATM   23  C   UNL     1      -7.602  10.805  67.036  1.00  0.00    -0.114 C  
BRANCH  23  24
HETATM   24  C   UNL     1      -8.935  11.541  67.164  1.00  0.00    -0.166 C  
BRANCH  24  25
HETATM   25  C   UNL     1     -10.041  10.597  67.638  1.00  0.00    -0.208 C  
HETATM   26  C   UNL     1     -11.397  11.005  67.088  1.00  0.00    -0.214 C  
ENDBRANCH  24  25
ENDBRANCH  23  24
ENDBRANCH  22  23
ENDBRANCH  21  22
ENDBRANCH  20  21
ENDBRANCH  17  20
ENDBRANCH  15  17
ENDBRANCH   1  15
BRANCH   1  27
HETATM   27  C   UNL     1     -10.307  14.483  68.915  1.00  0.00    -0.237 C  
BRANCH  27  28
HETATM   28  N   UNL     1     -11.554  14.812  69.648  1.00  0.00    -0.286 NA 
HETATM   29  C   UNL     1     -11.214  15.505  70.913  1.00  0.00    -0.371 C  
HETATM   30  C   UNL     1     -12.306  13.615  70.030  1.00  0.00    -0.278 C  
HETATM   31  C   UNL     1     -12.132  14.969  72.003  1.00  0.00    -0.454 C  
HETATM   32  C   UNL     1     -13.022  13.956  71.321  1.00  0.00    -0.414 C  
ENDBRANCH  27  28
ENDBRANCH   1  27
TORSDOF 12
ENDMDL
MODEL      259
REMARK 921   NORMALIZED FREE ENERGY PREDICTED BY IDOCK:   -3.99 KCAL/MOL
REMARK 922        TOTAL FREE ENERGY PREDICTED BY IDOCK:   -8.84 KCAL/MOL
REMARK 923 INTER-LIGAND FREE ENERGY PREDICTED BY IDOCK:   -8.47 KCAL/MOL
REMARK 924 INTRA-LIGAND FREE ENERGY PREDICTED BY IDOCK:   -0.37 KCAL/MOL
REMARK 927      BINDING AFFINITY PREDICTED BY RF-SCORE:    0.00 PKD
ROOT
HETATM    1  C   UNL     1     -10.255  12.937  68.003  1.00  0.00    -0.229 C  
ENDROOT
BRANCH   1   2
HETATM    2  C   UNL     1     -10.318  13.524  66.554  1.00  0.00    -0.282 C  
HETATM    3  O   UNL     1      -9.201  13.093  65.765  1.00  0.00    -0.451 OA 
HETATM    4  H   UNL     1      -9.238  13.450  64.884  1.00  0.00     0.000 HD 
BRANCH   2   5
HETATM    5  C   UNL     1     -10.463  15.047  66.524  1.00  0.00    -0.285 A  
HETATM    6  C   UNL     1      -9.523  19.062  68.676  1.00  0.00    -0.405 C  
HETATM    7  C   UNL     1     -10.374  17.169  67.718  1.00  0.00    -0.347 A  
HETATM    8  C   UNL     1     -10.606  15.772  65.326  1.00  0.00    -0.446 A  
HETATM    9  C   UNL     1     -10.527  17.875  66.524  1.00  0.00    -0.313 A  
HETATM   10  C   UNL     1     -10.365  19.885  67.715  1.00  0.00    -0.407 C  
HETATM   11  C   UNL     1     -10.385  15.772  67.730  1.00  0.00    -0.275 A  
HETATM   12  O   UNL     1     -10.502  19.243  66.440  1.00  0.00    -0.415 OA 
HETATM   13  O   UNL     1     -10.153  17.798  68.919  1.00  0.00    -0.360 OA 
HETATM   14  C   UNL     1     -10.663  17.173  65.329  1.00  0.00    -0.067 A  
ENDBRANCH   2   5
ENDBRANCH   1   2
BRANCH   1  15
HETATM   15  N   UNL     1      -9.550  11.646  67.947  1.00  0.00    -0.175 NA 
HETATM   16  H   UNL     1      -8.655  11.593  68.435  1.00  0.00     0.000 HD 
BRANCH  15  17
HETATM   17  C   UNL     1      -9.937  10.588  67.354  1.00  0.00    -0.179 C  
HETATM   18  H   UNL     1     -11.129   9.737  65.932  1.00  0.00     0.000 HD 
HETATM   19  O   UNL     1     -10.839  10.527  66.374  1.00  0.00    -0.146 OA 
BRANCH  17  20
HETATM   20  C   UNL     1      -9.375   9.247  67.755  1.00  0.00    -0.145 C  
BRANCH  20  21
HETATM   21  C   UNL     1     -10.400   8.124  67.652  1.00  0.00    -0.313 C  
BRANCH  21  22
HETATM   22  C   UNL     1     -10.599   7.366  68.967  1.00  0.00    -0.203 C  
BRANCH  22  23
HETATM   23  C   UNL     1      -9.848   6.033  68.947  1.00  0.00    -0.173 C  
BRANCH  23  24
HETATM   24  C   UNL     1     -10.384   5.064  70.000  1.00  0.00    -0.303 C  
BRANCH  24  25
HETATM   25  C   UNL     1      -9.567   3.773  70.026  1.00  0.00    -0.259 C  
HETATM   26  C   UNL     1      -9.474   3.198  71.429  1.00  0.00    -0.219 C  
ENDBRANCH  24  25
ENDBRANCH  23  24
ENDBRANCH  22  23
ENDBRANCH  21  22
ENDBRANCH  20  21
ENDBRANCH  17  20
ENDBRANCH  15  17
ENDBRANCH   1  15
BRANCH   1  27
HETATM   27  C   UNL     1     -11.622  12.583  68.687  1.00  0.00    -0.314 C  
BRANCH  27  28
HETATM   28  N   UNL     1     -11.702  12.003  70.049  1.00  0.00    -0.300 NA 
HETATM   29  C   UNL     1     -12.147  10.592  69.959  1.00  0.00    -0.316 C  
HETATM   30  C   UNL     1     -12.688  12.687  70.887  1.00  0.00    -0.188 C  
HETATM   31  C   UNL     1     -13.134  10.338  71.090  1.00  0.00    -0.481 C  
HETATM   32  C   UNL     1     -13.231  11.645  71.844  1.00  0.00    -0.475 C  
ENDBRANCH  27  28
ENDBRANCH   1  27
TORSDOF 12
ENDMDL
MODEL      260
REMARK 921   NORMALIZED FREE ENERGY PREDICTED BY IDOCK:   -3.95 KCAL/MOL
REMARK 922        TOTAL FREE ENERGY PREDICTED BY IDOCK:   -8.78 KCAL/MOL
REMARK 923 INTER-LIGAND FREE ENERGY PREDICTED BY IDOCK:   -7.23 KCAL/MOL
REMARK 924 INTRA-LIGAND FREE ENERGY PREDICTED BY IDOCK:   -1.55 KCAL/MOL
REMARK 927      BINDING AFFINITY PREDICTED BY RF-SCORE:    0.00 PKD
ROOT
HETATM    1  C   UNL     1     -10.526  12.771  66.951  1.00  0.00    -0.240 C  
ENDROOT
BRANCH   1   2
HETATM    2  C   UNL     1     -11.669  13.836  67.016  1.00  0.00    -0.390 C  
HETATM    3  O   UNL     1     -11.615  14.736  65.901  1.00  0.00    -0.348 OA 
HETATM    4  H   UNL     1     -12.310  15.383  65.940  1.00  0.00     0.000 HD 
BRANCH   2   5
HETATM    5  C   UNL     1     -11.710  14.600  68.342  1.00  0.00    -0.352 A  
HETATM    6  C   UNL     1     -12.853  14.460  72.848  1.00  0.00    -0.420 C  
HETATM    7  C   UNL     1     -12.598  14.798  70.603  1.00  0.00    -0.354 A  
HETATM    8  C   UNL     1     -10.811  15.641  68.647  1.00  0.00    -0.273 A  
HETATM    9  C   UNL     1     -11.709  15.836  70.886  1.00  0.00    -0.406 A  
HETATM   10  C   UNL     1     -12.554  15.934  73.069  1.00  0.00    -0.501 C  
HETATM   11  C   UNL     1     -12.633  14.213  69.334  1.00  0.00     0.063 A  
HETATM   12  O   UNL     1     -11.609  16.436  72.115  1.00  0.00    -0.442 OA 
HETATM   13  O   UNL     1     -13.435  14.267  71.553  1.00  0.00    -0.333 OA 
HETATM   14  C   UNL     1     -10.829  16.270  69.899  1.00  0.00    -0.352 A  
ENDBRANCH   2   5
ENDBRANCH   1   2
BRANCH   1  15
HETATM   15  N   UNL     1     -11.067  11.553  66.324  1.00  0.00    -0.292 NA 
HETATM   16  H   UNL     1     -12.053  11.353  66.494  1.00  0.00     0.000 HD 
BRANCH  15  17
HETATM   17  C   UNL     1     -10.435  10.725  65.594  1.00  0.00    -0.186 C  
HETATM   18  H   UNL     1      -9.602   8.871  65.399  1.00  0.00     0.000 HD 
HETATM   19  O   UNL     1     -10.074   9.490  65.945  1.00  0.00    -0.294 OA 
BRANCH  17  20
HETATM   20  C   UNL     1     -10.017  11.113  64.198  1.00  0.00    -0.369 C  
BRANCH  20  21
HETATM   21  C   UNL     1      -9.219  10.018  63.496  1.00  0.00    -0.315 C  
BRANCH  21  22
HETATM   22  C   UNL     1      -7.706  10.179  63.653  1.00  0.00    -0.142 C  
BRANCH  22  23
HETATM   23  C   UNL     1      -6.993   8.839  63.466  1.00  0.00    -0.089 C  
BRANCH  23  24
HETATM   24  C   UNL     1      -7.880   7.663  63.873  1.00  0.00    -0.122 C  
BRANCH  24  25
HETATM   25  C   UNL     1      -7.403   7.045  65.188  1.00  0.00    -0.081 C  
HETATM   26  C   UNL     1      -8.565   6.752  66.122  1.00  0.00    -0.146 C  
ENDBRANCH  24  25
ENDBRANCH  23  24
ENDBRANCH  22  23
ENDBRANCH  21  22
ENDBRANCH  20  21
ENDBRANCH  17  20
ENDBRANCH  15  17
ENDBRANCH   1  15
BRANCH   1  27
HETATM   27  C   UNL     1      -9.950  12.261  68.318  1.00  0.00    -0.216 C  
BRANCH  27  28
HETATM   28  N   UNL     1      -8.513  11.944  68.506  1.00  0.00    -0.145 NA 
HETATM   29  C   UNL     1      -7.761  12.322  67.287  1.00  0.00    -0.161 C  
HETATM   30  C   UNL     1      -8.282  10.511  68.699  1.00  0.00    -0.130 C  
HETATM   31  C   UNL     1      -6.735  11.231  67.011  1.00  0.00    -0.126 C  
HETATM   32  C   UNL     1      -6.911  10.220  68.121  1.00  0.00    -0.074 C  
ENDBRANCH  27  28
ENDBRANCH   1  27
TORSDOF 12
ENDMDL
MODEL      261
REMARK 921   NORMALIZED FREE ENERGY PREDICTED BY IDOCK:   -3.95 KCAL/MOL
REMARK 922        TOTAL FREE ENERGY PREDICTED BY IDOCK:   -8.78 KCAL/MOL
REMARK 923 INTER-LIGAND FREE ENERGY PREDICTED BY IDOCK:   -6.77 KCAL/MOL
REMARK 924 INTRA-LIGAND FREE ENERGY PREDICTED BY IDOCK:   -2.01 KCAL/MOL
REMARK 927      BINDING AFFINITY PREDICTED BY RF-SCORE:    0.00 PKD
ROOT
HETATM    1  C   UNL     1      -9.659   8.612  70.412  1.00  0.00    -0.173 C  
ENDROOT
BRANCH   1   2
HETATM    2  C   UNL     1      -9.056   8.361  71.833  1.00  0.00    -0.221 C  
HETATM    3  O   UNL     1      -7.815   9.058  72.008  1.00  0.00    -0.351 OA 
HETATM    4  H   UNL     1      -7.448   8.906  72.871  1.00  0.00     0.000 HD 
BRANCH   2   5
HETATM    5  C   UNL     1      -8.911   6.876  72.176  1.00  0.00    -0.136 A  
HETATM    6  C   UNL     1     -11.095   2.976  73.458  1.00  0.00    -0.217 C  
HETATM    7  C   UNL     1      -9.853   4.876  73.200  1.00  0.00    -0.150 A  
HETATM    8  C   UNL     1      -7.876   6.075  71.656  1.00  0.00    -0.102 A  
HETATM    9  C   UNL     1      -8.815   4.097  72.688  1.00  0.00    -0.103 A  
HETATM   10  C   UNL     1      -9.803   2.196  73.636  1.00  0.00    -0.090 C  
HETATM   11  C   UNL     1      -9.882   6.257  72.987  1.00  0.00    -0.175 A  
HETATM   12  O   UNL     1      -8.739   2.736  72.841  1.00  0.00    -0.074 OA 
HETATM   13  O   UNL     1     -10.912   4.332  73.883  1.00  0.00    -0.252 OA 
HETATM   14  C   UNL     1      -7.815   4.702  71.931  1.00  0.00    -0.098 A  
ENDBRANCH   2   5
ENDBRANCH   1   2
BRANCH   1  15
HETATM   15  N   UNL     1      -9.237   9.950  69.963  1.00  0.00    -0.336 NA 
HETATM   16  H   UNL     1      -8.680  10.497  70.620  1.00  0.00     0.000 HD 
BRANCH  15  17
HETATM   17  C   UNL     1      -9.493  10.495  68.842  1.00  0.00    -0.193 C  
HETATM   18  H   UNL     1     -10.448  11.980  67.816  1.00  0.00     0.000 HD 
HETATM   19  O   UNL     1     -10.257  11.572  68.653  1.00  0.00    -0.204 OA 
BRANCH  17  20
HETATM   20  C   UNL     1      -8.923   9.917  67.571  1.00  0.00    -0.141 C  
BRANCH  20  21
HETATM   21  C   UNL     1     -10.002   9.433  66.608  1.00  0.00    -0.326 C  
BRANCH  21  22
HETATM   22  C   UNL     1     -10.457   7.999  66.883  1.00  0.00    -0.387 C  
BRANCH  22  23
HETATM   23  C   UNL     1      -9.377   6.996  66.475  1.00  0.00    -0.201 C  
BRANCH  23  24
HETATM   24  C   UNL     1      -9.666   5.597  67.019  1.00  0.00    -0.155 C  
BRANCH  24  25
HETATM   25  C   UNL     1     -10.890   5.607  67.937  1.00  0.00    -0.171 C  
HETATM   26  C   UNL     1     -10.523   5.229  69.362  1.00  0.00    -0.284 C  
ENDBRANCH  24  25
ENDBRANCH  23  24
ENDBRANCH  22  23
ENDBRANCH  21  22
ENDBRANCH  20  21
ENDBRANCH  17  20
ENDBRANCH  15  17
ENDBRANCH   1  15
BRANCH   1  27
HETATM   27  C   UNL     1     -11.223   8.660  70.301  1.00  0.00    -0.184 C  
BRANCH  27  28
HETATM   28  N   UNL     1     -12.109   8.487  71.479  1.00  0.00    -0.292 NA 
HETATM   29  C   UNL     1     -12.959   7.289  71.284  1.00  0.00    -0.328 C  
HETATM   30  C   UNL     1     -13.027   9.613  71.653  1.00  0.00    -0.407 C  
HETATM   31  C   UNL     1     -14.359   7.621  71.781  1.00  0.00    -0.586 C  
HETATM   32  C   UNL     1     -14.283   9.045  72.283  1.00  0.00    -0.432 C  
ENDBRANCH  27  28
ENDBRANCH   1  27
TORSDOF 12
ENDMDL
MODEL      262
REMARK 921   NORMALIZED FREE ENERGY PREDICTED BY IDOCK:   -3.95 KCAL/MOL
REMARK 922        TOTAL FREE ENERGY PREDICTED BY IDOCK:   -8.78 KCAL/MOL
REMARK 923 INTER-LIGAND FREE ENERGY PREDICTED BY IDOCK:   -7.25 KCAL/MOL
REMARK 924 INTRA-LIGAND FREE ENERGY PREDICTED BY IDOCK:   -1.53 KCAL/MOL
REMARK 927      BINDING AFFINITY PREDICTED BY RF-SCORE:    0.00 PKD
ROOT
HETATM    1  C   UNL     1      -9.325   8.541  69.227  1.00  0.00    -0.154 C  
ENDROOT
BRANCH   1   2
HETATM    2  C   UNL     1      -8.685   9.917  68.848  1.00  0.00    -0.140 C  
HETATM    3  O   UNL     1      -8.158  10.587  70.001  1.00  0.00    -0.352 OA 
HETATM    4  H   UNL     1      -7.769  11.424  69.771  1.00  0.00     0.000 HD 
BRANCH   2   5
HETATM    5  C   UNL     1      -9.631  10.828  68.062  1.00  0.00    -0.172 A  
HETATM    6  C   UNL     1     -11.634  11.697  63.955  1.00  0.00    -0.309 C  
HETATM    7  C   UNL     1     -10.445  11.617  65.905  1.00  0.00    -0.255 A  
HETATM    8  C   UNL     1     -10.675  11.548  68.675  1.00  0.00    -0.242 A  
HETATM    9  C   UNL     1     -11.467  12.335  66.527  1.00  0.00    -0.381 A  
HETATM   10  C   UNL     1     -12.247  13.007  64.422  1.00  0.00    -0.406 C  
HETATM   11  C   UNL     1      -9.509  10.906  66.660  1.00  0.00    -0.204 A  
HETATM   12  O   UNL     1     -12.429  13.034  65.844  1.00  0.00    -0.469 OA 
HETATM   13  O   UNL     1     -10.337  11.527  64.539  1.00  0.00    -0.262 OA 
HETATM   14  C   UNL     1     -11.569  12.316  67.915  1.00  0.00    -0.416 A  
ENDBRANCH   2   5
ENDBRANCH   1   2
BRANCH   1  15
HETATM   15  N   UNL     1     -10.308   8.189  68.188  1.00  0.00    -0.231 NA 
HETATM   16  H   UNL     1     -11.036   8.878  67.997  1.00  0.00     0.000 HD 
BRANCH  15  17
HETATM   17  C   UNL     1     -10.346   7.117  67.504  1.00  0.00    -0.236 C  
HETATM   18  H   UNL     1     -11.433   5.849  66.330  1.00  0.00     0.000 HD 
HETATM   19  O   UNL     1     -11.404   6.650  66.840  1.00  0.00    -0.333 OA 
BRANCH  17  20
HETATM   20  C   UNL     1      -9.123   6.241  67.402  1.00  0.00    -0.111 C  
BRANCH  20  21
HETATM   21  C   UNL     1      -8.026   6.860  66.542  1.00  0.00    -0.109 C  
BRANCH  21  22
HETATM   22  C   UNL     1      -8.444   7.064  65.084  1.00  0.00    -0.023 C  
BRANCH  22  23
HETATM   23  C   UNL     1      -7.568   6.233  64.145  1.00  0.00    -0.098 C  
BRANCH  23  24
HETATM   24  C   UNL     1      -7.946   4.752  64.179  1.00  0.00    -0.101 C  
BRANCH  24  25
HETATM   25  C   UNL     1      -9.314   4.519  63.537  1.00  0.00    -0.046 C  
HETATM   26  C   UNL     1     -10.256   3.788  64.479  1.00  0.00    -0.209 C  
ENDBRANCH  24  25
ENDBRANCH  23  24
ENDBRANCH  22  23
ENDBRANCH  21  22
ENDBRANCH  20  21
ENDBRANCH  17  20
ENDBRANCH  15  17
ENDBRANCH   1  15
BRANCH   1  27
HETATM   27  C   UNL     1     -10.154   8.484  70.557  1.00  0.00    -0.192 C  
BRANCH  27  28
HETATM   28  N   UNL     1     -11.636   8.410  70.567  1.00  0.00    -0.191 NA 
HETATM   29  C   UNL     1     -12.172   9.387  71.544  1.00  0.00    -0.369 C  
HETATM   30  C   UNL     1     -12.122   7.097  70.996  1.00  0.00    -0.350 C  
HETATM   31  C   UNL     1     -13.327   8.725  72.283  1.00  0.00    -0.460 C  
HETATM   32  C   UNL     1     -13.448   7.341  71.690  1.00  0.00    -0.428 C  
ENDBRANCH  27  28
ENDBRANCH   1  27
TORSDOF 12
ENDMDL
MODEL      263
REMARK 921   NORMALIZED FREE ENERGY PREDICTED BY IDOCK:   -3.95 KCAL/MOL
REMARK 922        TOTAL FREE ENERGY PREDICTED BY IDOCK:   -8.77 KCAL/MOL
REMARK 923 INTER-LIGAND FREE ENERGY PREDICTED BY IDOCK:   -7.17 KCAL/MOL
REMARK 924 INTRA-LIGAND FREE ENERGY PREDICTED BY IDOCK:   -1.59 KCAL/MOL
REMARK 927      BINDING AFFINITY PREDICTED BY RF-SCORE:    0.00 PKD
ROOT
HETATM    1  C   UNL     1     -10.383   9.088  69.208  1.00  0.00    -0.219 C  
ENDROOT
BRANCH   1   2
HETATM    2  C   UNL     1     -10.303   9.146  67.647  1.00  0.00    -0.255 C  
HETATM    3  O   UNL     1     -11.441   9.813  67.087  1.00  0.00    -0.149 OA 
HETATM    4  H   UNL     1     -11.393   9.848  66.138  1.00  0.00     0.000 HD 
BRANCH   2   5
HETATM    5  C   UNL     1     -10.091   7.774  67.002  1.00  0.00    -0.343 A  
HETATM    6  C   UNL     1      -7.027   4.814  65.135  1.00  0.00    -0.062 C  
HETATM    7  C   UNL     1      -8.682   6.296  65.672  1.00  0.00    -0.114 A  
HETATM    8  C   UNL     1     -10.929   6.674  67.265  1.00  0.00    -0.456 A  
HETATM    9  C   UNL     1      -9.527   5.217  65.933  1.00  0.00    -0.142 A  
HETATM   10  C   UNL     1      -8.099   3.828  64.701  1.00  0.00    -0.090 C  
HETATM   11  C   UNL     1      -8.978   7.571  66.162  1.00  0.00    -0.188 A  
HETATM   12  O   UNL     1      -9.283   3.939  65.502  1.00  0.00    -0.136 OA 
HETATM   13  O   UNL     1      -7.505   6.156  64.979  1.00  0.00    -0.073 OA 
HETATM   14  C   UNL     1     -10.663   5.412  66.714  1.00  0.00    -0.289 A  
ENDBRANCH   2   5
ENDBRANCH   1   2
BRANCH   1  15
HETATM   15  N   UNL     1     -10.720  10.435  69.702  1.00  0.00    -0.249 NA 
HETATM   16  H   UNL     1      -9.944  11.090  69.805  1.00  0.00     0.000 HD 
BRANCH  15  17
HETATM   17  C   UNL     1     -11.875  10.868  70.011  1.00  0.00    -0.347 C  
HETATM   18  H   UNL     1     -13.599  10.601  71.073  1.00  0.00     0.000 HD 
HETATM   19  O   UNL     1     -12.735  10.278  70.841  1.00  0.00    -0.332 OA 
BRANCH  17  20
HETATM   20  C   UNL     1     -12.385  12.156  69.414  1.00  0.00     0.014 C  
BRANCH  20  21
HETATM   21  C   UNL     1     -11.853  13.391  70.134  1.00  0.00    -0.342 C  
BRANCH  21  22
HETATM   22  C   UNL     1     -12.958  14.265  70.731  1.00  0.00    -0.368 C  
BRANCH  22  23
HETATM   23  C   UNL     1     -13.479  13.666  72.039  1.00  0.00    -0.573 C  
BRANCH  23  24
HETATM   24  C   UNL     1     -12.864  14.349  73.260  1.00  0.00    -0.413 C  
BRANCH  24  25
HETATM   25  C   UNL     1     -13.225  15.835  73.299  1.00  0.00    -0.687 C  
HETATM   26  C   UNL     1     -12.220  16.633  74.113  1.00  0.00    -0.388 C  
ENDBRANCH  24  25
ENDBRANCH  23  24
ENDBRANCH  22  23
ENDBRANCH  21  22
ENDBRANCH  20  21
ENDBRANCH  17  20
ENDBRANCH  15  17
ENDBRANCH   1  15
BRANCH   1  27
HETATM   27  C   UNL     1      -9.063   8.732  69.976  1.00  0.00    -0.160 C  
BRANCH  27  28
HETATM   28  N   UNL     1      -8.861   7.423  70.645  1.00  0.00    -0.149 NA 
HETATM   29  C   UNL     1      -8.024   6.554  69.784  1.00  0.00    -0.120 C  
HETATM   30  C   UNL     1     -10.119   6.704  70.849  1.00  0.00    -0.187 C  
HETATM   31  C   UNL     1      -8.598   5.145  69.843  1.00  0.00    -0.108 C  
HETATM   32  C   UNL     1      -9.782   5.228  70.778  1.00  0.00    -0.247 C  
ENDBRANCH  27  28
ENDBRANCH   1  27
TORSDOF 12
ENDMDL
MODEL      264
REMARK 921   NORMALIZED FREE ENERGY PREDICTED BY IDOCK:   -3.94 KCAL/MOL
REMARK 922        TOTAL FREE ENERGY PREDICTED BY IDOCK:   -8.77 KCAL/MOL
REMARK 923 INTER-LIGAND FREE ENERGY PREDICTED BY IDOCK:   -8.12 KCAL/MOL
REMARK 924 INTRA-LIGAND FREE ENERGY PREDICTED BY IDOCK:   -0.65 KCAL/MOL
REMARK 927      BINDING AFFINITY PREDICTED BY RF-SCORE:    0.00 PKD
ROOT
HETATM    1  C   UNL     1      -9.802  15.263  66.146  1.00  0.00    -0.307 C  
ENDROOT
BRANCH   1   2
HETATM    2  C   UNL     1      -9.974  14.243  64.973  1.00  0.00    -0.173 C  
HETATM    3  O   UNL     1     -11.174  14.493  64.230  1.00  0.00    -0.604 OA 
HETATM    4  H   UNL     1     -11.279  13.873  63.518  1.00  0.00     0.000 HD 
BRANCH   2   5
HETATM    5  C   UNL     1      -9.896  12.782  65.425  1.00  0.00    -0.143 A  
HETATM    6  C   UNL     1      -8.462   9.830  68.720  1.00  0.00    -0.122 C  
HETATM    7  C   UNL     1      -8.880  11.104  66.870  1.00  0.00    -0.157 A  
HETATM    8  C   UNL     1     -10.837  11.814  65.026  1.00  0.00    -0.350 A  
HETATM    9  C   UNL     1      -9.811  10.150  66.456  1.00  0.00    -0.212 A  
HETATM   10  C   UNL     1      -8.837   8.597  67.914  1.00  0.00    -0.137 C  
HETATM   11  C   UNL     1      -8.890  12.393  66.331  1.00  0.00    -0.048 A  
HETATM   12  O   UNL     1      -9.870   8.877  66.960  1.00  0.00    -0.178 OA 
HETATM   13  O   UNL     1      -7.953  10.848  67.850  1.00  0.00    -0.107 OA 
HETATM   14  C   UNL     1     -10.778  10.502  65.518  1.00  0.00    -0.047 A  
ENDBRANCH   2   5
ENDBRANCH   1   2
BRANCH   1  15
HETATM   15  N   UNL     1     -10.412  14.683  67.354  1.00  0.00    -0.253 NA 
HETATM   16  H   UNL     1      -9.783  14.487  68.134  1.00  0.00     0.000 HD 
BRANCH  15  17
HETATM   17  C   UNL     1     -11.640  14.400  67.529  1.00  0.00    -0.373 C  
HETATM   18  H   UNL     1     -13.489  14.125  66.708  1.00  0.00     0.000 HD 
HETATM   19  O   UNL     1     -12.571  14.336  66.577  1.00  0.00    -0.360 OA 
BRANCH  17  20
HETATM   20  C   UNL     1     -12.159  14.110  68.915  1.00  0.00    -0.339 C  
BRANCH  20  21
HETATM   21  C   UNL     1     -11.415  12.966  69.596  1.00  0.00    -0.251 C  
BRANCH  21  22
HETATM   22  C   UNL     1     -11.808  11.587  69.061  1.00  0.00    -0.408 C  
BRANCH  22  23
HETATM   23  C   UNL     1     -11.745  10.534  70.169  1.00  0.00    -0.410 C  
BRANCH  23  24
HETATM   24  C   UNL     1     -13.132  10.211  70.724  1.00  0.00    -0.351 C  
BRANCH  24  25
HETATM   25  C   UNL     1     -13.326  10.824  72.111  1.00  0.00    -0.314 C  
HETATM   26  C   UNL     1     -13.521  12.329  72.035  1.00  0.00    -0.418 C  
ENDBRANCH  24  25
ENDBRANCH  23  24
ENDBRANCH  22  23
ENDBRANCH  21  22
ENDBRANCH  20  21
ENDBRANCH  17  20
ENDBRANCH  15  17
ENDBRANCH   1  15
BRANCH   1  27
HETATM   27  C   UNL     1     -10.522  16.648  65.995  1.00  0.00    -0.298 C  
BRANCH  27  28
HETATM   28  N   UNL     1     -10.045  17.872  66.684  1.00  0.00    -0.344 NA 
HETATM   29  C   UNL     1     -10.655  19.065  66.051  1.00  0.00    -0.423 C  
HETATM   30  C   UNL     1      -8.596  18.046  66.567  1.00  0.00    -0.258 C  
HETATM   31  C   UNL     1      -9.586  20.145  65.958  1.00  0.00    -0.380 C  
HETATM   32  C   UNL     1      -8.345  19.540  66.573  1.00  0.00    -0.352 C  
ENDBRANCH  27  28
ENDBRANCH   1  27
TORSDOF 12
ENDMDL
MODEL      265
REMARK 921   NORMALIZED FREE ENERGY PREDICTED BY IDOCK:   -3.94 KCAL/MOL
REMARK 922        TOTAL FREE ENERGY PREDICTED BY IDOCK:   -8.76 KCAL/MOL
REMARK 923 INTER-LIGAND FREE ENERGY PREDICTED BY IDOCK:   -7.15 KCAL/MOL
REMARK 924 INTRA-LIGAND FREE ENERGY PREDICTED BY IDOCK:   -1.61 KCAL/MOL
REMARK 927      BINDING AFFINITY PREDICTED BY RF-SCORE:    0.00 PKD
ROOT
HETATM    1  C   UNL     1     -10.096   9.836  67.955  1.00  0.00    -0.173 C  
ENDROOT
BRANCH   1   2
HETATM    2  C   UNL     1     -11.007  10.228  69.164  1.00  0.00    -0.238 C  
HETATM    3  O   UNL     1     -10.578  11.456  69.768  1.00  0.00    -0.446 OA 
HETATM    4  H   UNL     1     -11.132  11.695  70.503  1.00  0.00     0.000 HD 
BRANCH   2   5
HETATM    5  C   UNL     1     -11.141   9.115  70.207  1.00  0.00    -0.272 A  
HETATM    6  C   UNL     1      -9.897   4.808  71.442  1.00  0.00    -0.187 C  
HETATM    7  C   UNL     1     -10.880   6.763  70.782  1.00  0.00    -0.249 A  
HETATM    8  C   UNL     1     -11.430   9.375  71.560  1.00  0.00    -0.467 A  
HETATM    9  C   UNL     1     -11.179   7.032  72.119  1.00  0.00    -0.256 A  
HETATM   10  C   UNL     1     -10.847   4.770  72.628  1.00  0.00    -0.175 C  
HETATM   11  C   UNL     1     -10.903   7.780  69.825  1.00  0.00    -0.211 A  
HETATM   12  O   UNL     1     -11.152   6.085  73.110  1.00  0.00    -0.255 OA 
HETATM   13  O   UNL     1     -10.502   5.515  70.352  1.00  0.00    -0.255 OA 
HETATM   14  C   UNL     1     -11.473   8.338  72.503  1.00  0.00    -0.454 A  
ENDBRANCH   2   5
ENDBRANCH   1   2
BRANCH   1  15
HETATM   15  N   UNL     1      -8.815  10.551  68.092  1.00  0.00    -0.131 NA 
HETATM   16  H   UNL     1      -8.769  11.267  68.817  1.00  0.00     0.000 HD 
BRANCH  15  17
HETATM   17  C   UNL     1      -7.761  10.369  67.404  1.00  0.00    -0.095 C  
HETATM   18  H   UNL     1      -6.466   9.054  66.532  1.00  0.00     0.000 HD 
HETATM   19  O   UNL     1      -7.254   9.189  67.046  1.00  0.00    -0.088 OA 
BRANCH  17  20
HETATM   20  C   UNL     1      -6.957  11.552  66.924  1.00  0.00    -0.134 C  
BRANCH  20  21
HETATM   21  C   UNL     1      -7.134  12.782  67.809  1.00  0.00    -0.132 C  
BRANCH  21  22
HETATM   22  C   UNL     1      -7.956  13.890  67.146  1.00  0.00    -0.072 C  
BRANCH  22  23
HETATM   23  C   UNL     1      -8.572  14.815  68.198  1.00  0.00    -0.159 C  
BRANCH  23  24
HETATM   24  C   UNL     1      -9.315  15.986  67.557  1.00  0.00    -0.217 C  
BRANCH  24  25
HETATM   25  C   UNL     1      -9.755  15.645  66.133  1.00  0.00    -0.348 C  
HETATM   26  C   UNL     1     -10.575  16.766  65.517  1.00  0.00    -0.243 C  
ENDBRANCH  24  25
ENDBRANCH  23  24
ENDBRANCH  22  23
ENDBRANCH  21  22
ENDBRANCH  20  21
ENDBRANCH  17  20
ENDBRANCH  15  17
ENDBRANCH   1  15
BRANCH   1  27
HETATM   27  C   UNL     1     -10.596  10.244  66.525  1.00  0.00    -0.132 C  
BRANCH  27  28
HETATM   28  N   UNL     1     -10.420  11.613  65.982  1.00  0.00    -0.243 NA 
HETATM   29  C   UNL     1     -11.708  12.342  66.057  1.00  0.00    -0.410 C  
HETATM   30  C   UNL     1     -10.039  11.605  64.569  1.00  0.00    -0.278 C  
HETATM   31  C   UNL     1     -11.868  13.145  64.774  1.00  0.00    -0.413 C  
HETATM   32  C   UNL     1     -10.623  12.866  63.964  1.00  0.00    -0.418 C  
ENDBRANCH  27  28
ENDBRANCH   1  27
TORSDOF 12
ENDMDL
MODEL      266
REMARK 921   NORMALIZED FREE ENERGY PREDICTED BY IDOCK:   -3.94 KCAL/MOL
REMARK 922        TOTAL FREE ENERGY PREDICTED BY IDOCK:   -8.76 KCAL/MOL
REMARK 923 INTER-LIGAND FREE ENERGY PREDICTED BY IDOCK:   -7.63 KCAL/MOL
REMARK 924 INTRA-LIGAND FREE ENERGY PREDICTED BY IDOCK:   -1.13 KCAL/MOL
REMARK 927      BINDING AFFINITY PREDICTED BY RF-SCORE:    0.00 PKD
ROOT
HETATM    1  C   UNL     1     -10.509  12.684  67.250  1.00  0.00    -0.228 C  
ENDROOT
BRANCH   1   2
HETATM    2  C   UNL     1     -11.320  14.018  67.161  1.00  0.00    -0.331 C  
HETATM    3  O   UNL     1     -10.709  14.946  66.255  1.00  0.00    -0.305 OA 
HETATM    4  H   UNL     1     -11.202  15.757  66.201  1.00  0.00     0.000 HD 
BRANCH   2   5
HETATM    5  C   UNL     1     -11.576  14.663  68.526  1.00  0.00    -0.346 A  
HETATM    6  C   UNL     1     -13.238  14.069  72.829  1.00  0.00    -0.481 C  
HETATM    7  C   UNL     1     -12.741  14.611  70.665  1.00  0.00    -0.357 A  
HETATM    8  C   UNL     1     -10.798  15.728  69.019  1.00  0.00    -0.248 A  
HETATM    9  C   UNL     1     -11.971  15.675  71.137  1.00  0.00    -0.409 A  
HETATM   10  C   UNL     1     -13.076  15.535  73.197  1.00  0.00    -0.545 C  
HETATM   11  C   UNL     1     -12.580  14.135  69.361  1.00  0.00     0.063 A  
HETATM   12  O   UNL     1     -12.063  16.174  72.410  1.00  0.00    -0.481 OA 
HETATM   13  O   UNL     1     -13.645  13.950  71.460  1.00  0.00    -0.334 OA 
HETATM   14  C   UNL     1     -11.012  16.246  70.304  1.00  0.00    -0.314 A  
ENDBRANCH   2   5
ENDBRANCH   1   2
BRANCH   1  15
HETATM   15  N   UNL     1     -11.465  11.572  67.391  1.00  0.00    -0.481 NA 
HETATM   16  H   UNL     1     -12.254  11.564  66.744  1.00  0.00     0.000 HD 
BRANCH  15  17
HETATM   17  C   UNL     1     -11.410  10.620  68.234  1.00  0.00    -0.289 C  
HETATM   18  H   UNL     1     -11.839   9.943  70.111  1.00  0.00     0.000 HD 
HETATM   19  O   UNL     1     -11.880  10.653  69.482  1.00  0.00    -0.286 OA 
BRANCH  17  20
HETATM   20  C   UNL     1     -10.761   9.312  67.857  1.00  0.00    -0.248 C  
BRANCH  20  21
HETATM   21  C   UNL     1      -9.730   8.850  68.882  1.00  0.00    -0.173 C  
BRANCH  21  22
HETATM   22  C   UNL     1      -8.684   7.898  68.298  1.00  0.00    -0.130 C  
BRANCH  22  23
HETATM   23  C   UNL     1      -9.257   6.488  68.143  1.00  0.00    -0.112 C  
BRANCH  23  24
HETATM   24  C   UNL     1      -9.143   5.683  69.437  1.00  0.00    -0.134 C  
BRANCH  24  25
HETATM   25  C   UNL     1     -10.511   5.174  69.890  1.00  0.00    -0.296 C  
HETATM   26  C   UNL     1     -11.282   6.242  70.647  1.00  0.00    -0.401 C  
ENDBRANCH  24  25
ENDBRANCH  23  24
ENDBRANCH  22  23
ENDBRANCH  21  22
ENDBRANCH  20  21
ENDBRANCH  17  20
ENDBRANCH  15  17
ENDBRANCH   1  15
BRANCH   1  27
HETATM   27  C   UNL     1      -9.555  12.512  68.483  1.00  0.00    -0.110 C  
BRANCH  27  28
HETATM   28  N   UNL     1      -8.177  11.977  68.353  1.00  0.00    -0.159 NA 
HETATM   29  C   UNL     1      -7.201  13.060  68.621  1.00  0.00    -0.101 C  
HETATM   30  C   UNL     1      -7.892  11.499  67.000  1.00  0.00    -0.161 C  
HETATM   31  C   UNL     1      -6.064  12.925  67.618  1.00  0.00    -0.154 C  
HETATM   32  C   UNL     1      -6.410  11.721  66.773  1.00  0.00    -0.083 C  
ENDBRANCH  27  28
ENDBRANCH   1  27
TORSDOF 12
ENDMDL
MODEL      267
REMARK 921   NORMALIZED FREE ENERGY PREDICTED BY IDOCK:   -3.94 KCAL/MOL
REMARK 922        TOTAL FREE ENERGY PREDICTED BY IDOCK:   -8.76 KCAL/MOL
REMARK 923 INTER-LIGAND FREE ENERGY PREDICTED BY IDOCK:   -7.46 KCAL/MOL
REMARK 924 INTRA-LIGAND FREE ENERGY PREDICTED BY IDOCK:   -1.30 KCAL/MOL
REMARK 927      BINDING AFFINITY PREDICTED BY RF-SCORE:    0.00 PKD
ROOT
HETATM    1  C   UNL     1     -10.939  13.750  68.777  1.00  0.00    -0.264 C  
ENDROOT
BRANCH   1   2
HETATM    2  C   UNL     1     -11.665  14.506  67.616  1.00  0.00    -0.382 C  
HETATM    3  O   UNL     1     -11.940  13.634  66.512  1.00  0.00    -0.381 OA 
HETATM    4  H   UNL     1     -12.381  14.093  65.806  1.00  0.00     0.000 HD 
BRANCH   2   5
HETATM    5  C   UNL     1     -10.924  15.765  67.157  1.00  0.00    -0.244 A  
HETATM    6  C   UNL     1      -8.774  19.675  68.467  1.00  0.00    -0.299 C  
HETATM    7  C   UNL     1     -10.115  18.005  67.670  1.00  0.00    -0.347 A  
HETATM    8  C   UNL     1     -10.203  15.822  65.950  1.00  0.00    -0.377 A  
HETATM    9  C   UNL     1      -9.414  18.053  66.465  1.00  0.00    -0.301 A  
HETATM   10  C   UNL     1      -8.610  20.176  67.041  1.00  0.00    -0.336 C  
HETATM   11  C   UNL     1     -10.898  16.895  67.998  1.00  0.00    -0.338 A  
HETATM   12  O   UNL     1      -8.611  19.100  66.093  1.00  0.00    -0.385 OA 
HETATM   13  O   UNL     1     -10.033  19.005  68.608  1.00  0.00    -0.383 OA 
HETATM   14  C   UNL     1      -9.475  16.967  65.596  1.00  0.00     0.135 A  
ENDBRANCH   2   5
ENDBRANCH   1   2
BRANCH   1  15
HETATM   15  N   UNL     1     -10.330  12.530  68.221  1.00  0.00    -0.231 NA 
HETATM   16  H   UNL     1     -10.937  11.713  68.141  1.00  0.00     0.000 HD 
BRANCH  15  17
HETATM   17  C   UNL     1      -9.128  12.386  67.830  1.00  0.00    -0.193 C  
HETATM   18  H   UNL     1      -7.731  12.695  66.373  1.00  0.00     0.000 HD 
HETATM   19  O   UNL     1      -8.629  12.803  66.666  1.00  0.00    -0.136 OA 
BRANCH  17  20
HETATM   20  C   UNL     1      -8.125  11.680  68.709  1.00  0.00    -0.072 C  
BRANCH  20  21
HETATM   21  C   UNL     1      -7.588  10.399  68.079  1.00  0.00    -0.091 C  
BRANCH  21  22
HETATM   22  C   UNL     1      -8.049   9.132  68.801  1.00  0.00    -0.101 C  
BRANCH  22  23
HETATM   23  C   UNL     1      -9.351   9.382  69.564  1.00  0.00    -0.187 C  
BRANCH  23  24
HETATM   24  C   UNL     1     -10.551   8.749  68.861  1.00  0.00    -0.178 C  
BRANCH  24  25
HETATM   25  C   UNL     1     -10.217   8.401  67.409  1.00  0.00    -0.328 C  
HETATM   26  C   UNL     1     -10.701   9.477  66.451  1.00  0.00     0.044 C  
ENDBRANCH  24  25
ENDBRANCH  23  24
ENDBRANCH  22  23
ENDBRANCH  21  22
ENDBRANCH  20  21
ENDBRANCH  17  20
ENDBRANCH  15  17
ENDBRANCH   1  15
BRANCH   1  27
HETATM   27  C   UNL     1     -11.835  13.216  69.948  1.00  0.00    -0.308 C  
BRANCH  27  28
HETATM   28  N   UNL     1     -12.985  13.985  70.484  1.00  0.00    -0.218 NA 
HETATM   29  C   UNL     1     -12.514  15.307  70.961  1.00  0.00    -0.384 C  
HETATM   30  C   UNL     1     -13.601  13.331  71.640  1.00  0.00    -0.185 C  
HETATM   31  C   UNL     1     -13.236  15.619  72.265  1.00  0.00    -0.558 C  
HETATM   32  C   UNL     1     -14.149  14.441  72.514  1.00  0.00    -0.433 C  
ENDBRANCH  27  28
ENDBRANCH   1  27
TORSDOF 12
ENDMDL
MODEL      268
REMARK 921   NORMALIZED FREE ENERGY PREDICTED BY IDOCK:   -3.92 KCAL/MOL
REMARK 922        TOTAL FREE ENERGY PREDICTED BY IDOCK:   -8.73 KCAL/MOL
REMARK 923 INTER-LIGAND FREE ENERGY PREDICTED BY IDOCK:   -6.98 KCAL/MOL
REMARK 924 INTRA-LIGAND FREE ENERGY PREDICTED BY IDOCK:   -1.75 KCAL/MOL
REMARK 927      BINDING AFFINITY PREDICTED BY RF-SCORE:    0.00 PKD
ROOT
HETATM    1  C   UNL     1     -10.805  10.486  69.146  1.00  0.00    -0.237 C  
ENDROOT
BRANCH   1   2
HETATM    2  C   UNL     1     -10.117  10.214  67.767  1.00  0.00    -0.180 C  
HETATM    3  O   UNL     1     -10.952  10.620  66.674  1.00  0.00    -0.190 OA 
HETATM    4  H   UNL     1     -10.534  10.455  65.837  1.00  0.00     0.000 HD 
BRANCH   2   5
HETATM    5  C   UNL     1      -9.648   8.767  67.599  1.00  0.00    -0.179 A  
HETATM    6  C   UNL     1     -10.490   4.637  65.633  1.00  0.00    -0.227 C  
HETATM    7  C   UNL     1     -10.164   6.476  66.950  1.00  0.00    -0.215 A  
HETATM    8  C   UNL     1      -8.297   8.388  67.716  1.00  0.00    -0.130 A  
HETATM    9  C   UNL     1      -8.823   6.112  67.081  1.00  0.00    -0.108 A  
HETATM   10  C   UNL     1      -9.366   3.942  66.384  1.00  0.00    -0.182 C  
HETATM   11  C   UNL     1     -10.585   7.775  67.247  1.00  0.00    -0.376 A  
HETATM   12  O   UNL     1      -8.342   4.863  66.785  1.00  0.00    -0.107 OA 
HETATM   13  O   UNL     1     -11.118   5.607  66.480  1.00  0.00    -0.194 OA 
HETATM   14  C   UNL     1      -7.893   7.066  67.484  1.00  0.00    -0.112 A  
ENDBRANCH   2   5
ENDBRANCH   1   2
BRANCH   1  15
HETATM   15  N   UNL     1     -10.709  11.928  69.432  1.00  0.00    -0.450 NA 
HETATM   16  H   UNL     1      -9.772  12.332  69.425  1.00  0.00     0.000 HD 
BRANCH  15  17
HETATM   17  C   UNL     1     -11.670  12.722  69.686  1.00  0.00    -0.302 C  
HETATM   18  H   UNL     1     -13.090  13.356  71.008  1.00  0.00     0.000 HD 
HETATM   19  O   UNL     1     -12.372  12.762  70.819  1.00  0.00    -0.368 OA 
BRANCH  17  20
HETATM   20  C   UNL     1     -12.113  13.727  68.653  1.00  0.00    -0.333 C  
BRANCH  20  21
HETATM   21  C   UNL     1     -11.624  15.139  68.957  1.00  0.00    -0.350 C  
BRANCH  21  22
HETATM   22  C   UNL     1     -10.376  15.531  68.162  1.00  0.00    -0.237 C  
BRANCH  22  23
HETATM   23  C   UNL     1      -9.292  16.086  69.088  1.00  0.00    -0.251 C  
BRANCH  23  24
HETATM   24  C   UNL     1      -8.161  15.081  69.302  1.00  0.00    -0.178 C  
BRANCH  24  25
HETATM   25  C   UNL     1      -8.098  14.071  68.156  1.00  0.00    -0.151 C  
HETATM   26  C   UNL     1      -6.675  13.609  67.895  1.00  0.00    -0.156 C  
ENDBRANCH  24  25
ENDBRANCH  23  24
ENDBRANCH  22  23
ENDBRANCH  21  22
ENDBRANCH  20  21
ENDBRANCH  17  20
ENDBRANCH  15  17
ENDBRANCH   1  15
BRANCH   1  27
HETATM   27  C   UNL     1     -10.159   9.814  70.407  1.00  0.00    -0.252 C  
BRANCH  27  28
HETATM   28  N   UNL     1     -10.915   8.893  71.292  1.00  0.00    -0.267 NA 
HETATM   29  C   UNL     1     -10.579   7.492  70.946  1.00  0.00    -0.220 C  
HETATM   30  C   UNL     1     -12.362   9.019  71.117  1.00  0.00    -0.251 C  
HETATM   31  C   UNL     1     -11.863   6.675  70.998  1.00  0.00    -0.427 C  
HETATM   32  C   UNL     1     -12.946   7.650  71.400  1.00  0.00    -0.350 C  
ENDBRANCH  27  28
ENDBRANCH   1  27
TORSDOF 12
ENDMDL
MODEL      269
REMARK 921   NORMALIZED FREE ENERGY PREDICTED BY IDOCK:   -3.92 KCAL/MOL
REMARK 922        TOTAL FREE ENERGY PREDICTED BY IDOCK:   -8.73 KCAL/MOL
REMARK 923 INTER-LIGAND FREE ENERGY PREDICTED BY IDOCK:   -6.75 KCAL/MOL
REMARK 924 INTRA-LIGAND FREE ENERGY PREDICTED BY IDOCK:   -1.97 KCAL/MOL
REMARK 927      BINDING AFFINITY PREDICTED BY RF-SCORE:    0.00 PKD
ROOT
HETATM    1  C   UNL     1      -8.581  12.966  67.894  1.00  0.00    -0.185 C  
ENDROOT
BRANCH   1   2
HETATM    2  C   UNL     1      -7.210  12.212  67.872  1.00  0.00    -0.102 C  
HETATM    3  O   UNL     1      -6.653  12.174  66.551  1.00  0.00    -0.407 OA 
HETATM    4  H   UNL     1      -5.820  11.716  66.537  1.00  0.00     0.000 HD 
BRANCH   2   5
HETATM    5  C   UNL     1      -7.279  10.811  68.486  1.00  0.00    -0.088 A  
HETATM    6  C   UNL     1      -8.311   8.292  72.256  1.00  0.00    -0.169 C  
HETATM    7  C   UNL     1      -7.418   9.419  70.480  1.00  0.00    -0.145 A  
HETATM    8  C   UNL     1      -7.474   9.652  67.710  1.00  0.00    -0.087 A  
HETATM    9  C   UNL     1      -7.598   8.277  69.699  1.00  0.00    -0.094 A  
HETATM   10  C   UNL     1      -7.793   6.997  71.651  1.00  0.00    -0.098 C  
HETATM   11  C   UNL     1      -7.217  10.668  69.886  1.00  0.00    -0.109 A  
HETATM   12  O   UNL     1      -7.823   7.028  70.218  1.00  0.00    -0.101 OA 
HETATM   13  O   UNL     1      -7.482   9.388  71.852  1.00  0.00    -0.251 OA 
HETATM   14  C   UNL     1      -7.606   8.393  68.311  1.00  0.00    -0.098 A  
ENDBRANCH   2   5
ENDBRANCH   1   2
BRANCH   1  15
HETATM   15  N   UNL     1      -9.597  12.090  67.286  1.00  0.00    -0.181 NA 
HETATM   16  H   UNL     1      -9.286  11.497  66.516  1.00  0.00     0.000 HD 
BRANCH  15  17
HETATM   17  C   UNL     1     -10.821  11.994  67.619  1.00  0.00    -0.231 C  
HETATM   18  H   UNL     1     -12.759  11.719  67.037  1.00  0.00     0.000 HD 
HETATM   19  O   UNL     1     -11.844  11.791  66.788  1.00  0.00    -0.586 OA 
BRANCH  17  20
HETATM   20  C   UNL     1     -11.224  12.122  69.067  1.00  0.00    -0.314 C  
BRANCH  20  21
HETATM   21  C   UNL     1     -11.977  10.899  69.579  1.00  0.00    -0.401 C  
BRANCH  21  22
HETATM   22  C   UNL     1     -11.078   9.899  70.310  1.00  0.00    -0.368 C  
BRANCH  22  23
HETATM   23  C   UNL     1     -11.383   8.467  69.867  1.00  0.00     0.062 C  
BRANCH  23  24
HETATM   24  C   UNL     1     -11.516   7.520  71.060  1.00  0.00    -0.299 C  
BRANCH  24  25
HETATM   25  C   UNL     1     -11.200   6.080  70.657  1.00  0.00    -0.347 C  
HETATM   26  C   UNL     1     -10.830   5.979  69.186  1.00  0.00    -0.422 C  
ENDBRANCH  24  25
ENDBRANCH  23  24
ENDBRANCH  22  23
ENDBRANCH  21  22
ENDBRANCH  20  21
ENDBRANCH  17  20
ENDBRANCH  15  17
ENDBRANCH   1  15
BRANCH   1  27
HETATM   27  C   UNL     1      -8.680  14.287  67.056  1.00  0.00    -0.212 C  
BRANCH  27  28
HETATM   28  N   UNL     1      -9.833  15.214  67.166  1.00  0.00    -0.227 NA 
HETATM   29  C   UNL     1      -9.866  16.103  65.981  1.00  0.00    -0.347 C  
HETATM   30  C   UNL     1      -9.728  16.094  68.331  1.00  0.00    -0.219 C  
HETATM   31  C   UNL     1     -10.228  17.504  66.455  1.00  0.00    -0.342 C  
HETATM   32  C   UNL     1     -10.417  17.389  67.950  1.00  0.00    -0.383 C  
ENDBRANCH  27  28
ENDBRANCH   1  27
TORSDOF 12
ENDMDL
MODEL      270
REMARK 921   NORMALIZED FREE ENERGY PREDICTED BY IDOCK:   -3.92 KCAL/MOL
REMARK 922        TOTAL FREE ENERGY PREDICTED BY IDOCK:   -8.72 KCAL/MOL
REMARK 923 INTER-LIGAND FREE ENERGY PREDICTED BY IDOCK:   -7.87 KCAL/MOL
REMARK 924 INTRA-LIGAND FREE ENERGY PREDICTED BY IDOCK:   -0.84 KCAL/MOL
REMARK 927      BINDING AFFINITY PREDICTED BY RF-SCORE:    0.00 PKD
ROOT
HETATM    1  C   UNL     1     -10.330  13.551  67.848  1.00  0.00    -0.249 C  
ENDROOT
BRANCH   1   2
HETATM    2  C   UNL     1     -10.909  12.632  66.723  1.00  0.00    -0.250 C  
HETATM    3  O   UNL     1     -12.341  12.583  66.769  1.00  0.00    -0.457 OA 
HETATM    4  H   UNL     1     -12.694  12.025  66.085  1.00  0.00     0.000 HD 
BRANCH   2   5
HETATM    5  C   UNL     1     -10.307  11.225  66.720  1.00  0.00    -0.278 A  
HETATM    6  C   UNL     1      -6.413   8.689  66.919  1.00  0.00    -0.061 C  
HETATM    7  C   UNL     1      -8.351   9.800  66.436  1.00  0.00    -0.120 A  
HETATM    8  C   UNL     1     -11.015  10.095  67.174  1.00  0.00    -0.204 A  
HETATM    9  C   UNL     1      -9.068   8.687  66.877  1.00  0.00    -0.144 A  
HETATM   10  C   UNL     1      -7.138   7.380  66.651  1.00  0.00    -0.075 C  
HETATM   11  C   UNL     1      -8.969  11.047  66.315  1.00  0.00    -0.195 A  
HETATM   12  O   UNL     1      -8.517   7.443  67.039  1.00  0.00    -0.115 OA 
HETATM   13  O   UNL     1      -7.008   9.743  66.153  1.00  0.00    -0.089 OA 
HETATM   14  C   UNL     1     -10.408   8.833  67.227  1.00  0.00    -0.360 A  
ENDBRANCH   2   5
ENDBRANCH   1   2
BRANCH   1  15
HETATM   15  N   UNL     1     -10.513  12.867  69.140  1.00  0.00    -0.433 NA 
HETATM   16  H   UNL     1      -9.687  12.421  69.541  1.00  0.00     0.000 HD 
BRANCH  15  17
HETATM   17  C   UNL     1     -11.591  12.773  69.809  1.00  0.00    -0.218 C  
HETATM   18  H   UNL     1     -13.013  13.702  70.942  1.00  0.00     0.000 HD 
HETATM   19  O   UNL     1     -12.208  13.772  70.442  1.00  0.00    -0.325 OA 
BRANCH  17  20
HETATM   20  C   UNL     1     -12.282  11.440  69.948  1.00  0.00    -0.346 C  
BRANCH  20  21
HETATM   21  C   UNL     1     -12.670  11.125  71.389  1.00  0.00    -0.524 C  
BRANCH  21  22
HETATM   22  C   UNL     1     -12.907   9.634  71.639  1.00  0.00    -0.499 C  
BRANCH  22  23
HETATM   23  C   UNL     1     -11.613   8.940  72.068  1.00  0.00    -0.435 C  
BRANCH  23  24
HETATM   24  C   UNL     1     -11.008   8.115  70.933  1.00  0.00    -0.266 C  
BRANCH  24  25
HETATM   25  C   UNL     1     -10.555   6.743  71.432  1.00  0.00    -0.247 C  
HETATM   26  C   UNL     1     -11.694   5.985  72.094  1.00  0.00    -0.335 C  
ENDBRANCH  24  25
ENDBRANCH  23  24
ENDBRANCH  22  23
ENDBRANCH  21  22
ENDBRANCH  20  21
ENDBRANCH  17  20
ENDBRANCH  15  17
ENDBRANCH   1  15
BRANCH   1  27
HETATM   27  C   UNL     1     -11.027  14.939  68.062  1.00  0.00    -0.279 C  
BRANCH  27  28
HETATM   28  N   UNL     1     -10.323  16.098  68.664  1.00  0.00    -0.240 NA 
HETATM   29  C   UNL     1     -10.631  17.321  67.886  1.00  0.00    -0.384 C  
HETATM   30  C   UNL     1      -8.868  15.946  68.622  1.00  0.00    -0.206 C  
HETATM   31  C   UNL     1      -9.350  18.133  67.761  1.00  0.00    -0.268 C  
HETATM   32  C   UNL     1      -8.297  17.345  68.505  1.00  0.00    -0.271 C  
ENDBRANCH  27  28
ENDBRANCH   1  27
TORSDOF 12
ENDMDL
MODEL      271
REMARK 921   NORMALIZED FREE ENERGY PREDICTED BY IDOCK:   -3.90 KCAL/MOL
REMARK 922        TOTAL FREE ENERGY PREDICTED BY IDOCK:   -8.70 KCAL/MOL
REMARK 923 INTER-LIGAND FREE ENERGY PREDICTED BY IDOCK:   -8.13 KCAL/MOL
REMARK 924 INTRA-LIGAND FREE ENERGY PREDICTED BY IDOCK:   -0.57 KCAL/MOL
REMARK 927      BINDING AFFINITY PREDICTED BY RF-SCORE:    0.00 PKD
ROOT
HETATM    1  C   UNL     1      -8.937   7.166  67.708  1.00  0.00    -0.122 C  
ENDROOT
BRANCH   1   2
HETATM    2  C   UNL     1     -10.389   7.749  67.692  1.00  0.00    -0.239 C  
HETATM    3  O   UNL     1     -11.288   6.902  66.964  1.00  0.00    -0.652 OA 
HETATM    4  H   UNL     1     -12.170   7.256  66.954  1.00  0.00     0.000 HD 
BRANCH   2   5
HETATM    5  C   UNL     1     -10.456   9.192  67.186  1.00  0.00    -0.325 A  
HETATM    6  C   UNL     1     -10.760  11.973  63.470  1.00  0.00    -0.455 C  
HETATM    7  C   UNL     1     -10.233  10.759  65.333  1.00  0.00    -0.276 A  
HETATM    8  C   UNL     1     -10.972  10.246  67.964  1.00  0.00    -0.345 A  
HETATM    9  C   UNL     1     -10.735  11.796  66.119  1.00  0.00    -0.277 A  
HETATM   10  C   UNL     1     -10.565  13.242  64.284  1.00  0.00    -0.384 C  
HETATM   11  C   UNL     1     -10.051   9.480  65.867  1.00  0.00    -0.284 A  
HETATM   12  O   UNL     1     -10.958  13.066  65.651  1.00  0.00    -0.271 OA 
HETATM   13  O   UNL     1      -9.944  10.921  64.000  1.00  0.00    -0.286 OA 
HETATM   14  C   UNL     1     -11.087  11.542  67.442  1.00  0.00    -0.339 A  
ENDBRANCH   2   5
ENDBRANCH   1   2
BRANCH   1  15
HETATM   15  N   UNL     1      -8.847   6.187  68.805  1.00  0.00    -0.121 NA 
HETATM   16  H   UNL     1      -8.010   6.232  69.388  1.00  0.00     0.000 HD 
BRANCH  15  17
HETATM   17  C   UNL     1      -9.701   5.293  69.104  1.00  0.00    -0.168 C  
HETATM   18  H   UNL     1     -10.726   3.619  68.542  1.00  0.00     0.000 HD 
HETATM   19  O   UNL     1     -10.087   4.287  68.319  1.00  0.00    -0.021 OA 
BRANCH  17  20
HETATM   20  C   UNL     1     -10.385   5.319  70.448  1.00  0.00    -0.345 C  
BRANCH  20  21
HETATM   21  C   UNL     1     -11.535   6.319  70.505  1.00  0.00    -0.407 C  
BRANCH  21  22
HETATM   22  C   UNL     1     -12.138   6.467  71.903  1.00  0.00    -0.388 C  
BRANCH  22  23
HETATM   23  C   UNL     1     -11.635   7.743  72.581  1.00  0.00    -0.398 C  
BRANCH  23  24
HETATM   24  C   UNL     1     -11.751   8.958  71.662  1.00  0.00    -0.411 C  
BRANCH  24  25
HETATM   25  C   UNL     1     -13.035   9.739  71.943  1.00  0.00    -0.535 C  
HETATM   26  C   UNL     1     -12.956  11.157  71.402  1.00  0.00    -0.506 C  
ENDBRANCH  24  25
ENDBRANCH  23  24
ENDBRANCH  22  23
ENDBRANCH  21  22
ENDBRANCH  20  21
ENDBRANCH  17  20
ENDBRANCH  15  17
ENDBRANCH   1  15
BRANCH   1  27
HETATM   27  C   UNL     1      -7.771   8.170  68.010  1.00  0.00    -0.114 C  
BRANCH  27  28
HETATM   28  N   UNL     1      -7.732   8.997  69.241  1.00  0.00    -0.088 NA 
HETATM   29  C   UNL     1      -6.335   9.096  69.725  1.00  0.00    -0.039 C  
HETATM   30  C   UNL     1      -8.499   8.399  70.335  1.00  0.00    -0.130 C  
HETATM   31  C   UNL     1      -6.354   8.975  71.242  1.00  0.00    -0.075 C  
HETATM   32  C   UNL     1      -7.809   8.819  71.617  1.00  0.00    -0.124 C  
ENDBRANCH  27  28
ENDBRANCH   1  27
TORSDOF 12
ENDMDL
MODEL      272
REMARK 921   NORMALIZED FREE ENERGY PREDICTED BY IDOCK:   -3.90 KCAL/MOL
REMARK 922        TOTAL FREE ENERGY PREDICTED BY IDOCK:   -8.69 KCAL/MOL
REMARK 923 INTER-LIGAND FREE ENERGY PREDICTED BY IDOCK:   -7.40 KCAL/MOL
REMARK 924 INTRA-LIGAND FREE ENERGY PREDICTED BY IDOCK:   -1.29 KCAL/MOL
REMARK 927      BINDING AFFINITY PREDICTED BY RF-SCORE:    0.00 PKD
ROOT
HETATM    1  C   UNL     1     -10.398   9.503  68.804  1.00  0.00    -0.208 C  
ENDROOT
BRANCH   1   2
HETATM    2  C   UNL     1      -9.381   9.403  69.988  1.00  0.00    -0.226 C  
HETATM    3  O   UNL     1      -8.377  10.423  69.905  1.00  0.00    -0.367 OA 
HETATM    4  H   UNL     1      -7.758  10.363  70.624  1.00  0.00     0.000 HD 
BRANCH   2   5
HETATM    5  C   UNL     1      -8.751   8.015  70.129  1.00  0.00    -0.135 A  
HETATM    6  C   UNL     1      -9.504   3.493  70.915  1.00  0.00    -0.166 C  
HETATM    7  C   UNL     1      -8.949   5.710  70.894  1.00  0.00    -0.140 A  
HETATM    8  C   UNL     1      -7.546   7.661  69.495  1.00  0.00    -0.098 A  
HETATM    9  C   UNL     1      -7.746   5.376  70.269  1.00  0.00    -0.077 A  
HETATM   10  C   UNL     1      -8.023   3.158  70.972  1.00  0.00    -0.054 C  
HETATM   11  C   UNL     1      -9.428   7.022  70.865  1.00  0.00    -0.160 A  
HETATM   12  O   UNL     1      -7.232   4.105  70.241  1.00  0.00    -0.041 OA 
HETATM   13  O   UNL     1      -9.739   4.774  71.513  1.00  0.00    -0.156 OA 
HETATM   14  C   UNL     1      -7.035   6.358  69.586  1.00  0.00    -0.071 A  
ENDBRANCH   2   5
ENDBRANCH   1   2
BRANCH   1  15
HETATM   15  N   UNL     1     -11.710   9.884  69.355  1.00  0.00    -0.462 NA 
HETATM   16  H   UNL     1     -12.495   9.272  69.127  1.00  0.00     0.000 HD 
BRANCH  15  17
HETATM   17  C   UNL     1     -11.969  10.893  70.085  1.00  0.00    -0.352 C  
HETATM   18  H   UNL     1     -12.657  11.611  71.868  1.00  0.00     0.000 HD 
HETATM   19  O   UNL     1     -12.464  10.856  71.322  1.00  0.00    -0.370 OA 
BRANCH  17  20
HETATM   20  C   UNL     1     -11.725  12.287  69.563  1.00  0.00    -0.398 C  
BRANCH  20  21
HETATM   21  C   UNL     1     -12.291  13.366  70.479  1.00  0.00    -0.401 C  
BRANCH  21  22
HETATM   22  C   UNL     1     -11.595  14.720  70.320  1.00  0.00    -0.333 C  
BRANCH  22  23
HETATM   23  C   UNL     1     -12.332  15.807  71.104  1.00  0.00    -0.480 C  
BRANCH  23  24
HETATM   24  C   UNL     1     -13.548  15.249  71.841  1.00  0.00    -0.575 C  
BRANCH  24  25
HETATM   25  C   UNL     1     -13.192  14.865  73.277  1.00  0.00    -0.501 C  
HETATM   26  C   UNL     1     -12.288  15.900  73.925  1.00  0.00    -0.712 C  
ENDBRANCH  24  25
ENDBRANCH  23  24
ENDBRANCH  22  23
ENDBRANCH  21  22
ENDBRANCH  20  21
ENDBRANCH  17  20
ENDBRANCH  15  17
ENDBRANCH   1  15
BRANCH   1  27
HETATM   27  C   UNL     1     -10.698   8.183  68.010  1.00  0.00    -0.044 C  
BRANCH  27  28
HETATM   28  N   UNL     1     -10.146   7.926  66.658  1.00  0.00    -0.261 NA 
HETATM   29  C   UNL     1      -9.512   6.587  66.631  1.00  0.00    -0.159 C  
HETATM   30  C   UNL     1      -9.097   8.880  66.296  1.00  0.00    -0.190 C  
HETATM   31  C   UNL     1      -8.221   6.695  65.831  1.00  0.00    -0.132 C  
HETATM   32  C   UNL     1      -8.141   8.136  65.384  1.00  0.00    -0.130 C  
ENDBRANCH  27  28
ENDBRANCH   1  27
TORSDOF 12
ENDMDL
MODEL      273
REMARK 921   NORMALIZED FREE ENERGY PREDICTED BY IDOCK:   -3.86 KCAL/MOL
REMARK 922        TOTAL FREE ENERGY PREDICTED BY IDOCK:   -8.62 KCAL/MOL
REMARK 923 INTER-LIGAND FREE ENERGY PREDICTED BY IDOCK:   -7.56 KCAL/MOL
REMARK 924 INTRA-LIGAND FREE ENERGY PREDICTED BY IDOCK:   -1.07 KCAL/MOL
REMARK 927      BINDING AFFINITY PREDICTED BY RF-SCORE:    0.00 PKD
ROOT
HETATM    1  C   UNL     1     -10.233  11.315  67.966  1.00  0.00    -0.183 C  
ENDROOT
BRANCH   1   2
HETATM    2  C   UNL     1     -11.211  12.525  67.801  1.00  0.00    -0.269 C  
HETATM    3  O   UNL     1     -12.240  12.242  66.844  1.00  0.00    -0.530 OA 
HETATM    4  H   UNL     1     -12.835  12.977  66.744  1.00  0.00     0.000 HD 
BRANCH   2   5
HETATM    5  C   UNL     1     -10.497  13.840  67.474  1.00  0.00    -0.245 A  
HETATM    6  C   UNL     1      -9.981  18.330  68.569  1.00  0.00    -0.393 C  
HETATM    7  C   UNL     1     -10.406  16.265  67.688  1.00  0.00    -0.284 A  
HETATM    8  C   UNL     1      -9.224  13.883  66.875  1.00  0.00    -0.269 A  
HETATM    9  C   UNL     1      -9.149  16.295  67.081  1.00  0.00    -0.202 A  
HETATM   10  C   UNL     1      -9.085  18.618  67.375  1.00  0.00    -0.279 C  
HETATM   11  C   UNL     1     -11.096  15.060  67.845  1.00  0.00    -0.310 A  
HETATM   12  O   UNL     1      -8.411  17.438  66.917  1.00  0.00    -0.214 OA 
HETATM   13  O   UNL     1     -10.999  17.392  68.202  1.00  0.00    -0.334 OA 
HETATM   14  C   UNL     1      -8.568  15.103  66.657  1.00  0.00    -0.279 A  
ENDBRANCH   2   5
ENDBRANCH   1   2
BRANCH   1  15
HETATM   15  N   UNL     1     -10.113  10.640  66.662  1.00  0.00    -0.212 NA 
HETATM   16  H   UNL     1     -10.935  10.667  66.057  1.00  0.00     0.000 HD 
BRANCH  15  17
HETATM   17  C   UNL     1      -9.094  10.026  66.210  1.00  0.00    -0.151 C  
HETATM   18  H   UNL     1      -7.113  10.083  65.721  1.00  0.00     0.000 HD 
HETATM   19  O   UNL     1      -7.874  10.542  66.059  1.00  0.00    -0.137 OA 
BRANCH  17  20
HETATM   20  C   UNL     1      -9.209   8.585  65.779  1.00  0.00    -0.210 C  
BRANCH  20  21
HETATM   21  C   UNL     1      -8.481   7.630  66.719  1.00  0.00    -0.127 C  
BRANCH  21  22
HETATM   22  C   UNL     1      -9.419   6.897  67.680  1.00  0.00    -0.133 C  
BRANCH  22  23
HETATM   23  C   UNL     1      -9.179   5.387  67.632  1.00  0.00    -0.116 C  
BRANCH  23  24
HETATM   24  C   UNL     1     -10.023   4.713  66.551  1.00  0.00    -0.265 C  
BRANCH  24  25
HETATM   25  C   UNL     1      -9.194   4.440  65.296  1.00  0.00    -0.155 C  
HETATM   26  C   UNL     1      -9.406   3.026  64.782  1.00  0.00    -0.148 C  
ENDBRANCH  24  25
ENDBRANCH  23  24
ENDBRANCH  22  23
ENDBRANCH  21  22
ENDBRANCH  20  21
ENDBRANCH  17  20
ENDBRANCH  15  17
ENDBRANCH   1  15
BRANCH   1  27
HETATM   27  C   UNL     1     -10.678  10.168  68.938  1.00  0.00    -0.223 C  
BRANCH  27  28
HETATM   28  N   UNL     1     -11.146  10.435  70.320  1.00  0.00    -0.305 NA 
HETATM   29  C   UNL     1     -10.713   9.331  71.209  1.00  0.00    -0.352 C  
HETATM   30  C   UNL     1     -12.606  10.482  70.413  1.00  0.00    -0.286 C  
HETATM   31  C   UNL     1     -11.859   9.017  72.160  1.00  0.00    -0.384 C  
HETATM   32  C   UNL     1     -12.960   9.987  71.801  1.00  0.00    -0.560 C  
ENDBRANCH  27  28
ENDBRANCH   1  27
TORSDOF 12
ENDMDL
MODEL      274
REMARK 921   NORMALIZED FREE ENERGY PREDICTED BY IDOCK:   -3.85 KCAL/MOL
REMARK 922        TOTAL FREE ENERGY PREDICTED BY IDOCK:   -8.61 KCAL/MOL
REMARK 923 INTER-LIGAND FREE ENERGY PREDICTED BY IDOCK:   -7.36 KCAL/MOL
REMARK 924 INTRA-LIGAND FREE ENERGY PREDICTED BY IDOCK:   -1.26 KCAL/MOL
REMARK 927      BINDING AFFINITY PREDICTED BY RF-SCORE:    0.00 PKD
ROOT
HETATM    1  C   UNL     1     -10.697  11.798  66.708  1.00  0.00    -0.253 C  
ENDROOT
BRANCH   1   2
HETATM    2  C   UNL     1     -11.912  12.612  66.151  1.00  0.00    -0.395 C  
HETATM    3  O   UNL     1     -12.406  12.048  64.929  1.00  0.00    -0.367 OA 
HETATM    4  H   UNL     1     -13.144  12.542  64.590  1.00  0.00     0.000 HD 
BRANCH   2   5
HETATM    5  C   UNL     1     -11.617  14.106  65.992  1.00  0.00    -0.364 A  
HETATM    6  C   UNL     1     -10.132  17.992  68.071  1.00  0.00    -0.365 C  
HETATM    7  C   UNL     1     -11.225  16.271  67.039  1.00  0.00     0.141 A  
HETATM    8  C   UNL     1     -11.266  14.683  64.757  1.00  0.00    -0.395 A  
HETATM    9  C   UNL     1     -10.891  16.832  65.806  1.00  0.00    -0.087 A  
HETATM   10  C   UNL     1     -10.461  18.872  66.875  1.00  0.00    -0.427 C  
HETATM   11  C   UNL     1     -11.626  14.935  67.131  1.00  0.00    -0.327 A  
HETATM   12  O   UNL     1     -10.468  18.127  65.650  1.00  0.00    -0.626 OA 
HETATM   13  O   UNL     1     -11.127  16.971  68.216  1.00  0.00    -0.337 OA 
HETATM   14  C   UNL     1     -10.931  16.041  64.661  1.00  0.00    -0.297 A  
ENDBRANCH   2   5
ENDBRANCH   1   2
BRANCH   1  15
HETATM   15  N   UNL     1     -11.173  10.972  67.831  1.00  0.00    -0.292 NA 
HETATM   16  H   UNL     1     -12.064  11.243  68.251  1.00  0.00     0.000 HD 
BRANCH  15  17
HETATM   17  C   UNL     1     -10.593   9.957  68.333  1.00  0.00    -0.222 C  
HETATM   18  H   UNL     1      -9.581   9.143  69.908  1.00  0.00     0.000 HD 
HETATM   19  O   UNL     1     -10.015   9.901  69.533  1.00  0.00    -0.195 OA 
BRANCH  17  20
HETATM   20  C   UNL     1     -10.507   8.671  67.550  1.00  0.00    -0.335 C  
BRANCH  20  21
HETATM   21  C   UNL     1      -9.172   7.956  67.737  1.00  0.00    -0.144 C  
BRANCH  21  22
HETATM   22  C   UNL     1      -9.284   6.675  68.565  1.00  0.00    -0.127 C  
BRANCH  22  23
HETATM   23  C   UNL     1     -10.728   6.169  68.594  1.00  0.00    -0.370 C  
BRANCH  23  24
HETATM   24  C   UNL     1     -11.159   5.764  70.003  1.00  0.00    -0.329 C  
BRANCH  24  25
HETATM   25  C   UNL     1     -10.993   6.925  70.984  1.00  0.00    -0.287 C  
HETATM   26  C   UNL     1     -12.232   7.803  71.025  1.00  0.00    -0.236 C  
ENDBRANCH  24  25
ENDBRANCH  23  24
ENDBRANCH  22  23
ENDBRANCH  21  22
ENDBRANCH  20  21
ENDBRANCH  17  20
ENDBRANCH  15  17
ENDBRANCH   1  15
BRANCH   1  27
HETATM   27  C   UNL     1      -9.514  12.620  67.328  1.00  0.00    -0.199 C  
BRANCH  27  28
HETATM   28  N   UNL     1      -8.136  12.564  66.783  1.00  0.00    -0.028 NA 
HETATM   29  C   UNL     1      -7.623  11.177  66.881  1.00  0.00    -0.145 C  
HETATM   30  C   UNL     1      -7.203  13.397  67.544  1.00  0.00    -0.153 C  
HETATM   31  C   UNL     1      -6.166  11.245  67.316  1.00  0.00    -0.081 C  
HETATM   32  C   UNL     1      -5.852  12.717  67.450  1.00  0.00    -0.118 C  
ENDBRANCH  27  28
ENDBRANCH   1  27
TORSDOF 12
ENDMDL
MODEL      275
REMARK 921   NORMALIZED FREE ENERGY PREDICTED BY IDOCK:   -3.85 KCAL/MOL
REMARK 922        TOTAL FREE ENERGY PREDICTED BY IDOCK:   -8.60 KCAL/MOL
REMARK 923 INTER-LIGAND FREE ENERGY PREDICTED BY IDOCK:   -6.95 KCAL/MOL
REMARK 924 INTRA-LIGAND FREE ENERGY PREDICTED BY IDOCK:   -1.64 KCAL/MOL
REMARK 927      BINDING AFFINITY PREDICTED BY RF-SCORE:    0.00 PKD
ROOT
HETATM    1  C   UNL     1      -9.248  11.678  66.656  1.00  0.00    -0.191 C  
ENDROOT
BRANCH   1   2
HETATM    2  C   UNL     1      -9.612  11.660  68.177  1.00  0.00    -0.190 C  
HETATM    3  O   UNL     1      -8.569  12.236  68.974  1.00  0.00    -0.349 OA 
HETATM    4  H   UNL     1      -8.790  12.225  69.898  1.00  0.00     0.000 HD 
BRANCH   2   5
HETATM    5  C   UNL     1      -9.999  10.271  68.690  1.00  0.00    -0.183 A  
HETATM    6  C   UNL     1     -12.510   7.850  71.767  1.00  0.00    -0.323 C  
HETATM    7  C   UNL     1     -10.953   8.901  70.464  1.00  0.00    -0.241 A  
HETATM    8  C   UNL     1      -9.979   9.126  67.870  1.00  0.00    -0.228 A  
HETATM    9  C   UNL     1     -10.916   7.772  69.645  1.00  0.00    -0.122 A  
HETATM   10  C   UNL     1     -11.900   6.518  71.362  1.00  0.00    -0.329 C  
HETATM   11  C   UNL     1     -10.461  10.128  70.013  1.00  0.00    -0.325 A  
HETATM   12  O   UNL     1     -11.403   6.545  70.017  1.00  0.00    -0.352 OA 
HETATM   13  O   UNL     1     -11.514   8.880  71.717  1.00  0.00    -0.307 OA 
HETATM   14  C   UNL     1     -10.410   7.882  68.352  1.00  0.00    -0.235 A  
ENDBRANCH   2   5
ENDBRANCH   1   2
BRANCH   1  15
HETATM   15  N   UNL     1      -7.780  11.650  66.534  1.00  0.00    -0.343 NA 
HETATM   16  H   UNL     1      -7.271  12.418  66.971  1.00  0.00     0.000 HD 
BRANCH  15  17
HETATM   17  C   UNL     1      -7.080  10.769  65.941  1.00  0.00    -0.080 C  
HETATM   18  H   UNL     1      -5.227  10.111  65.389  1.00  0.00     0.000 HD 
HETATM   19  O   UNL     1      -5.751  10.770  65.832  1.00  0.00    -0.117 OA 
BRANCH  17  20
HETATM   20  C   UNL     1      -7.749   9.595  65.270  1.00  0.00    -0.115 C  
BRANCH  20  21
HETATM   21  C   UNL     1      -6.760   8.511  64.854  1.00  0.00    -0.068 C  
BRANCH  21  22
HETATM   22  C   UNL     1      -6.969   7.188  65.593  1.00  0.00    -0.060 C  
BRANCH  22  23
HETATM   23  C   UNL     1      -8.410   6.699  65.440  1.00  0.00    -0.130 C  
BRANCH  23  24
HETATM   24  C   UNL     1      -8.474   5.307  64.813  1.00  0.00    -0.149 C  
BRANCH  24  25
HETATM   25  C   UNL     1      -9.703   4.539  65.301  1.00  0.00    -0.182 C  
HETATM   26  C   UNL     1     -10.367   3.771  64.171  1.00  0.00    -0.260 C  
ENDBRANCH  24  25
ENDBRANCH  23  24
ENDBRANCH  22  23
ENDBRANCH  21  22
ENDBRANCH  20  21
ENDBRANCH  17  20
ENDBRANCH  15  17
ENDBRANCH   1  15
BRANCH   1  27
HETATM   27  C   UNL     1      -9.663  12.952  65.840  1.00  0.00    -0.184 C  
BRANCH  27  28
HETATM   28  N   UNL     1     -10.301  12.866  64.503  1.00  0.00    -0.363 NA 
HETATM   29  C   UNL     1     -11.237  14.002  64.330  1.00  0.00    -0.306 C  
HETATM   30  C   UNL     1     -11.104  11.652  64.348  1.00  0.00    -0.317 C  
HETATM   31  C   UNL     1     -12.488  13.479  63.639  1.00  0.00    -0.278 C  
HETATM   32  C   UNL     1     -12.236  12.007  63.405  1.00  0.00    -0.627 C  
ENDBRANCH  27  28
ENDBRANCH   1  27
TORSDOF 12
ENDMDL
MODEL      276
REMARK 921   NORMALIZED FREE ENERGY PREDICTED BY IDOCK:   -3.82 KCAL/MOL
REMARK 922        TOTAL FREE ENERGY PREDICTED BY IDOCK:   -8.56 KCAL/MOL
REMARK 923 INTER-LIGAND FREE ENERGY PREDICTED BY IDOCK:   -6.94 KCAL/MOL
REMARK 924 INTRA-LIGAND FREE ENERGY PREDICTED BY IDOCK:   -1.62 KCAL/MOL
REMARK 927      BINDING AFFINITY PREDICTED BY RF-SCORE:    0.00 PKD
ROOT
HETATM    1  C   UNL     1     -10.755   9.388  68.728  1.00  0.00    -0.171 C  
ENDROOT
BRANCH   1   2
HETATM    2  C   UNL     1      -9.629  10.261  68.081  1.00  0.00    -0.140 C  
HETATM    3  O   UNL     1      -8.547  10.484  68.994  1.00  0.00    -0.144 OA 
HETATM    4  H   UNL     1      -7.863  11.014  68.601  1.00  0.00     0.000 HD 
BRANCH   2   5
HETATM    5  C   UNL     1     -10.146  11.580  67.501  1.00  0.00    -0.203 A  
HETATM    6  C   UNL     1      -9.083  15.937  66.270  1.00  0.00    -0.344 C  
HETATM    7  C   UNL     1      -9.826  13.973  67.170  1.00  0.00    -0.240 A  
HETATM    8  C   UNL     1     -11.243  11.644  66.621  1.00  0.00    -0.362 A  
HETATM    9  C   UNL     1     -10.923  14.024  66.309  1.00  0.00    -0.300 A  
HETATM   10  C   UNL     1     -10.527  16.308  65.973  1.00  0.00    -0.331 C  
HETATM   11  C   UNL     1      -9.464  12.777  67.796  1.00  0.00    -0.205 A  
HETATM   12  O   UNL     1     -11.317  15.158  65.646  1.00  0.00    -0.332 OA 
HETATM   13  O   UNL     1      -9.025  15.063  67.404  1.00  0.00    -0.173 OA 
HETATM   14  C   UNL     1     -11.643  12.861  66.051  1.00  0.00    -0.424 A  
ENDBRANCH   2   5
ENDBRANCH   1   2
BRANCH   1  15
HETATM   15  N   UNL     1     -11.035   9.921  70.073  1.00  0.00    -0.271 NA 
HETATM   16  H   UNL     1     -11.567  10.790  70.117  1.00  0.00     0.000 HD 
BRANCH  15  17
HETATM   17  C   UNL     1     -10.683   9.413  71.185  1.00  0.00    -0.347 C  
HETATM   18  H   UNL     1      -9.189   9.046  72.527  1.00  0.00     0.000 HD 
HETATM   19  O   UNL     1      -9.452   9.426  71.696  1.00  0.00    -0.262 OA 
BRANCH  17  20
HETATM   20  C   UNL     1     -11.698   8.707  72.049  1.00  0.00    -0.439 C  
BRANCH  20  21
HETATM   21  C   UNL     1     -11.072   7.642  72.943  1.00  0.00    -0.448 C  
BRANCH  21  22
HETATM   22  C   UNL     1     -11.107   6.241  72.330  1.00  0.00    -0.307 C  
BRANCH  22  23
HETATM   23  C   UNL     1     -10.430   5.225  73.252  1.00  0.00    -0.262 C  
BRANCH  23  24
HETATM   24  C   UNL     1     -10.625   3.793  72.758  1.00  0.00    -0.198 C  
BRANCH  24  25
HETATM   25  C   UNL     1      -9.638   3.458  71.639  1.00  0.00    -0.229 C  
HETATM   26  C   UNL     1      -8.303   2.989  72.192  1.00  0.00    -0.072 C  
ENDBRANCH  24  25
ENDBRANCH  23  24
ENDBRANCH  22  23
ENDBRANCH  21  22
ENDBRANCH  20  21
ENDBRANCH  17  20
ENDBRANCH  15  17
ENDBRANCH   1  15
BRANCH   1  27
HETATM   27  C   UNL     1     -10.421   7.878  68.991  1.00  0.00    -0.198 C  
BRANCH  27  28
HETATM   28  N   UNL     1      -9.079   7.303  68.729  1.00  0.00    -0.129 NA 
HETATM   29  C   UNL     1      -9.210   6.140  67.820  1.00  0.00    -0.111 C  
HETATM   30  C   UNL     1      -8.444   6.798  69.947  1.00  0.00    -0.140 C  
HETATM   31  C   UNL     1      -8.262   5.054  68.309  1.00  0.00    -0.089 C  
HETATM   32  C   UNL     1      -7.571   5.635  69.520  1.00  0.00    -0.072 C  
ENDBRANCH  27  28
ENDBRANCH   1  27
TORSDOF 12
ENDMDL
MODEL      277
REMARK 921   NORMALIZED FREE ENERGY PREDICTED BY IDOCK:   -3.81 KCAL/MOL
REMARK 922        TOTAL FREE ENERGY PREDICTED BY IDOCK:   -8.53 KCAL/MOL
REMARK 923 INTER-LIGAND FREE ENERGY PREDICTED BY IDOCK:   -7.51 KCAL/MOL
REMARK 924 INTRA-LIGAND FREE ENERGY PREDICTED BY IDOCK:   -1.02 KCAL/MOL
REMARK 927      BINDING AFFINITY PREDICTED BY RF-SCORE:    0.00 PKD
ROOT
HETATM    1  C   UNL     1     -10.499  10.316  68.264  1.00  0.00    -0.199 C  
ENDROOT
BRANCH   1   2
HETATM    2  C   UNL     1      -9.739   9.900  66.962  1.00  0.00    -0.182 C  
HETATM    3  O   UNL     1     -10.176  10.665  65.831  1.00  0.00    -0.248 OA 
HETATM    4  H   UNL     1      -9.714  10.413  65.039  1.00  0.00     0.000 HD 
BRANCH   2   5
HETATM    5  C   UNL     1      -9.806   8.398  66.675  1.00  0.00    -0.343 A  
HETATM    6  C   UNL     1      -7.392   4.480  66.004  1.00  0.00    -0.077 C  
HETATM    7  C   UNL     1      -8.678   6.368  65.938  1.00  0.00    -0.145 A  
HETATM    8  C   UNL     1     -10.910   7.605  67.042  1.00  0.00    -0.219 A  
HETATM    9  C   UNL     1      -9.783   5.596  66.296  1.00  0.00    -0.135 A  
HETATM   10  C   UNL     1      -8.624   3.670  65.637  1.00  0.00    -0.113 C  
HETATM   11  C   UNL     1      -8.700   7.758  66.083  1.00  0.00    -0.177 A  
HETATM   12  O   UNL     1      -9.818   4.228  66.201  1.00  0.00    -0.198 OA 
HETATM   13  O   UNL     1      -7.508   5.810  65.484  1.00  0.00    -0.074 OA 
HETATM   14  C   UNL     1     -10.908   6.219  66.830  1.00  0.00    -0.367 A  
ENDBRANCH   2   5
ENDBRANCH   1   2
BRANCH   1  15
HETATM   15  N   UNL     1     -10.386  11.777  68.416  1.00  0.00    -0.208 NA 
HETATM   16  H   UNL     1      -9.480  12.189  68.193  1.00  0.00     0.000 HD 
BRANCH  15  17
HETATM   17  C   UNL     1     -11.298  12.578  68.796  1.00  0.00    -0.293 C  
HETATM   18  H   UNL     1     -12.670  13.093  70.218  1.00  0.00     0.000 HD 
HETATM   19  O   UNL     1     -11.988  12.495  69.934  1.00  0.00    -0.326 OA 
BRANCH  17  20
HETATM   20  C   UNL     1     -11.691  13.745  67.925  1.00  0.00    -0.395 C  
BRANCH  20  21
HETATM   21  C   UNL     1     -11.702  15.069  68.682  1.00  0.00    -0.363 C  
BRANCH  21  22
HETATM   22  C   UNL     1     -10.520  15.974  68.331  1.00  0.00    -0.263 C  
BRANCH  22  23
HETATM   23  C   UNL     1     -10.441  16.209  66.822  1.00  0.00    -0.294 C  
BRANCH  23  24
HETATM   24  C   UNL     1     -10.122  17.666  66.490  1.00  0.00    -0.350 C  
BRANCH  24  25
HETATM   25  C   UNL     1     -10.700  18.609  67.545  1.00  0.00    -0.447 C  
HETATM   26  C   UNL     1      -9.694  19.671  67.957  1.00  0.00    -0.501 C  
ENDBRANCH  24  25
ENDBRANCH  23  24
ENDBRANCH  22  23
ENDBRANCH  21  22
ENDBRANCH  20  21
ENDBRANCH  17  20
ENDBRANCH  15  17
ENDBRANCH   1  15
BRANCH   1  27
HETATM   27  C   UNL     1      -9.945   9.758  69.621  1.00  0.00    -0.223 C  
BRANCH  27  28
HETATM   28  N   UNL     1     -10.537   8.578  70.296  1.00  0.00    -0.222 NA 
HETATM   29  C   UNL     1     -11.507   9.031  71.321  1.00  0.00    -0.320 C  
HETATM   30  C   UNL     1      -9.535   7.783  71.008  1.00  0.00    -0.155 C  
HETATM   31  C   UNL     1     -11.335   8.151  72.552  1.00  0.00    -0.469 C  
HETATM   32  C   UNL     1     -10.246   7.166  72.196  1.00  0.00    -0.207 C  
ENDBRANCH  27  28
ENDBRANCH   1  27
TORSDOF 12
ENDMDL
MODEL      278
REMARK 921   NORMALIZED FREE ENERGY PREDICTED BY IDOCK:   -3.80 KCAL/MOL
REMARK 922        TOTAL FREE ENERGY PREDICTED BY IDOCK:   -8.52 KCAL/MOL
REMARK 923 INTER-LIGAND FREE ENERGY PREDICTED BY IDOCK:   -6.68 KCAL/MOL
REMARK 924 INTRA-LIGAND FREE ENERGY PREDICTED BY IDOCK:   -1.84 KCAL/MOL
REMARK 927      BINDING AFFINITY PREDICTED BY RF-SCORE:    0.00 PKD
ROOT
HETATM    1  C   UNL     1      -9.404   8.321  69.041  1.00  0.00    -0.147 C  
ENDROOT
BRANCH   1   2
HETATM    2  C   UNL     1      -8.413   7.113  68.963  1.00  0.00    -0.129 C  
HETATM    3  O   UNL     1      -8.432   6.502  67.666  1.00  0.00    -0.117 OA 
HETATM    4  H   UNL     1      -7.830   5.768  67.618  1.00  0.00     0.000 HD 
BRANCH   2   5
HETATM    5  C   UNL     1      -8.632   6.077  70.068  1.00  0.00    -0.131 A  
HETATM    6  C   UNL     1      -7.658   4.826  74.440  1.00  0.00    -0.089 C  
HETATM    7  C   UNL     1      -7.915   5.113  72.187  1.00  0.00    -0.112 A  
HETATM    8  C   UNL     1      -9.794   5.285  70.145  1.00  0.00    -0.290 A  
HETATM    9  C   UNL     1      -9.066   4.325  72.245  1.00  0.00    -0.116 A  
HETATM   10  C   UNL     1      -8.360   3.483  74.314  1.00  0.00    -0.081 C  
HETATM   11  C   UNL     1      -7.675   5.948  71.093  1.00  0.00    -0.109 A  
HETATM   12  O   UNL     1      -9.372   3.503  73.298  1.00  0.00    -0.100 OA 
HETATM   13  O   UNL     1      -6.999   5.151  73.209  1.00  0.00    -0.072 OA 
HETATM   14  C   UNL     1      -9.996   4.398  71.212  1.00  0.00    -0.245 A  
ENDBRANCH   2   5
ENDBRANCH   1   2
BRANCH   1  15
HETATM   15  N   UNL     1      -9.096   9.242  67.933  1.00  0.00    -0.127 NA 
HETATM   16  H   UNL     1      -8.200   9.727  67.979  1.00  0.00     0.000 HD 
BRANCH  15  17
HETATM   17  C   UNL     1      -9.830   9.495  66.925  1.00  0.00    -0.204 C  
HETATM   18  H   UNL     1     -10.194   9.220  64.935  1.00  0.00     0.000 HD 
HETATM   19  O   UNL     1      -9.646   9.030  65.688  1.00  0.00    -0.247 OA 
BRANCH  17  20
HETATM   20  C   UNL     1     -11.025  10.403  67.067  1.00  0.00    -0.222 C  
BRANCH  20  21
HETATM   21  C   UNL     1     -10.696  11.698  67.802  1.00  0.00    -0.244 C  
BRANCH  21  22
HETATM   22  C   UNL     1     -10.654  12.921  66.882  1.00  0.00    -0.262 C  
BRANCH  22  23
HETATM   23  C   UNL     1     -11.951  13.725  66.984  1.00  0.00    -0.452 C  
BRANCH  23  24
HETATM   24  C   UNL     1     -12.697  13.769  65.651  1.00  0.00    -0.523 C  
BRANCH  24  25
HETATM   25  C   UNL     1     -11.787  14.267  64.528  1.00  0.00    -0.456 C  
HETATM   26  C   UNL     1     -11.441  15.737  64.699  1.00  0.00    -0.284 C  
ENDBRANCH  24  25
ENDBRANCH  23  24
ENDBRANCH  22  23
ENDBRANCH  21  22
ENDBRANCH  20  21
ENDBRANCH  17  20
ENDBRANCH  15  17
ENDBRANCH   1  15
BRANCH   1  27
HETATM   27  C   UNL     1      -9.315   9.232  70.315  1.00  0.00    -0.239 C  
BRANCH  27  28
HETATM   28  N   UNL     1     -10.368   9.243  71.359  1.00  0.00    -0.335 NA 
HETATM   29  C   UNL     1      -9.955   8.375  72.486  1.00  0.00    -0.285 C  
HETATM   30  C   UNL     1     -11.638   8.701  70.873  1.00  0.00    -0.269 C  
HETATM   31  C   UNL     1     -11.178   7.598  72.953  1.00  0.00    -0.426 C  
HETATM   32  C   UNL     1     -12.313   8.059  72.068  1.00  0.00    -0.366 C  
ENDBRANCH  27  28
ENDBRANCH   1  27
TORSDOF 12
ENDMDL
MODEL      279
REMARK 921   NORMALIZED FREE ENERGY PREDICTED BY IDOCK:   -3.79 KCAL/MOL
REMARK 922        TOTAL FREE ENERGY PREDICTED BY IDOCK:   -8.50 KCAL/MOL
REMARK 923 INTER-LIGAND FREE ENERGY PREDICTED BY IDOCK:   -6.64 KCAL/MOL
REMARK 924 INTRA-LIGAND FREE ENERGY PREDICTED BY IDOCK:   -1.86 KCAL/MOL
REMARK 927      BINDING AFFINITY PREDICTED BY RF-SCORE:    0.00 PKD
ROOT
HETATM    1  C   UNL     1      -8.947  12.192  68.072  1.00  0.00    -0.189 C  
ENDROOT
BRANCH   1   2
HETATM    2  C   UNL     1      -8.119  10.866  67.998  1.00  0.00    -0.119 C  
HETATM    3  O   UNL     1      -7.842  10.495  66.641  1.00  0.00    -0.116 OA 
HETATM    4  H   UNL     1      -7.340   9.689  66.596  1.00  0.00     0.000 HD 
BRANCH   2   5
HETATM    5  C   UNL     1      -8.760   9.709  68.770  1.00  0.00    -0.126 A  
HETATM    6  C   UNL     1      -9.731   5.161  68.809  1.00  0.00    -0.154 C  
HETATM    7  C   UNL     1      -9.658   7.445  68.755  1.00  0.00    -0.147 A  
HETATM    8  C   UNL     1      -8.868   9.701  70.174  1.00  0.00    -0.266 A  
HETATM    9  C   UNL     1      -9.771   7.455  70.146  1.00  0.00    -0.175 A  
HETATM   10  C   UNL     1     -10.565   5.252  70.077  1.00  0.00    -0.230 C  
HETATM   11  C   UNL     1      -9.200   8.571  68.066  1.00  0.00    -0.143 A  
HETATM   12  O   UNL     1     -10.191   6.378  70.883  1.00  0.00    -0.185 OA 
HETATM   13  O   UNL     1      -9.936   6.329  68.004  1.00  0.00    -0.127 OA 
HETATM   14  C   UNL     1      -9.393   8.593  70.853  1.00  0.00    -0.235 A  
ENDBRANCH   2   5
ENDBRANCH   1   2
BRANCH   1  15
HETATM   15  N   UNL     1     -10.337  11.888  67.695  1.00  0.00    -0.198 NA 
HETATM   16  H   UNL     1     -10.962  11.598  68.448  1.00  0.00     0.000 HD 
BRANCH  15  17
HETATM   17  C   UNL     1     -10.843  11.948  66.529  1.00  0.00    -0.278 C  
HETATM   18  H   UNL     1     -10.965  11.160  64.650  1.00  0.00     0.000 HD 
HETATM   19  O   UNL     1     -10.587  11.114  65.521  1.00  0.00    -0.263 OA 
BRANCH  17  20
HETATM   20  C   UNL     1     -11.821  13.044  66.185  1.00  0.00    -0.466 C  
BRANCH  20  21
HETATM   21  C   UNL     1     -12.274  13.835  67.408  1.00  0.00    -0.290 C  
BRANCH  21  22
HETATM   22  C   UNL     1     -11.574  15.188  67.545  1.00  0.00    -0.268 C  
BRANCH  22  23
HETATM   23  C   UNL     1     -11.597  15.669  68.997  1.00  0.00    -0.396 C  
BRANCH  23  24
HETATM   24  C   UNL     1     -10.633  16.833  69.225  1.00  0.00    -0.336 C  
BRANCH  24  25
HETATM   25  C   UNL     1     -10.645  17.796  68.038  1.00  0.00    -0.372 C  
HETATM   26  C   UNL     1      -9.958  19.109  68.376  1.00  0.00    -0.493 C  
ENDBRANCH  24  25
ENDBRANCH  23  24
ENDBRANCH  22  23
ENDBRANCH  21  22
ENDBRANCH  20  21
ENDBRANCH  17  20
ENDBRANCH  15  17
ENDBRANCH   1  15
BRANCH   1  27
HETATM   27  C   UNL     1      -8.538  13.341  67.087  1.00  0.00    -0.193 C  
BRANCH  27  28
HETATM   28  N   UNL     1      -7.458  14.309  67.399  1.00  0.00    -0.182 NA 
HETATM   29  C   UNL     1      -7.240  14.349  68.864  1.00  0.00    -0.125 C  
HETATM   30  C   UNL     1      -7.805  15.675  67.003  1.00  0.00    -0.231 C  
HETATM   31  C   UNL     1      -7.020  15.800  69.267  1.00  0.00    -0.186 C  
HETATM   32  C   UNL     1      -7.104  16.594  67.983  1.00  0.00    -0.156 C  
ENDBRANCH  27  28
ENDBRANCH   1  27
TORSDOF 12
ENDMDL
MODEL      280
REMARK 921   NORMALIZED FREE ENERGY PREDICTED BY IDOCK:   -3.78 KCAL/MOL
REMARK 922        TOTAL FREE ENERGY PREDICTED BY IDOCK:   -8.49 KCAL/MOL
REMARK 923 INTER-LIGAND FREE ENERGY PREDICTED BY IDOCK:   -7.29 KCAL/MOL
REMARK 924 INTRA-LIGAND FREE ENERGY PREDICTED BY IDOCK:   -1.19 KCAL/MOL
REMARK 927      BINDING AFFINITY PREDICTED BY RF-SCORE:    0.00 PKD
ROOT
HETATM    1  C   UNL     1      -9.464   8.921  68.505  1.00  0.00    -0.147 C  
ENDROOT
BRANCH   1   2
HETATM    2  C   UNL     1     -10.498   8.856  67.333  1.00  0.00    -0.277 C  
HETATM    3  O   UNL     1     -10.219   7.764  66.447  1.00  0.00    -0.474 OA 
HETATM    4  H   UNL     1     -10.847   7.724  65.735  1.00  0.00     0.000 HD 
BRANCH   2   5
HETATM    5  C   UNL     1     -10.626  10.174  66.565  1.00  0.00    -0.179 A  
HETATM    6  C   UNL     1     -11.393  14.752  66.851  1.00  0.00    -0.355 C  
HETATM    7  C   UNL     1     -11.379  12.491  66.522  1.00  0.00    -0.334 A  
HETATM    8  C   UNL     1      -9.977  10.402  65.337  1.00  0.00    -0.362 A  
HETATM    9  C   UNL     1     -10.741  12.699  65.298  1.00  0.00    -0.289 A  
HETATM   10  C   UNL     1     -11.434  14.937  65.342  1.00  0.00    -0.320 C  
HETATM   11  C   UNL     1     -11.362  11.233  67.132  1.00  0.00    -0.295 A  
HETATM   12  O   UNL     1     -10.700  13.911  64.659  1.00  0.00    -0.397 OA 
HETATM   13  O   UNL     1     -12.000  13.505  67.208  1.00  0.00    -0.370 OA 
HETATM   14  C   UNL     1     -10.057  11.647  64.696  1.00  0.00    -0.305 A  
ENDBRANCH   2   5
ENDBRANCH   1   2
BRANCH   1  15
HETATM   15  N   UNL     1      -9.062   7.544  68.842  1.00  0.00    -0.140 NA 
HETATM   16  H   UNL     1      -9.817   6.878  69.014  1.00  0.00     0.000 HD 
BRANCH  15  17
HETATM   17  C   UNL     1      -7.875   7.096  68.939  1.00  0.00    -0.115 C  
HETATM   18  H   UNL     1      -6.100   7.099  69.948  1.00  0.00     0.000 HD 
HETATM   19  O   UNL     1      -6.987   7.433  69.875  1.00  0.00    -0.057 OA 
BRANCH  17  20
HETATM   20  C   UNL     1      -7.358   6.099  67.933  1.00  0.00    -0.084 C  
BRANCH  20  21
HETATM   21  C   UNL     1      -7.594   4.654  68.360  1.00  0.00    -0.069 C  
BRANCH  21  22
HETATM   22  C   UNL     1      -8.838   4.032  67.722  1.00  0.00    -0.134 C  
BRANCH  22  23
HETATM   23  C   UNL     1      -8.474   3.278  66.441  1.00  0.00    -0.108 C  
BRANCH  23  24
HETATM   24  C   UNL     1      -8.641   4.154  65.201  1.00  0.00    -0.116 C  
BRANCH  24  25
HETATM   25  C   UNL     1     -10.096   4.171  64.731  1.00  0.00    -0.204 C  
HETATM   26  C   UNL     1     -10.387   3.028  63.774  1.00  0.00    -0.199 C  
ENDBRANCH  24  25
ENDBRANCH  23  24
ENDBRANCH  22  23
ENDBRANCH  21  22
ENDBRANCH  20  21
ENDBRANCH  17  20
ENDBRANCH  15  17
ENDBRANCH   1  15
BRANCH   1  27
HETATM   27  C   UNL     1      -9.971   9.503  69.871  1.00  0.00    -0.230 C  
BRANCH  27  28
HETATM   28  N   UNL     1     -11.310   9.180  70.423  1.00  0.00    -0.248 NA 
HETATM   29  C   UNL     1     -12.102  10.426  70.554  1.00  0.00    -0.332 C  
HETATM   30  C   UNL     1     -11.231   8.605  71.767  1.00  0.00    -0.326 C  
HETATM   31  C   UNL     1     -12.864  10.361  71.871  1.00  0.00    -0.519 C  
HETATM   32  C   UNL     1     -12.496   9.031  72.486  1.00  0.00    -0.309 C  
ENDBRANCH  27  28
ENDBRANCH   1  27
TORSDOF 12
ENDMDL
MODEL      281
REMARK 921   NORMALIZED FREE ENERGY PREDICTED BY IDOCK:   -3.77 KCAL/MOL
REMARK 922        TOTAL FREE ENERGY PREDICTED BY IDOCK:   -8.47 KCAL/MOL
REMARK 923 INTER-LIGAND FREE ENERGY PREDICTED BY IDOCK:   -7.46 KCAL/MOL
REMARK 924 INTRA-LIGAND FREE ENERGY PREDICTED BY IDOCK:   -1.01 KCAL/MOL
REMARK 927      BINDING AFFINITY PREDICTED BY RF-SCORE:    0.00 PKD
ROOT
HETATM    1  C   UNL     1      -9.317   8.558  69.276  1.00  0.00    -0.154 C  
ENDROOT
BRANCH   1   2
HETATM    2  C   UNL     1      -8.696   9.934  68.866  1.00  0.00    -0.140 C  
HETATM    3  O   UNL     1      -8.180  10.637  70.005  1.00  0.00    -0.320 OA 
HETATM    4  H   UNL     1      -7.803  11.473  69.756  1.00  0.00     0.000 HD 
BRANCH   2   5
HETATM    5  C   UNL     1      -9.654  10.814  68.059  1.00  0.00    -0.172 A  
HETATM    6  C   UNL     1     -11.488  11.702  63.878  1.00  0.00    -0.343 C  
HETATM    7  C   UNL     1     -10.400  11.626  65.886  1.00  0.00    -0.248 A  
HETATM    8  C   UNL     1     -10.770  11.449  68.636  1.00  0.00    -0.241 A  
HETATM    9  C   UNL     1     -11.495  12.261  66.474  1.00  0.00    -0.381 A  
HETATM   10  C   UNL     1     -12.203  12.956  64.352  1.00  0.00    -0.417 C  
HETATM   11  C   UNL     1      -9.463  10.946  66.669  1.00  0.00    -0.204 A  
HETATM   12  O   UNL     1     -12.461  12.924  65.762  1.00  0.00    -0.531 OA 
HETATM   13  O   UNL     1     -10.215  11.590  64.526  1.00  0.00    -0.253 OA 
HETATM   14  C   UNL     1     -11.668  12.188  67.853  1.00  0.00    -0.403 A  
ENDBRANCH   2   5
ENDBRANCH   1   2
BRANCH   1  15
HETATM   15  N   UNL     1     -10.233   8.129  68.204  1.00  0.00    -0.203 NA 
HETATM   16  H   UNL     1     -10.989   8.772  67.967  1.00  0.00     0.000 HD 
BRANCH  15  17
HETATM   17  C   UNL     1     -10.180   7.043  67.543  1.00  0.00    -0.199 C  
HETATM   18  H   UNL     1     -11.140   5.693  66.351  1.00  0.00     0.000 HD 
HETATM   19  O   UNL     1     -11.179   6.504  66.844  1.00  0.00    -0.387 OA 
BRANCH  17  20
HETATM   20  C   UNL     1      -8.905   6.238  67.513  1.00  0.00    -0.103 C  
BRANCH  20  21
HETATM   21  C   UNL     1      -9.082   4.882  66.837  1.00  0.00    -0.118 C  
BRANCH  21  22
HETATM   22  C   UNL     1     -10.083   3.974  67.556  1.00  0.00     0.147 C  
BRANCH  22  23
HETATM   23  C   UNL     1      -9.387   2.735  68.122  1.00  0.00    -0.258 C  
BRANCH  23  24
HETATM   24  C   UNL     1      -8.664   3.041  69.434  1.00  0.00    -0.131 C  
BRANCH  24  25
HETATM   25  C   UNL     1      -9.660   3.361  70.549  1.00  0.00    -0.231 C  
HETATM   26  C   UNL     1      -9.387   4.721  71.168  1.00  0.00    -0.206 C  
ENDBRANCH  24  25
ENDBRANCH  23  24
ENDBRANCH  22  23
ENDBRANCH  21  22
ENDBRANCH  20  21
ENDBRANCH  17  20
ENDBRANCH  15  17
ENDBRANCH   1  15
BRANCH   1  27
HETATM   27  C   UNL     1     -10.216   8.537  70.561  1.00  0.00    -0.194 C  
BRANCH  27  28
HETATM   28  N   UNL     1     -11.697   8.499  70.495  1.00  0.00    -0.147 NA 
HETATM   29  C   UNL     1     -12.256   9.579  71.342  1.00  0.00    -0.371 C  
HETATM   30  C   UNL     1     -12.244   7.247  71.019  1.00  0.00    -0.313 C  
HETATM   31  C   UNL     1     -13.468   9.020  72.075  1.00  0.00    -0.498 C  
HETATM   32  C   UNL     1     -13.597   7.588  71.610  1.00  0.00    -0.442 C  
ENDBRANCH  27  28
ENDBRANCH   1  27
TORSDOF 12
ENDMDL
MODEL      282
REMARK 921   NORMALIZED FREE ENERGY PREDICTED BY IDOCK:   -3.76 KCAL/MOL
REMARK 922        TOTAL FREE ENERGY PREDICTED BY IDOCK:   -8.45 KCAL/MOL
REMARK 923 INTER-LIGAND FREE ENERGY PREDICTED BY IDOCK:   -7.48 KCAL/MOL
REMARK 924 INTRA-LIGAND FREE ENERGY PREDICTED BY IDOCK:   -0.98 KCAL/MOL
REMARK 927      BINDING AFFINITY PREDICTED BY RF-SCORE:    0.00 PKD
ROOT
HETATM    1  C   UNL     1     -13.001  10.594  70.655  1.00  0.00    -0.264 C  
ENDROOT
BRANCH   1   2
HETATM    2  C   UNL     1     -13.335   9.262  71.404  1.00  0.00    -0.325 C  
HETATM    3  O   UNL     1     -14.033   9.509  72.631  1.00  0.00    -0.693 OA 
HETATM    4  H   UNL     1     -14.237   8.700  73.086  1.00  0.00     0.000 HD 
BRANCH   2   5
HETATM    5  C   UNL     1     -12.110   8.373  71.633  1.00  0.00    -0.359 A  
HETATM    6  C   UNL     1      -8.515   6.168  69.671  1.00  0.00    -0.127 C  
HETATM    7  C   UNL     1     -10.425   6.875  70.709  1.00  0.00    -0.216 A  
HETATM    8  C   UNL     1     -11.401   8.357  72.849  1.00  0.00    -0.058 A  
HETATM    9  C   UNL     1      -9.738   6.860  71.924  1.00  0.00    -0.161 A  
HETATM   10  C   UNL     1      -8.111   5.476  70.963  1.00  0.00    -0.118 C  
HETATM   11  C   UNL     1     -11.620   7.586  70.572  1.00  0.00    -0.224 A  
HETATM   12  O   UNL     1      -8.551   6.202  72.118  1.00  0.00    -0.127 OA 
HETATM   13  O   UNL     1      -9.943   6.249  69.586  1.00  0.00    -0.159 OA 
HETATM   14  C   UNL     1     -10.239   7.587  73.001  1.00  0.00    -0.360 A  
ENDBRANCH   2   5
ENDBRANCH   1   2
BRANCH   1  15
HETATM   15  N   UNL     1     -11.839  10.353  69.782  1.00  0.00    -0.412 NA 
HETATM   16  H   UNL     1     -11.295   9.511  69.970  1.00  0.00     0.000 HD 
BRANCH  15  17
HETATM   17  C   UNL     1     -11.443  11.084  68.819  1.00  0.00    -0.305 C  
HETATM   18  H   UNL     1     -11.884  12.523  67.440  1.00  0.00     0.000 HD 
HETATM   19  O   UNL     1     -12.181  11.977  68.160  1.00  0.00    -0.428 OA 
BRANCH  17  20
HETATM   20  C   UNL     1     -10.024  10.973  68.320  1.00  0.00    -0.190 C  
BRANCH  20  21
HETATM   21  C   UNL     1      -9.805   9.751  67.434  1.00  0.00    -0.219 C  
BRANCH  21  22
HETATM   22  C   UNL     1      -8.993  10.057  66.173  1.00  0.00    -0.174 C  
BRANCH  22  23
HETATM   23  C   UNL     1      -7.684   9.267  66.162  1.00  0.00    -0.096 C  
BRANCH  23  24
HETATM   24  C   UNL     1      -6.632   9.900  67.073  1.00  0.00    -0.070 C  
BRANCH  24  25
HETATM   25  C   UNL     1      -5.496   8.919  67.366  1.00  0.00    -0.038 C  
HETATM   26  C   UNL     1      -5.715   8.186  68.679  1.00  0.00    -0.036 C  
ENDBRANCH  24  25
ENDBRANCH  23  24
ENDBRANCH  22  23
ENDBRANCH  21  22
ENDBRANCH  20  21
ENDBRANCH  17  20
ENDBRANCH  15  17
ENDBRANCH   1  15
BRANCH   1  27
HETATM   27  C   UNL     1     -12.556  11.813  71.537  1.00  0.00    -0.215 C  
BRANCH  27  28
HETATM   28  N   UNL     1     -13.077  13.184  71.319  1.00  0.00    -0.248 NA 
HETATM   29  C   UNL     1     -11.962  14.081  70.934  1.00  0.00    -0.267 C  
HETATM   30  C   UNL     1     -13.659  13.757  72.533  1.00  0.00    -0.575 C  
HETATM   31  C   UNL     1     -12.159  15.409  71.652  1.00  0.00    -0.449 C  
HETATM   32  C   UNL     1     -13.433  15.253  72.449  1.00  0.00    -0.565 C  
ENDBRANCH  27  28
ENDBRANCH   1  27
TORSDOF 12
ENDMDL
MODEL      283
REMARK 921   NORMALIZED FREE ENERGY PREDICTED BY IDOCK:   -3.76 KCAL/MOL
REMARK 922        TOTAL FREE ENERGY PREDICTED BY IDOCK:   -8.45 KCAL/MOL
REMARK 923 INTER-LIGAND FREE ENERGY PREDICTED BY IDOCK:   -5.89 KCAL/MOL
REMARK 924 INTRA-LIGAND FREE ENERGY PREDICTED BY IDOCK:   -2.56 KCAL/MOL
REMARK 927      BINDING AFFINITY PREDICTED BY RF-SCORE:    0.00 PKD
ROOT
HETATM    1  C   UNL     1      -9.280  10.478  67.589  1.00  0.00    -0.145 C  
ENDROOT
BRANCH   1   2
HETATM    2  C   UNL     1      -7.894  10.168  66.933  1.00  0.00    -0.107 C  
HETATM    3  O   UNL     1      -7.586  11.102  65.890  1.00  0.00    -0.337 OA 
HETATM    4  H   UNL     1      -6.744  10.914  65.491  1.00  0.00     0.000 HD 
BRANCH   2   5
HETATM    5  C   UNL     1      -7.767   8.724  66.441  1.00  0.00    -0.099 A  
HETATM    6  C   UNL     1      -7.404   5.920  62.748  1.00  0.00    -0.055 C  
HETATM    7  C   UNL     1      -7.951   7.128  64.609  1.00  0.00    -0.114 A  
HETATM    8  C   UNL     1      -7.183   7.706  67.218  1.00  0.00    -0.090 A  
HETATM    9  C   UNL     1      -7.382   6.125  65.395  1.00  0.00    -0.080 A  
HETATM   10  C   UNL     1      -7.519   4.653  63.578  1.00  0.00    -0.055 C  
HETATM   11  C   UNL     1      -8.184   8.402  65.134  1.00  0.00    -0.158 A  
HETATM   12  O   UNL     1      -7.106   4.863  64.935  1.00  0.00    -0.059 OA 
HETATM   13  O   UNL     1      -8.259   6.937  63.284  1.00  0.00    -0.048 OA 
HETATM   14  C   UNL     1      -7.016   6.411  66.708  1.00  0.00    -0.067 A  
ENDBRANCH   2   5
ENDBRANCH   1   2
BRANCH   1  15
HETATM   15  N   UNL     1      -9.649   9.338  68.445  1.00  0.00    -0.146 NA 
HETATM   16  H   UNL     1     -10.262   8.635  68.030  1.00  0.00     0.000 HD 
BRANCH  15  17
HETATM   17  C   UNL     1      -9.286   9.136  69.648  1.00  0.00    -0.168 C  
HETATM   18  H   UNL     1      -8.165   9.741  71.243  1.00  0.00     0.000 HD 
HETATM   19  O   UNL     1      -8.437   9.891  70.345  1.00  0.00    -0.145 OA 
BRANCH  17  20
HETATM   20  C   UNL     1      -9.816   7.947  70.409  1.00  0.00    -0.183 C  
BRANCH  20  21
HETATM   21  C   UNL     1      -8.749   6.889  70.668  1.00  0.00    -0.149 C  
BRANCH  21  22
HETATM   22  C   UNL     1      -9.213   5.469  70.338  1.00  0.00    -0.182 C  
BRANCH  22  23
HETATM   23  C   UNL     1     -10.255   5.483  69.218  1.00  0.00    -0.315 C  
BRANCH  23  24
HETATM   24  C   UNL     1      -9.871   4.545  68.074  1.00  0.00    -0.154 C  
BRANCH  24  25
HETATM   25  C   UNL     1     -10.493   5.003  66.755  1.00  0.00    -0.273 C  
HETATM   26  C   UNL     1     -11.020   6.425  66.849  1.00  0.00    -0.413 C  
ENDBRANCH  24  25
ENDBRANCH  23  24
ENDBRANCH  22  23
ENDBRANCH  21  22
ENDBRANCH  20  21
ENDBRANCH  17  20
ENDBRANCH  15  17
ENDBRANCH   1  15
BRANCH   1  27
HETATM   27  C   UNL     1     -10.507  10.628  66.623  1.00  0.00    -0.237 C  
BRANCH  27  28
HETATM   28  N   UNL     1     -10.629  11.751  65.661  1.00  0.00    -0.260 NA 
HETATM   29  C   UNL     1     -11.892  12.483  65.916  1.00  0.00    -0.430 C  
HETATM   30  C   UNL     1     -10.699  11.289  64.274  1.00  0.00    -0.349 C  
HETATM   31  C   UNL     1     -12.508  12.838  64.570  1.00  0.00    -0.501 C  
HETATM   32  C   UNL     1     -11.550  12.300  63.532  1.00  0.00    -0.570 C  
ENDBRANCH  27  28
ENDBRANCH   1  27
TORSDOF 12
ENDMDL
MODEL      284
REMARK 921   NORMALIZED FREE ENERGY PREDICTED BY IDOCK:   -3.75 KCAL/MOL
REMARK 922        TOTAL FREE ENERGY PREDICTED BY IDOCK:   -8.44 KCAL/MOL
REMARK 923 INTER-LIGAND FREE ENERGY PREDICTED BY IDOCK:   -7.11 KCAL/MOL
REMARK 924 INTRA-LIGAND FREE ENERGY PREDICTED BY IDOCK:   -1.33 KCAL/MOL
REMARK 927      BINDING AFFINITY PREDICTED BY RF-SCORE:    0.00 PKD
ROOT
HETATM    1  C   UNL     1     -10.182   6.806  69.941  1.00  0.00    -0.190 C  
ENDROOT
BRANCH   1   2
HETATM    2  C   UNL     1      -9.401   5.474  70.190  1.00  0.00    -0.146 C  
HETATM    3  O   UNL     1      -8.068   5.725  70.654  1.00  0.00    -0.112 OA 
HETATM    4  H   UNL     1      -7.593   4.915  70.806  1.00  0.00     0.000 HD 
BRANCH   2   5
HETATM    5  C   UNL     1      -9.399   4.538  68.979  1.00  0.00    -0.211 A  
HETATM    6  C   UNL     1      -9.288   4.223  64.340  1.00  0.00    -0.157 C  
HETATM    7  C   UNL     1      -9.725   4.236  66.583  1.00  0.00    -0.219 A  
HETATM    8  C   UNL     1      -8.902   3.222  69.038  1.00  0.00    -0.159 A  
HETATM    9  C   UNL     1      -9.240   2.930  66.658  1.00  0.00    -0.114 A  
HETATM   10  C   UNL     1      -9.509   2.719  64.341  1.00  0.00    -0.145 C  
HETATM   11  C   UNL     1      -9.846   5.021  67.733  1.00  0.00    -0.199 A  
HETATM   12  O   UNL     1      -9.075   2.116  65.567  1.00  0.00    -0.130 OA 
HETATM   13  O   UNL     1     -10.052   4.831  65.389  1.00  0.00    -0.157 OA 
HETATM   14  C   UNL     1      -8.847   2.417  67.891  1.00  0.00    -0.161 A  
ENDBRANCH   2   5
ENDBRANCH   1   2
BRANCH   1  15
HETATM   15  N   UNL     1      -9.201   7.868  69.659  1.00  0.00    -0.153 NA 
HETATM   16  H   UNL     1      -8.497   8.041  70.378  1.00  0.00     0.000 HD 
BRANCH  15  17
HETATM   17  C   UNL     1      -9.138   8.593  68.615  1.00  0.00    -0.138 C  
HETATM   18  H   UNL     1      -8.027   9.826  67.426  1.00  0.00     0.000 HD 
HETATM   19  O   UNL     1      -8.074   9.284  68.206  1.00  0.00    -0.105 OA 
BRANCH  17  20
HETATM   20  C   UNL     1     -10.344   8.737  67.721  1.00  0.00    -0.297 C  
BRANCH  20  21
HETATM   21  C   UNL     1     -10.912  10.152  67.721  1.00  0.00    -0.338 C  
BRANCH  21  22
HETATM   22  C   UNL     1     -10.650  10.909  66.417  1.00  0.00    -0.289 C  
BRANCH  22  23
HETATM   23  C   UNL     1     -11.299  12.293  66.450  1.00  0.00    -0.405 C  
BRANCH  23  24
HETATM   24  C   UNL     1     -10.270  13.407  66.267  1.00  0.00    -0.298 C  
BRANCH  24  25
HETATM   25  C   UNL     1     -10.498  14.157  64.954  1.00  0.00    -0.461 C  
HETATM   26  C   UNL     1     -11.978  14.291  64.637  1.00  0.00    -0.468 C  
ENDBRANCH  24  25
ENDBRANCH  23  24
ENDBRANCH  22  23
ENDBRANCH  21  22
ENDBRANCH  20  21
ENDBRANCH  17  20
ENDBRANCH  15  17
ENDBRANCH   1  15
BRANCH   1  27
HETATM   27  C   UNL     1     -11.014   7.379  71.141  1.00  0.00    -0.246 C  
BRANCH  27  28
HETATM   28  N   UNL     1     -12.183   8.270  70.945  1.00  0.00    -0.167 NA 
HETATM   29  C   UNL     1     -11.864   9.622  71.462  1.00  0.00    -0.407 C  
HETATM   30  C   UNL     1     -13.358   7.816  71.689  1.00  0.00    -0.342 C  
HETATM   31  C   UNL     1     -13.096  10.149  72.185  1.00  0.00    -0.463 C  
HETATM   32  C   UNL     1     -14.139   9.064  72.054  1.00  0.00    -0.434 C  
ENDBRANCH  27  28
ENDBRANCH   1  27
TORSDOF 12
ENDMDL
MODEL      285
REMARK 921   NORMALIZED FREE ENERGY PREDICTED BY IDOCK:   -3.73 KCAL/MOL
REMARK 922        TOTAL FREE ENERGY PREDICTED BY IDOCK:   -8.41 KCAL/MOL
REMARK 923 INTER-LIGAND FREE ENERGY PREDICTED BY IDOCK:   -6.94 KCAL/MOL
REMARK 924 INTRA-LIGAND FREE ENERGY PREDICTED BY IDOCK:   -1.47 KCAL/MOL
REMARK 927      BINDING AFFINITY PREDICTED BY RF-SCORE:    0.00 PKD
ROOT
HETATM    1  C   UNL     1      -9.489  10.028  68.596  1.00  0.00    -0.156 C  
ENDROOT
BRANCH   1   2
HETATM    2  C   UNL     1      -9.066   8.597  69.063  1.00  0.00    -0.145 C  
HETATM    3  O   UNL     1      -7.892   8.638  69.886  1.00  0.00    -0.087 OA 
HETATM    4  H   UNL     1      -7.635   7.769  70.170  1.00  0.00     0.000 HD 
BRANCH   2   5
HETATM    5  C   UNL     1      -8.898   7.607  67.907  1.00  0.00    -0.126 A  
HETATM    6  C   UNL     1     -10.988   4.509  65.139  1.00  0.00     0.021 C  
HETATM    7  C   UNL     1      -9.765   5.707  66.654  1.00  0.00    -0.158 A  
HETATM    8  C   UNL     1      -7.904   7.755  66.921  1.00  0.00    -0.107 A  
HETATM    9  C   UNL     1      -8.768   5.858  65.689  1.00  0.00    -0.146 A  
HETATM   10  C   UNL     1      -9.686   4.068  64.489  1.00  0.00    -0.182 C  
HETATM   11  C   UNL     1      -9.809   6.541  67.774  1.00  0.00    -0.139 A  
HETATM   12  O   UNL     1      -8.682   5.090  64.557  1.00  0.00    -0.151 OA 
HETATM   13  O   UNL     1     -10.772   4.782  66.529  1.00  0.00    -0.217 OA 
HETATM   14  C   UNL     1      -7.825   6.872  65.835  1.00  0.00    -0.106 A  
ENDBRANCH   2   5
ENDBRANCH   1   2
BRANCH   1  15
HETATM   15  N   UNL     1     -10.310  10.635  69.658  1.00  0.00    -0.385 NA 
HETATM   16  H   UNL     1      -9.814  11.193  70.354  1.00  0.00     0.000 HD 
BRANCH  15  17
HETATM   17  C   UNL     1     -11.570  10.538  69.800  1.00  0.00    -0.294 C  
HETATM   18  H   UNL     1     -13.430  11.176  69.248  1.00  0.00     0.000 HD 
HETATM   19  O   UNL     1     -12.488  11.248  69.142  1.00  0.00    -0.378 OA 
BRANCH  17  20
HETATM   20  C   UNL     1     -12.147   9.559  70.791  1.00  0.00    -0.305 C  
BRANCH  20  21
HETATM   21  C   UNL     1     -11.083   8.933  71.687  1.00  0.00    -0.420 C  
BRANCH  21  22
HETATM   22  C   UNL     1     -11.648   7.895  72.660  1.00  0.00    -0.435 C  
BRANCH  22  23
HETATM   23  C   UNL     1     -12.110   6.643  71.913  1.00  0.00    -0.385 C  
BRANCH  23  24
HETATM   24  C   UNL     1     -11.018   6.093  70.997  1.00  0.00    -0.354 C  
BRANCH  24  25
HETATM   25  C   UNL     1      -9.912   5.414  71.805  1.00  0.00    -0.235 C  
HETATM   26  C   UNL     1      -8.573   5.484  71.089  1.00  0.00    -0.127 C  
ENDBRANCH  24  25
ENDBRANCH  23  24
ENDBRANCH  22  23
ENDBRANCH  21  22
ENDBRANCH  20  21
ENDBRANCH  17  20
ENDBRANCH  15  17
ENDBRANCH   1  15
BRANCH   1  27
HETATM   27  C   UNL     1     -10.403  10.120  67.324  1.00  0.00    -0.237 C  
BRANCH  27  28
HETATM   28  N   UNL     1     -10.033  10.928  66.136  1.00  0.00    -0.224 NA 
HETATM   29  C   UNL     1     -11.110  11.904  65.848  1.00  0.00    -0.316 C  
HETATM   30  C   UNL     1      -9.892  10.110  64.930  1.00  0.00    -0.319 C  
HETATM   31  C   UNL     1     -11.301  11.960  64.339  1.00  0.00    -0.395 C  
HETATM   32  C   UNL     1     -10.288  10.996  63.766  1.00  0.00    -0.427 C  
ENDBRANCH  27  28
ENDBRANCH   1  27
TORSDOF 12
ENDMDL
MODEL      286
REMARK 921   NORMALIZED FREE ENERGY PREDICTED BY IDOCK:   -3.73 KCAL/MOL
REMARK 922        TOTAL FREE ENERGY PREDICTED BY IDOCK:   -8.40 KCAL/MOL
REMARK 923 INTER-LIGAND FREE ENERGY PREDICTED BY IDOCK:   -6.68 KCAL/MOL
REMARK 924 INTRA-LIGAND FREE ENERGY PREDICTED BY IDOCK:   -1.72 KCAL/MOL
REMARK 927      BINDING AFFINITY PREDICTED BY RF-SCORE:    0.00 PKD
ROOT
HETATM    1  C   UNL     1      -8.790  11.118  66.923  1.00  0.00    -0.157 C  
ENDROOT
BRANCH   1   2
HETATM    2  C   UNL     1      -7.893  11.025  68.200  1.00  0.00    -0.116 C  
HETATM    3  O   UNL     1      -6.575  10.555  67.884  1.00  0.00    -0.060 OA 
HETATM    4  H   UNL     1      -6.030  10.499  68.660  1.00  0.00     0.000 HD 
BRANCH   2   5
HETATM    5  C   UNL     1      -8.522  10.196  69.323  1.00  0.00    -0.167 A  
HETATM    6  C   UNL     1     -12.464   8.581  71.188  1.00  0.00    -0.174 C  
HETATM    7  C   UNL     1     -10.504   9.603  70.610  1.00  0.00    -0.312 A  
HETATM    8  C   UNL     1      -7.837   9.148  69.968  1.00  0.00    -0.099 A  
HETATM    9  C   UNL     1      -9.810   8.575  71.250  1.00  0.00    -0.216 A  
HETATM   10  C   UNL     1     -11.764   8.005  72.409  1.00  0.00    -0.386 C  
HETATM   11  C   UNL     1      -9.861  10.435  69.689  1.00  0.00    -0.179 A  
HETATM   12  O   UNL     1     -10.386   7.711  72.144  1.00  0.00    -0.204 OA 
HETATM   13  O   UNL     1     -11.846   9.816  70.806  1.00  0.00    -0.287 OA 
HETATM   14  C   UNL     1      -8.469   8.362  70.941  1.00  0.00    -0.158 A  
ENDBRANCH   2   5
ENDBRANCH   1   2
BRANCH   1  15
HETATM   15  N   UNL     1      -7.915  11.053  65.740  1.00  0.00    -0.340 NA 
HETATM   16  H   UNL     1      -7.535  11.939  65.404  1.00  0.00     0.000 HD 
BRANCH  15  17
HETATM   17  C   UNL     1      -7.582  10.010  65.092  1.00  0.00    -0.138 C  
HETATM   18  H   UNL     1      -6.094   8.757  64.471  1.00  0.00     0.000 HD 
HETATM   19  O   UNL     1      -6.343   9.537  64.956  1.00  0.00    -0.076 OA 
BRANCH  17  20
HETATM   20  C   UNL     1      -8.632   9.194  64.380  1.00  0.00    -0.204 C  
BRANCH  20  21
HETATM   21  C   UNL     1      -8.472   7.695  64.614  1.00  0.00     0.077 C  
BRANCH  21  22
HETATM   22  C   UNL     1      -8.847   7.262  66.033  1.00  0.00    -0.161 C  
BRANCH  22  23
HETATM   23  C   UNL     1      -8.784   5.740  66.173  1.00  0.00    -0.139 C  
BRANCH  23  24
HETATM   24  C   UNL     1      -9.907   5.205  67.060  1.00  0.00    -0.197 C  
BRANCH  24  25
HETATM   25  C   UNL     1     -10.742   6.347  67.639  1.00  0.00    -0.387 C  
HETATM   26  C   UNL     1     -11.118   6.086  69.088  1.00  0.00    -0.405 C  
ENDBRANCH  24  25
ENDBRANCH  23  24
ENDBRANCH  22  23
ENDBRANCH  21  22
ENDBRANCH  20  21
ENDBRANCH  17  20
ENDBRANCH  15  17
ENDBRANCH   1  15
BRANCH   1  27
HETATM   27  C   UNL     1      -9.597  12.447  66.715  1.00  0.00    -0.224 C  
BRANCH  27  28
HETATM   28  N   UNL     1     -11.051  12.456  66.420  1.00  0.00    -0.286 NA 
HETATM   29  C   UNL     1     -11.276  11.979  65.035  1.00  0.00    -0.320 C  
HETATM   30  C   UNL     1     -11.621  13.803  66.484  1.00  0.00    -0.365 C  
HETATM   31  C   UNL     1     -12.359  12.847  64.410  1.00  0.00    -0.468 C  
HETATM   32  C   UNL     1     -12.762  13.829  65.486  1.00  0.00    -0.530 C  
ENDBRANCH  27  28
ENDBRANCH   1  27
TORSDOF 12
ENDMDL
MODEL      287
REMARK 921   NORMALIZED FREE ENERGY PREDICTED BY IDOCK:   -3.73 KCAL/MOL
REMARK 922        TOTAL FREE ENERGY PREDICTED BY IDOCK:   -8.40 KCAL/MOL
REMARK 923 INTER-LIGAND FREE ENERGY PREDICTED BY IDOCK:   -6.29 KCAL/MOL
REMARK 924 INTRA-LIGAND FREE ENERGY PREDICTED BY IDOCK:   -2.10 KCAL/MOL
REMARK 927      BINDING AFFINITY PREDICTED BY RF-SCORE:    0.00 PKD
ROOT
HETATM    1  C   UNL     1      -8.568  12.826  67.258  1.00  0.00    -0.197 C  
ENDROOT
BRANCH   1   2
HETATM    2  C   UNL     1      -7.351  11.868  67.480  1.00  0.00    -0.132 C  
HETATM    3  O   UNL     1      -6.752  11.483  66.235  1.00  0.00    -0.354 OA 
HETATM    4  H   UNL     1      -6.013  10.901  66.370  1.00  0.00     0.000 HD 
BRANCH   2   5
HETATM    5  C   UNL     1      -7.692  10.644  68.333  1.00  0.00    -0.106 A  
HETATM    6  C   UNL     1     -10.928   8.502  70.897  1.00  0.00    -0.251 C  
HETATM    7  C   UNL     1      -9.142   9.604  69.993  1.00  0.00    -0.237 A  
HETATM    8  C   UNL     1      -7.072   9.394  68.148  1.00  0.00    -0.076 A  
HETATM    9  C   UNL     1      -8.510   8.374  69.808  1.00  0.00    -0.127 A  
HETATM   10  C   UNL     1      -9.976   7.411  71.360  1.00  0.00    -0.186 C  
HETATM   11  C   UNL     1      -8.714  10.739  69.299  1.00  0.00    -0.044 A  
HETATM   12  O   UNL     1      -8.895   7.219  70.439  1.00  0.00    -0.148 OA 
HETATM   13  O   UNL     1     -10.234   9.753  70.811  1.00  0.00    -0.280 OA 
HETATM   14  C   UNL     1      -7.461   8.275  68.898  1.00  0.00    -0.092 A  
ENDBRANCH   2   5
ENDBRANCH   1   2
BRANCH   1  15
HETATM   15  N   UNL     1      -8.990  12.716  65.851  1.00  0.00    -0.397 NA 
HETATM   16  H   UNL     1      -8.270  12.878  65.145  1.00  0.00     0.000 HD 
BRANCH  15  17
HETATM   17  C   UNL     1     -10.155  12.440  65.421  1.00  0.00    -0.269 C  
HETATM   18  H   UNL     1     -11.593  12.732  64.002  1.00  0.00     0.000 HD 
HETATM   19  O   UNL     1     -10.722  12.939  64.322  1.00  0.00    -0.359 OA 
BRANCH  17  20
HETATM   20  C   UNL     1     -11.033  11.477  66.181  1.00  0.00    -0.320 C  
BRANCH  20  21
HETATM   21  C   UNL     1     -10.775  10.022  65.804  1.00  0.00     0.204 C  
BRANCH  21  22
HETATM   22  C   UNL     1     -10.616   9.103  67.017  1.00  0.00    -0.266 C  
BRANCH  22  23
HETATM   23  C   UNL     1     -10.279   7.676  66.579  1.00  0.00    -0.178 C  
BRANCH  23  24
HETATM   24  C   UNL     1     -10.923   6.635  67.494  1.00  0.00    -0.416 C  
BRANCH  24  25
HETATM   25  C   UNL     1     -10.276   5.262  67.304  1.00  0.00    -0.252 C  
HETATM   26  C   UNL     1     -10.472   4.742  65.890  1.00  0.00    -0.313 C  
ENDBRANCH  24  25
ENDBRANCH  23  24
ENDBRANCH  22  23
ENDBRANCH  21  22
ENDBRANCH  20  21
ENDBRANCH  17  20
ENDBRANCH  15  17
ENDBRANCH   1  15
BRANCH   1  27
HETATM   27  C   UNL     1      -8.309  14.361  67.448  1.00  0.00    -0.201 C  
BRANCH  27  28
HETATM   28  N   UNL     1      -9.105  15.191  68.386  1.00  0.00    -0.179 NA 
HETATM   29  C   UNL     1     -10.480  15.354  67.855  1.00  0.00    -0.256 C  
HETATM   30  C   UNL     1      -8.562  16.543  68.529  1.00  0.00    -0.223 C  
HETATM   31  C   UNL     1     -10.910  16.793  68.101  1.00  0.00    -0.353 C  
HETATM   32  C   UNL     1      -9.745  17.449  68.805  1.00  0.00    -0.282 C  
ENDBRANCH  27  28
ENDBRANCH   1  27
TORSDOF 12
ENDMDL
MODEL      288
REMARK 921   NORMALIZED FREE ENERGY PREDICTED BY IDOCK:   -3.72 KCAL/MOL
REMARK 922        TOTAL FREE ENERGY PREDICTED BY IDOCK:   -8.39 KCAL/MOL
REMARK 923 INTER-LIGAND FREE ENERGY PREDICTED BY IDOCK:   -6.87 KCAL/MOL
REMARK 924 INTRA-LIGAND FREE ENERGY PREDICTED BY IDOCK:   -1.52 KCAL/MOL
REMARK 927      BINDING AFFINITY PREDICTED BY RF-SCORE:    0.00 PKD
ROOT
HETATM    1  C   UNL     1      -8.713  13.841  68.189  1.00  0.00    -0.183 C  
ENDROOT
BRANCH   1   2
HETATM    2  C   UNL     1      -7.664  12.749  68.582  1.00  0.00    -0.064 C  
HETATM    3  O   UNL     1      -6.323  13.246  68.474  1.00  0.00    -0.071 OA 
HETATM    4  H   UNL     1      -5.685  12.583  68.713  1.00  0.00     0.000 HD 
BRANCH   2   5
HETATM    5  C   UNL     1      -7.834  11.440  67.807  1.00  0.00    -0.117 A  
HETATM    6  C   UNL     1     -10.377   7.588  67.241  1.00  0.00    -0.296 C  
HETATM    7  C   UNL     1      -8.840   9.226  67.659  1.00  0.00    -0.119 A  
HETATM    8  C   UNL     1      -7.362  11.271  66.491  1.00  0.00    -0.101 A  
HETATM    9  C   UNL     1      -8.356   9.067  66.360  1.00  0.00    -0.115 A  
HETATM   10  C   UNL     1      -9.402   6.974  66.249  1.00  0.00    -0.098 C  
HETATM   11  C   UNL     1      -8.549  10.378  68.395  1.00  0.00    -0.128 A  
HETATM   12  O   UNL     1      -8.624   7.974  65.577  1.00  0.00    -0.155 OA 
HETATM   13  O   UNL     1      -9.659   8.300  68.256  1.00  0.00    -0.144 OA 
HETATM   14  C   UNL     1      -7.599  10.084  65.784  1.00  0.00    -0.120 A  
ENDBRANCH   2   5
ENDBRANCH   1   2
BRANCH   1  15
HETATM   15  N   UNL     1      -9.885  13.165  67.607  1.00  0.00    -0.214 NA 
HETATM   16  H   UNL     1      -9.713  12.575  66.792  1.00  0.00     0.000 HD 
BRANCH  15  17
HETATM   17  C   UNL     1     -11.089  13.237  68.013  1.00  0.00    -0.256 C  
HETATM   18  H   UNL     1     -13.019  12.597  67.834  1.00  0.00     0.000 HD 
HETATM   19  O   UNL     1     -12.120  12.542  67.531  1.00  0.00    -0.453 OA 
BRANCH  17  20
HETATM   20  C   UNL     1     -11.455  14.182  69.130  1.00  0.00    -0.338 C  
BRANCH  20  21
HETATM   21  C   UNL     1     -12.774  13.816  69.803  1.00  0.00     0.089 C  
BRANCH  21  22
HETATM   22  C   UNL     1     -12.627  13.519  71.297  1.00  0.00    -0.427 C  
BRANCH  22  23
HETATM   23  C   UNL     1     -13.123  12.109  71.624  1.00  0.00    -0.413 C  
BRANCH  23  24
HETATM   24  C   UNL     1     -12.418  11.049  70.779  1.00  0.00    -0.491 C  
BRANCH  24  25
HETATM   25  C   UNL     1     -12.225   9.755  71.569  1.00  0.00    -0.493 C  
HETATM   26  C   UNL     1     -13.555   9.132  71.956  1.00  0.00    -0.520 C  
ENDBRANCH  24  25
ENDBRANCH  23  24
ENDBRANCH  22  23
ENDBRANCH  21  22
ENDBRANCH  20  21
ENDBRANCH  17  20
ENDBRANCH  15  17
ENDBRANCH   1  15
BRANCH   1  27
HETATM   27  C   UNL     1      -8.290  14.868  67.082  1.00  0.00    -0.221 C  
BRANCH  27  28
HETATM   28  N   UNL     1      -8.563  16.321  67.201  1.00  0.00    -0.175 NA 
HETATM   29  C   UNL     1      -8.699  16.682  68.632  1.00  0.00    -0.250 C  
HETATM   30  C   UNL     1      -9.824  16.704  66.564  1.00  0.00    -0.281 C  
HETATM   31  C   UNL     1      -9.848  17.673  68.759  1.00  0.00    -0.334 C  
HETATM   32  C   UNL     1     -10.359  17.883  67.352  1.00  0.00    -0.383 C  
ENDBRANCH  27  28
ENDBRANCH   1  27
TORSDOF 12
ENDMDL
MODEL      289
REMARK 921   NORMALIZED FREE ENERGY PREDICTED BY IDOCK:   -3.72 KCAL/MOL
REMARK 922        TOTAL FREE ENERGY PREDICTED BY IDOCK:   -8.38 KCAL/MOL
REMARK 923 INTER-LIGAND FREE ENERGY PREDICTED BY IDOCK:   -7.29 KCAL/MOL
REMARK 924 INTRA-LIGAND FREE ENERGY PREDICTED BY IDOCK:   -1.09 KCAL/MOL
REMARK 927      BINDING AFFINITY PREDICTED BY RF-SCORE:    0.00 PKD
ROOT
HETATM    1  C   UNL     1      -9.776  10.962  68.524  1.00  0.00    -0.183 C  
ENDROOT
BRANCH   1   2
HETATM    2  C   UNL     1      -8.652  10.231  69.330  1.00  0.00    -0.156 C  
HETATM    3  O   UNL     1      -7.418  10.960  69.289  1.00  0.00    -0.123 OA 
HETATM    4  H   UNL     1      -6.734  10.516  69.779  1.00  0.00     0.000 HD 
BRANCH   2   5
HETATM    5  C   UNL     1      -8.450   8.775  68.902  1.00  0.00    -0.131 A  
HETATM    6  C   UNL     1      -9.316   4.309  69.869  1.00  0.00    -0.162 C  
HETATM    7  C   UNL     1      -8.503   6.410  69.485  1.00  0.00    -0.133 A  
HETATM    8  C   UNL     1      -8.241   8.401  67.561  1.00  0.00    -0.125 A  
HETATM    9  C   UNL     1      -8.284   6.053  68.154  1.00  0.00    -0.113 A  
HETATM   10  C   UNL     1      -8.413   3.794  68.760  1.00  0.00    -0.082 C  
HETATM   11  C   UNL     1      -8.543   7.754  69.868  1.00  0.00    -0.137 A  
HETATM   12  O   UNL     1      -8.256   4.757  67.709  1.00  0.00    -0.100 OA 
HETATM   13  O   UNL     1      -8.741   5.479  70.465  1.00  0.00    -0.130 OA 
HETATM   14  C   UNL     1      -8.133   7.052  67.195  1.00  0.00    -0.118 A  
ENDBRANCH   2   5
ENDBRANCH   1   2
BRANCH   1  15
HETATM   15  N   UNL     1      -9.503  12.409  68.563  1.00  0.00    -0.363 NA 
HETATM   16  H   UNL     1      -8.761  12.717  69.192  1.00  0.00     0.000 HD 
BRANCH  15  17
HETATM   17  C   UNL     1     -10.095  13.317  67.895  1.00  0.00    -0.235 C  
HETATM   18  H   UNL     1     -10.847  13.935  66.101  1.00  0.00     0.000 HD 
HETATM   19  O   UNL     1     -10.405  13.257  66.600  1.00  0.00    -0.267 OA 
BRANCH  17  20
HETATM   20  C   UNL     1     -10.500  14.606  68.565  1.00  0.00    -0.247 C  
BRANCH  20  21
HETATM   21  C   UNL     1      -9.520  15.743  68.296  1.00  0.00    -0.200 C  
BRANCH  21  22
HETATM   22  C   UNL     1      -9.744  16.959  69.198  1.00  0.00    -0.177 C  
BRANCH  22  23
HETATM   23  C   UNL     1      -9.142  18.219  68.573  1.00  0.00    -0.328 C  
BRANCH  23  24
HETATM   24  C   UNL     1     -10.215  19.258  68.249  1.00  0.00    -0.513 C  
BRANCH  24  25
HETATM   25  C   UNL     1      -9.761  20.182  67.118  1.00  0.00    -0.576 C  
HETATM   26  C   UNL     1     -10.372  19.779  65.787  1.00  0.00    -0.522 C  
ENDBRANCH  24  25
ENDBRANCH  23  24
ENDBRANCH  22  23
ENDBRANCH  21  22
ENDBRANCH  20  21
ENDBRANCH  17  20
ENDBRANCH  15  17
ENDBRANCH   1  15
BRANCH   1  27
HETATM   27  C   UNL     1     -11.239  10.846  69.079  1.00  0.00    -0.266 C  
BRANCH  27  28
HETATM   28  N   UNL     1     -11.552  10.958  70.524  1.00  0.00    -0.328 NA 
HETATM   29  C   UNL     1     -12.280   9.745  70.966  1.00  0.00    -0.347 C  
HETATM   30  C   UNL     1     -12.433  12.090  70.815  1.00  0.00    -0.279 C  
HETATM   31  C   UNL     1     -13.387  10.183  71.915  1.00  0.00    -0.505 C  
HETATM   32  C   UNL     1     -13.263  11.686  72.017  1.00  0.00    -0.443 C  
ENDBRANCH  27  28
ENDBRANCH   1  27
TORSDOF 12
ENDMDL
MODEL      290
REMARK 921   NORMALIZED FREE ENERGY PREDICTED BY IDOCK:   -3.72 KCAL/MOL
REMARK 922        TOTAL FREE ENERGY PREDICTED BY IDOCK:   -8.38 KCAL/MOL
REMARK 923 INTER-LIGAND FREE ENERGY PREDICTED BY IDOCK:   -6.85 KCAL/MOL
REMARK 924 INTRA-LIGAND FREE ENERGY PREDICTED BY IDOCK:   -1.53 KCAL/MOL
REMARK 927      BINDING AFFINITY PREDICTED BY RF-SCORE:    0.00 PKD
ROOT
HETATM    1  C   UNL     1     -10.699   6.211  70.142  1.00  0.00    -0.302 C  
ENDROOT
BRANCH   1   2
HETATM    2  C   UNL     1      -9.179   5.951  69.881  1.00  0.00    -0.146 C  
HETATM    3  O   UNL     1      -8.738   4.737  70.504  1.00  0.00    -0.099 OA 
HETATM    4  H   UNL     1      -7.815   4.580  70.346  1.00  0.00     0.000 HD 
BRANCH   2   5
HETATM    5  C   UNL     1      -8.287   7.132  70.274  1.00  0.00    -0.136 A  
HETATM    6  C   UNL     1      -6.924  11.456  69.241  1.00  0.00    -0.115 C  
HETATM    7  C   UNL     1      -7.212   9.226  69.647  1.00  0.00    -0.063 A  
HETATM    8  C   UNL     1      -7.882   7.367  71.602  1.00  0.00    -0.087 A  
HETATM    9  C   UNL     1      -6.807   9.440  70.965  1.00  0.00    -0.067 A  
HETATM   10  C   UNL     1      -5.851  11.479  70.317  1.00  0.00    -0.158 C  
HETATM   11  C   UNL     1      -7.906   8.066  69.291  1.00  0.00    -0.114 A  
HETATM   12  O   UNL     1      -6.145  10.565  71.383  1.00  0.00    -0.325 OA 
HETATM   13  O   UNL     1      -7.002  10.152  68.654  1.00  0.00    -0.060 OA 
HETATM   14  C   UNL     1      -7.127   8.498  71.939  1.00  0.00    -0.106 A  
ENDBRANCH   2   5
ENDBRANCH   1   2
BRANCH   1  15
HETATM   15  N   UNL     1     -11.328   6.589  68.864  1.00  0.00    -0.590 NA 
HETATM   16  H   UNL     1     -12.218   7.084  68.923  1.00  0.00     0.000 HD 
BRANCH  15  17
HETATM   17  C   UNL     1     -10.878   6.364  67.696  1.00  0.00    -0.339 C  
HETATM   18  H   UNL     1     -10.295   4.996  66.297  1.00  0.00     0.000 HD 
HETATM   19  O   UNL     1     -10.631   5.164  67.170  1.00  0.00    -0.201 OA 
BRANCH  17  20
HETATM   20  C   UNL     1     -10.564   7.515  66.772  1.00  0.00    -0.269 C  
BRANCH  20  21
HETATM   21  C   UNL     1     -10.615   8.866  67.476  1.00  0.00    -0.307 C  
BRANCH  21  22
HETATM   22  C   UNL     1     -10.749  10.046  66.510  1.00  0.00    -0.094 C  
BRANCH  22  23
HETATM   23  C   UNL     1      -9.377  10.493  66.002  1.00  0.00    -0.215 C  
BRANCH  23  24
HETATM   24  C   UNL     1      -9.478  11.216  64.660  1.00  0.00    -0.245 C  
BRANCH  24  25
HETATM   25  C   UNL     1     -10.922  11.249  64.160  1.00  0.00    -0.376 C  
HETATM   26  C   UNL     1     -11.341  12.651  63.751  1.00  0.00    -0.529 C  
ENDBRANCH  24  25
ENDBRANCH  23  24
ENDBRANCH  22  23
ENDBRANCH  21  22
ENDBRANCH  20  21
ENDBRANCH  17  20
ENDBRANCH  15  17
ENDBRANCH   1  15
BRANCH   1  27
HETATM   27  C   UNL     1     -11.064   7.398  71.100  1.00  0.00    -0.252 C  
BRANCH  27  28
HETATM   28  N   UNL     1     -12.146   8.365  70.791  1.00  0.00    -0.137 NA 
HETATM   29  C   UNL     1     -11.639   9.746  70.974  1.00  0.00    -0.376 C  
HETATM   30  C   UNL     1     -13.288   8.228  71.696  1.00  0.00    -0.330 C  
HETATM   31  C   UNL     1     -12.735  10.562  71.645  1.00  0.00    -0.550 C  
HETATM   32  C   UNL     1     -13.895   9.610  71.828  1.00  0.00    -0.261 C  
ENDBRANCH  27  28
ENDBRANCH   1  27
TORSDOF 12
ENDMDL
MODEL      291
REMARK 921   NORMALIZED FREE ENERGY PREDICTED BY IDOCK:   -3.71 KCAL/MOL
REMARK 922        TOTAL FREE ENERGY PREDICTED BY IDOCK:   -8.37 KCAL/MOL
REMARK 923 INTER-LIGAND FREE ENERGY PREDICTED BY IDOCK:   -7.53 KCAL/MOL
REMARK 924 INTRA-LIGAND FREE ENERGY PREDICTED BY IDOCK:   -0.84 KCAL/MOL
REMARK 927      BINDING AFFINITY PREDICTED BY RF-SCORE:    0.00 PKD
ROOT
HETATM    1  C   UNL     1      -9.848  10.125  64.983  1.00  0.00    -0.322 C  
ENDROOT
BRANCH   1   2
HETATM    2  C   UNL     1     -10.977  11.047  64.416  1.00  0.00    -0.087 C  
HETATM    3  O   UNL     1     -10.877  11.186  62.993  1.00  0.00    -0.797 OA 
HETATM    4  H   UNL     1     -11.563  11.747  62.648  1.00  0.00     0.000 HD 
BRANCH   2   5
HETATM    5  C   UNL     1     -11.045  12.414  65.103  1.00  0.00    -0.348 A  
HETATM    6  C   UNL     1     -11.495  14.694  69.132  1.00  0.00    -0.294 C  
HETATM    7  C   UNL     1     -11.643  13.727  67.067  1.00  0.00    -0.365 A  
HETATM    8  C   UNL     1     -10.429  13.562  64.571  1.00  0.00    -0.426 A  
HETATM    9  C   UNL     1     -11.039  14.860  66.522  1.00  0.00    -0.341 A  
HETATM   10  C   UNL     1     -11.579  16.056  68.462  1.00  0.00    -0.316 C  
HETATM   11  C   UNL     1     -11.688  12.526  66.352  1.00  0.00    -0.458 A  
HETATM   12  O   UNL     1     -10.941  16.060  67.178  1.00  0.00    -0.289 OA 
HETATM   13  O   UNL     1     -12.170  13.714  68.335  1.00  0.00    -0.332 OA 
HETATM   14  C   UNL     1     -10.448  14.781  65.263  1.00  0.00    -0.427 A  
ENDBRANCH   2   5
ENDBRANCH   1   2
BRANCH   1  15
HETATM   15  N   UNL     1     -10.217   9.737  66.356  1.00  0.00    -0.237 NA 
HETATM   16  H   UNL     1     -10.613  10.469  66.946  1.00  0.00     0.000 HD 
BRANCH  15  17
HETATM   17  C   UNL     1     -10.095   8.585  66.883  1.00  0.00    -0.294 C  
HETATM   18  H   UNL     1     -10.424   7.373  68.492  1.00  0.00     0.000 HD 
HETATM   19  O   UNL     1     -10.515   8.233  68.098  1.00  0.00    -0.211 OA 
BRANCH  17  20
HETATM   20  C   UNL     1      -9.414   7.474  66.124  1.00  0.00    -0.095 C  
BRANCH  20  21
HETATM   21  C   UNL     1      -9.443   6.145  66.872  1.00  0.00    -0.151 C  
BRANCH  21  22
HETATM   22  C   UNL     1     -10.483   5.166  66.322  1.00  0.00    -0.341 C  
BRANCH  22  23
HETATM   23  C   UNL     1      -9.825   4.127  65.412  1.00  0.00    -0.212 C  
BRANCH  23  24
HETATM   24  C   UNL     1     -10.674   3.840  64.174  1.00  0.00    -0.240 C  
BRANCH  24  25
HETATM   25  C   UNL     1     -10.164   2.604  63.432  1.00  0.00    -0.161 C  
HETATM   26  C   UNL     1      -8.811   2.857  62.788  1.00  0.00    -0.088 C  
ENDBRANCH  24  25
ENDBRANCH  23  24
ENDBRANCH  22  23
ENDBRANCH  21  22
ENDBRANCH  20  21
ENDBRANCH  17  20
ENDBRANCH  15  17
ENDBRANCH   1  15
BRANCH   1  27
HETATM   27  C   UNL     1      -8.425  10.763  65.149  1.00  0.00    -0.101 C  
BRANCH  27  28
HETATM   28  N   UNL     1      -7.744  10.858  66.463  1.00  0.00    -0.144 NA 
HETATM   29  C   UNL     1      -7.942  12.215  67.025  1.00  0.00    -0.138 C  
HETATM   30  C   UNL     1      -6.297  10.671  66.354  1.00  0.00    -0.109 C  
HETATM   31  C   UNL     1      -6.630  12.657  67.658  1.00  0.00    -0.143 C  
HETATM   32  C   UNL     1      -5.675  11.503  67.457  1.00  0.00    -0.063 C  
ENDBRANCH  27  28
ENDBRANCH   1  27
TORSDOF 12
ENDMDL
MODEL      292
REMARK 921   NORMALIZED FREE ENERGY PREDICTED BY IDOCK:   -3.71 KCAL/MOL
REMARK 922        TOTAL FREE ENERGY PREDICTED BY IDOCK:   -8.36 KCAL/MOL
REMARK 923 INTER-LIGAND FREE ENERGY PREDICTED BY IDOCK:   -6.37 KCAL/MOL
REMARK 924 INTRA-LIGAND FREE ENERGY PREDICTED BY IDOCK:   -2.00 KCAL/MOL
REMARK 927      BINDING AFFINITY PREDICTED BY RF-SCORE:    0.00 PKD
ROOT
HETATM    1  C   UNL     1     -10.497   9.810  68.435  1.00  0.00    -0.218 C  
ENDROOT
BRANCH   1   2
HETATM    2  C   UNL     1     -11.325  10.001  69.748  1.00  0.00    -0.228 C  
HETATM    3  O   UNL     1     -10.912  11.173  70.464  1.00  0.00    -0.342 OA 
HETATM    4  H   UNL     1     -11.415  11.289  71.262  1.00  0.00     0.000 HD 
BRANCH   2   5
HETATM    5  C   UNL     1     -11.315   8.767  70.654  1.00  0.00    -0.289 A  
HETATM    6  C   UNL     1      -9.555   4.524  71.384  1.00  0.00    -0.165 C  
HETATM    7  C   UNL     1     -10.771   6.411  70.953  1.00  0.00    -0.250 A  
HETATM    8  C   UNL     1     -11.617   8.831  72.028  1.00  0.00    -0.436 A  
HETATM    9  C   UNL     1     -11.084   6.487  72.311  1.00  0.00    -0.263 A  
HETATM   10  C   UNL     1     -10.481   4.236  72.555  1.00  0.00    -0.152 C  
HETATM   11  C   UNL     1     -10.924   7.523  70.121  1.00  0.00    -0.267 A  
HETATM   12  O   UNL     1     -10.935   5.441  73.186  1.00  0.00    -0.257 OA 
HETATM   13  O   UNL     1     -10.252   5.275  70.382  1.00  0.00    -0.231 OA 
HETATM   14  C   UNL     1     -11.527   7.695  72.843  1.00  0.00    -0.342 A  
ENDBRANCH   2   5
ENDBRANCH   1   2
BRANCH   1  15
HETATM   15  N   UNL     1      -9.159  10.388  68.646  1.00  0.00    -0.149 NA 
HETATM   16  H   UNL     1      -8.996  11.315  68.252  1.00  0.00     0.000 HD 
BRANCH  15  17
HETATM   17  C   UNL     1      -8.185   9.855  69.267  1.00  0.00    -0.138 C  
HETATM   18  H   UNL     1      -7.279   9.458  71.053  1.00  0.00     0.000 HD 
HETATM   19  O   UNL     1      -8.007   9.856  70.589  1.00  0.00    -0.257 OA 
BRANCH  17  20
HETATM   20  C   UNL     1      -7.094   9.150  68.501  1.00  0.00    -0.072 C  
BRANCH  20  21
HETATM   21  C   UNL     1      -6.703   9.884  67.223  1.00  0.00    -0.074 C  
BRANCH  21  22
HETATM   22  C   UNL     1      -6.844   9.024  65.965  1.00  0.00    -0.080 C  
BRANCH  22  23
HETATM   23  C   UNL     1      -7.656   7.761  66.257  1.00  0.00    -0.087 C  
BRANCH  23  24
HETATM   24  C   UNL     1      -8.084   7.053  64.972  1.00  0.00    -0.119 C  
BRANCH  24  25
HETATM   25  C   UNL     1      -7.258   7.533  63.778  1.00  0.00    -0.078 C  
HETATM   26  C   UNL     1      -8.145   7.972  62.625  1.00  0.00    -0.152 C  
ENDBRANCH  24  25
ENDBRANCH  23  24
ENDBRANCH  22  23
ENDBRANCH  21  22
ENDBRANCH  20  21
ENDBRANCH  17  20
ENDBRANCH  15  17
ENDBRANCH   1  15
BRANCH   1  27
HETATM   27  C   UNL     1     -11.020  10.545  67.151  1.00  0.00    -0.228 C  
BRANCH  27  28
HETATM   28  N   UNL     1     -10.110  11.021  66.082  1.00  0.00    -0.229 NA 
HETATM   29  C   UNL     1     -10.544  12.363  65.627  1.00  0.00    -0.265 C  
HETATM   30  C   UNL     1     -10.145  10.160  64.899  1.00  0.00    -0.207 C  
HETATM   31  C   UNL     1     -10.408  12.411  64.111  1.00  0.00    -0.409 C  
HETATM   32  C   UNL     1      -9.867  11.059  63.710  1.00  0.00    -0.379 C  
ENDBRANCH  27  28
ENDBRANCH   1  27
TORSDOF 12
ENDMDL
MODEL      293
REMARK 921   NORMALIZED FREE ENERGY PREDICTED BY IDOCK:   -3.70 KCAL/MOL
REMARK 922        TOTAL FREE ENERGY PREDICTED BY IDOCK:   -8.35 KCAL/MOL
REMARK 923 INTER-LIGAND FREE ENERGY PREDICTED BY IDOCK:   -6.94 KCAL/MOL
REMARK 924 INTRA-LIGAND FREE ENERGY PREDICTED BY IDOCK:   -1.42 KCAL/MOL
REMARK 927      BINDING AFFINITY PREDICTED BY RF-SCORE:    0.00 PKD
ROOT
HETATM    1  C   UNL     1      -9.194   8.574  67.412  1.00  0.00    -0.140 C  
ENDROOT
BRANCH   1   2
HETATM    2  C   UNL     1     -10.133   9.372  66.449  1.00  0.00    -0.262 C  
HETATM    3  O   UNL     1      -9.604   9.416  65.117  1.00  0.00    -0.416 OA 
HETATM    4  H   UNL     1     -10.175   9.901  64.531  1.00  0.00     0.000 HD 
BRANCH   2   5
HETATM    5  C   UNL     1     -10.469  10.776  66.958  1.00  0.00    -0.297 A  
HETATM    6  C   UNL     1     -10.595  15.318  65.965  1.00  0.00    -0.319 C  
HETATM    7  C   UNL     1     -10.234  13.189  66.712  1.00  0.00    -0.252 A  
HETATM    8  C   UNL     1     -11.435  11.011  67.954  1.00  0.00    -0.358 A  
HETATM    9  C   UNL     1     -11.185  13.407  67.710  1.00  0.00    -0.279 A  
HETATM   10  C   UNL     1     -10.969  15.716  67.383  1.00  0.00    -0.293 C  
HETATM   11  C   UNL     1      -9.845  11.892  66.367  1.00  0.00    -0.234 A  
HETATM   12  O   UNL     1     -11.628  14.650  68.081  1.00  0.00    -0.305 OA 
HETATM   13  O   UNL     1      -9.679  14.217  65.991  1.00  0.00    -0.301 OA 
HETATM   14  C   UNL     1     -11.771  12.315  68.345  1.00  0.00    -0.390 A  
ENDBRANCH   2   5
ENDBRANCH   1   2
BRANCH   1  15
HETATM   15  N   UNL     1      -8.753   9.483  68.484  1.00  0.00    -0.123 NA 
HETATM   16  H   UNL     1      -8.539  10.442  68.208  1.00  0.00     0.000 HD 
BRANCH  15  17
HETATM   17  C   UNL     1      -8.612   9.200  69.716  1.00  0.00    -0.142 C  
HETATM   18  H   UNL     1      -7.440   9.269  71.386  1.00  0.00     0.000 HD 
HETATM   19  O   UNL     1      -7.546   9.481  70.465  1.00  0.00    -0.137 OA 
BRANCH  17  20
HETATM   20  C   UNL     1      -9.708   8.474  70.455  1.00  0.00    -0.202 C  
BRANCH  20  21
HETATM   21  C   UNL     1      -9.786   8.867  71.927  1.00  0.00    -0.364 C  
BRANCH  21  22
HETATM   22  C   UNL     1      -9.427   7.723  72.878  1.00  0.00    -0.294 C  
BRANCH  22  23
HETATM   23  C   UNL     1     -10.686   7.110  73.494  1.00  0.00    -0.375 C  
BRANCH  23  24
HETATM   24  C   UNL     1     -10.932   5.690  72.986  1.00  0.00    -0.325 C  
BRANCH  24  25
HETATM   25  C   UNL     1      -9.678   5.118  72.323  1.00  0.00    -0.201 C  
HETATM   26  C   UNL     1      -9.972   4.601  70.924  1.00  0.00    -0.273 C  
ENDBRANCH  24  25
ENDBRANCH  23  24
ENDBRANCH  22  23
ENDBRANCH  21  22
ENDBRANCH  20  21
ENDBRANCH  17  20
ENDBRANCH  15  17
ENDBRANCH   1  15
BRANCH   1  27
HETATM   27  C   UNL     1      -7.851   8.033  66.810  1.00  0.00    -0.103 C  
BRANCH  27  28
HETATM   28  N   UNL     1      -7.605   6.587  66.586  1.00  0.00    -0.093 NA 
HETATM   29  C   UNL     1      -7.716   6.285  65.140  1.00  0.00    -0.099 C  
HETATM   30  C   UNL     1      -8.599   5.745  67.254  1.00  0.00    -0.109 C  
HETATM   31  C   UNL     1      -8.452   4.961  64.991  1.00  0.00    -0.142 C  
HETATM   32  C   UNL     1      -8.747   4.502  66.400  1.00  0.00    -0.112 C  
ENDBRANCH  27  28
ENDBRANCH   1  27
TORSDOF 12
ENDMDL
MODEL      294
REMARK 921   NORMALIZED FREE ENERGY PREDICTED BY IDOCK:   -3.70 KCAL/MOL
REMARK 922        TOTAL FREE ENERGY PREDICTED BY IDOCK:   -8.35 KCAL/MOL
REMARK 923 INTER-LIGAND FREE ENERGY PREDICTED BY IDOCK:   -7.40 KCAL/MOL
REMARK 924 INTRA-LIGAND FREE ENERGY PREDICTED BY IDOCK:   -0.95 KCAL/MOL
REMARK 927      BINDING AFFINITY PREDICTED BY RF-SCORE:    0.00 PKD
ROOT
HETATM    1  C   UNL     1     -13.108  10.323  70.602  1.00  0.00    -0.226 C  
ENDROOT
BRANCH   1   2
HETATM    2  C   UNL     1     -13.539   9.065  71.426  1.00  0.00    -0.277 C  
HETATM    3  O   UNL     1     -14.110   9.433  72.688  1.00  0.00    -0.735 OA 
HETATM    4  H   UNL     1     -14.372   8.669  73.188  1.00  0.00     0.000 HD 
BRANCH   2   5
HETATM    5  C   UNL     1     -12.412   8.044  71.604  1.00  0.00    -0.347 A  
HETATM    6  C   UNL     1      -9.344   6.150  74.542  1.00  0.00    -0.181 C  
HETATM    7  C   UNL     1     -10.523   7.240  72.915  1.00  0.00    -0.282 A  
HETATM    8  C   UNL     1     -12.309   6.883  70.814  1.00  0.00    -0.314 A  
HETATM    9  C   UNL     1     -10.424   6.099  72.117  1.00  0.00    -0.202 A  
HETATM   10  C   UNL     1      -8.656   5.342  73.454  1.00  0.00    -0.116 C  
HETATM   11  C   UNL     1     -11.475   8.225  72.640  1.00  0.00    -0.423 A  
HETATM   12  O   UNL     1      -9.529   5.086  72.345  1.00  0.00    -0.138 OA 
HETATM   13  O   UNL     1      -9.739   7.428  74.027  1.00  0.00    -0.273 OA 
HETATM   14  C   UNL     1     -11.307   5.932  71.053  1.00  0.00    -0.221 A  
ENDBRANCH   2   5
ENDBRANCH   1   2
BRANCH   1  15
HETATM   15  N   UNL     1     -11.922   9.967  69.804  1.00  0.00    -0.475 NA 
HETATM   16  H   UNL     1     -11.425   9.120  70.080  1.00  0.00     0.000 HD 
BRANCH  15  17
HETATM   17  C   UNL     1     -11.453  10.604  68.807  1.00  0.00    -0.262 C  
HETATM   18  H   UNL     1     -11.557  11.017  66.811  1.00  0.00     0.000 HD 
HETATM   19  O   UNL     1     -11.908  10.541  67.556  1.00  0.00    -0.223 OA 
BRANCH  17  20
HETATM   20  C   UNL     1     -10.269  11.521  68.985  1.00  0.00    -0.109 C  
BRANCH  20  21
HETATM   21  C   UNL     1      -9.031  10.793  69.497  1.00  0.00     0.122 C  
BRANCH  21  22
HETATM   22  C   UNL     1      -7.949  10.616  68.430  1.00  0.00    -0.120 C  
BRANCH  22  23
HETATM   23  C   UNL     1      -6.653  11.313  68.847  1.00  0.00    -0.068 C  
BRANCH  23  24
HETATM   24  C   UNL     1      -6.895  12.765  69.255  1.00  0.00    -0.012 C  
BRANCH  24  25
HETATM   25  C   UNL     1      -5.670  13.631  68.960  1.00  0.00    -0.075 C  
HETATM   26  C   UNL     1      -5.871  14.479  67.716  1.00  0.00    -0.095 C  
ENDBRANCH  24  25
ENDBRANCH  23  24
ENDBRANCH  22  23
ENDBRANCH  21  22
ENDBRANCH  20  21
ENDBRANCH  17  20
ENDBRANCH  15  17
ENDBRANCH   1  15
BRANCH   1  27
HETATM   27  C   UNL     1     -12.643  11.581  71.416  1.00  0.00    -0.314 C  
BRANCH  27  28
HETATM   28  N   UNL     1     -13.250  12.920  71.225  1.00  0.00    -0.162 NA 
HETATM   29  C   UNL     1     -12.211  13.873  70.769  1.00  0.00    -0.369 C  
HETATM   30  C   UNL     1     -13.786  13.470  72.472  1.00  0.00    -0.519 C  
HETATM   31  C   UNL     1     -12.435  15.194  71.492  1.00  0.00    -0.418 C  
HETATM   32  C   UNL     1     -13.647  14.975  72.368  1.00  0.00    -0.565 C  
ENDBRANCH  27  28
ENDBRANCH   1  27
TORSDOF 12
ENDMDL
MODEL      295
REMARK 921   NORMALIZED FREE ENERGY PREDICTED BY IDOCK:   -3.69 KCAL/MOL
REMARK 922        TOTAL FREE ENERGY PREDICTED BY IDOCK:   -8.34 KCAL/MOL
REMARK 923 INTER-LIGAND FREE ENERGY PREDICTED BY IDOCK:   -7.12 KCAL/MOL
REMARK 924 INTRA-LIGAND FREE ENERGY PREDICTED BY IDOCK:   -1.22 KCAL/MOL
REMARK 927      BINDING AFFINITY PREDICTED BY RF-SCORE:    0.00 PKD
ROOT
HETATM    1  C   UNL     1      -7.875  14.592  68.456  1.00  0.00    -0.136 C  
ENDROOT
BRANCH   1   2
HETATM    2  C   UNL     1      -9.361  15.037  68.656  1.00  0.00    -0.202 C  
HETATM    3  O   UNL     1      -9.865  14.627  69.934  1.00  0.00    -0.412 OA 
HETATM    4  H   UNL     1     -10.768  14.897  70.056  1.00  0.00     0.000 HD 
BRANCH   2   5
HETATM    5  C   UNL     1     -10.286  14.585  67.524  1.00  0.00    -0.232 A  
HETATM    6  C   UNL     1     -10.955  11.555  64.059  1.00  0.00    -0.383 C  
HETATM    7  C   UNL     1     -10.585  13.320  65.463  1.00  0.00    -0.287 A  
HETATM    8  C   UNL     1     -11.677  14.797  67.551  1.00  0.00    -0.370 A  
HETATM    9  C   UNL     1     -11.962  13.548  65.496  1.00  0.00    -0.390 A  
HETATM   10  C   UNL     1     -12.200  12.264  63.551  1.00  0.00    -0.568 C  
HETATM   11  C   UNL     1      -9.747  13.866  66.438  1.00  0.00    -0.309 A  
HETATM   12  O   UNL     1     -12.841  13.023  64.585  1.00  0.00    -0.700 OA 
HETATM   13  O   UNL     1      -9.997  12.517  64.518  1.00  0.00    -0.253 OA 
HETATM   14  C   UNL     1     -12.504  14.304  66.531  1.00  0.00    -0.242 A  
ENDBRANCH   2   5
ENDBRANCH   1   2
BRANCH   1  15
HETATM   15  N   UNL     1      -7.655  13.361  69.235  1.00  0.00    -0.310 NA 
HETATM   16  H   UNL     1      -8.041  13.344  70.180  1.00  0.00     0.000 HD 
BRANCH  15  17
HETATM   17  C   UNL     1      -7.034  12.317  68.856  1.00  0.00    -0.098 C  
HETATM   18  H   UNL     1      -5.395  11.511  67.944  1.00  0.00     0.000 HD 
HETATM   19  O   UNL     1      -5.858  12.291  68.228  1.00  0.00    -0.053 OA 
BRANCH  17  20
HETATM   20  C   UNL     1      -7.631  10.953  69.097  1.00  0.00    -0.133 C  
BRANCH  20  21
HETATM   21  C   UNL     1      -7.016   9.876  68.209  1.00  0.00    -0.072 C  
BRANCH  21  22
HETATM   22  C   UNL     1      -7.756   8.538  68.282  1.00  0.00    -0.102 C  
BRANCH  22  23
HETATM   23  C   UNL     1      -9.046   8.584  67.461  1.00  0.00    -0.146 C  
BRANCH  23  24
HETATM   24  C   UNL     1      -8.858   7.972  66.074  1.00  0.00    -0.196 C  
BRANCH  24  25
HETATM   25  C   UNL     1      -8.592   9.055  65.027  1.00  0.00    -0.207 C  
HETATM   26  C   UNL     1      -8.509   8.470  63.627  1.00  0.00    -0.030 C  
ENDBRANCH  24  25
ENDBRANCH  23  24
ENDBRANCH  22  23
ENDBRANCH  21  22
ENDBRANCH  20  21
ENDBRANCH  17  20
ENDBRANCH  15  17
ENDBRANCH   1  15
BRANCH   1  27
HETATM   27  C   UNL     1      -6.763  15.566  68.981  1.00  0.00    -0.131 C  
BRANCH  27  28
HETATM   28  N   UNL     1      -6.499  16.883  68.352  1.00  0.00    -0.146 NA 
HETATM   29  C   UNL     1      -7.681  17.760  68.529  1.00  0.00    -0.289 C  
HETATM   30  C   UNL     1      -6.286  16.776  66.908  1.00  0.00    -0.194 C  
HETATM   31  C   UNL     1      -7.897  18.525  67.231  1.00  0.00    -0.240 C  
HETATM   32  C   UNL     1      -6.792  18.072  66.306  1.00  0.00    -0.291 C  
ENDBRANCH  27  28
ENDBRANCH   1  27
TORSDOF 12
ENDMDL
MODEL      296
REMARK 921   NORMALIZED FREE ENERGY PREDICTED BY IDOCK:   -3.68 KCAL/MOL
REMARK 922        TOTAL FREE ENERGY PREDICTED BY IDOCK:   -8.31 KCAL/MOL
REMARK 923 INTER-LIGAND FREE ENERGY PREDICTED BY IDOCK:   -6.27 KCAL/MOL
REMARK 924 INTRA-LIGAND FREE ENERGY PREDICTED BY IDOCK:   -2.05 KCAL/MOL
REMARK 927      BINDING AFFINITY PREDICTED BY RF-SCORE:    0.00 PKD
ROOT
HETATM    1  C   UNL     1      -9.266   7.306  71.504  1.00  0.00    -0.144 C  
ENDROOT
BRANCH   1   2
HETATM    2  C   UNL     1      -8.231   7.141  70.343  1.00  0.00    -0.126 C  
HETATM    3  O   UNL     1      -7.421   5.971  70.523  1.00  0.00    -0.085 OA 
HETATM    4  H   UNL     1      -6.792   5.871  69.817  1.00  0.00     0.000 HD 
BRANCH   2   5
HETATM    5  C   UNL     1      -7.367   8.385  70.120  1.00  0.00    -0.058 A  
HETATM    6  C   UNL     1      -7.110  12.618  68.212  1.00  0.00    -0.105 C  
HETATM    7  C   UNL     1      -6.957  10.435  68.870  1.00  0.00    -0.067 A  
HETATM    8  C   UNL     1      -6.350   8.772  71.013  1.00  0.00    -0.053 A  
HETATM    9  C   UNL     1      -5.943  10.801  69.756  1.00  0.00    -0.071 A  
HETATM   10  C   UNL     1      -5.639  12.789  68.556  1.00  0.00    -0.058 C  
HETATM   11  C   UNL     1      -7.634   9.222  69.019  1.00  0.00    -0.074 A  
HETATM   12  O   UNL     1      -5.256  11.984  69.680  1.00  0.00    -0.065 OA 
HETATM   13  O   UNL     1      -7.373  11.257  67.852  1.00  0.00    -0.087 OA 
HETATM   14  C   UNL     1      -5.627   9.957  70.818  1.00  0.00    -0.074 A  
ENDBRANCH   2   5
ENDBRANCH   1   2
BRANCH   1  15
HETATM   15  N   UNL     1     -10.418   6.432  71.222  1.00  0.00    -0.211 NA 
HETATM   16  H   UNL     1     -11.139   6.382  71.942  1.00  0.00     0.000 HD 
BRANCH  15  17
HETATM   17  C   UNL     1     -10.609   5.734  70.175  1.00  0.00    -0.307 C  
HETATM   18  H   UNL     1     -10.303   3.975  69.187  1.00  0.00     0.000 HD 
HETATM   19  O   UNL     1     -10.160   4.496  69.969  1.00  0.00    -0.227 OA 
BRANCH  17  20
HETATM   20  C   UNL     1     -11.398   6.302  69.022  1.00  0.00    -0.319 C  
BRANCH  20  21
HETATM   21  C   UNL     1     -10.871   5.844  67.666  1.00  0.00    -0.331 C  
BRANCH  21  22
HETATM   22  C   UNL     1      -9.990   6.889  66.977  1.00  0.00    -0.257 C  
BRANCH  22  23
HETATM   23  C   UNL     1     -10.525   8.300  67.223  1.00  0.00    -0.373 C  
BRANCH  23  24
HETATM   24  C   UNL     1      -9.966   9.302  66.213  1.00  0.00    -0.357 C  
BRANCH  24  25
HETATM   25  C   UNL     1     -10.438  10.722  66.528  1.00  0.00    -0.299 C  
HETATM   26  C   UNL     1     -10.358  11.622  65.306  1.00  0.00    -0.316 C  
ENDBRANCH  24  25
ENDBRANCH  23  24
ENDBRANCH  22  23
ENDBRANCH  21  22
ENDBRANCH  20  21
ENDBRANCH  17  20
ENDBRANCH  15  17
ENDBRANCH   1  15
BRANCH   1  27
HETATM   27  C   UNL     1      -9.911   8.724  71.685  1.00  0.00    -0.311 C  
BRANCH  27  28
HETATM   28  N   UNL     1     -11.204   9.094  71.059  1.00  0.00    -0.286 NA 
HETATM   29  C   UNL     1     -11.022  10.316  70.240  1.00  0.00    -0.309 C  
HETATM   30  C   UNL     1     -12.229   9.420  72.052  1.00  0.00    -0.326 C  
HETATM   31  C   UNL     1     -12.237  11.208  70.453  1.00  0.00    -0.457 C  
HETATM   32  C   UNL     1     -13.131  10.454  71.410  1.00  0.00    -0.512 C  
ENDBRANCH  27  28
ENDBRANCH   1  27
TORSDOF 12
ENDMDL
MODEL      297
REMARK 921   NORMALIZED FREE ENERGY PREDICTED BY IDOCK:   -3.65 KCAL/MOL
REMARK 922        TOTAL FREE ENERGY PREDICTED BY IDOCK:   -8.27 KCAL/MOL
REMARK 923 INTER-LIGAND FREE ENERGY PREDICTED BY IDOCK:   -7.27 KCAL/MOL
REMARK 924 INTRA-LIGAND FREE ENERGY PREDICTED BY IDOCK:   -1.00 KCAL/MOL
REMARK 927      BINDING AFFINITY PREDICTED BY RF-SCORE:    0.00 PKD
ROOT
HETATM    1  C   UNL     1      -9.293   9.267  68.510  1.00  0.00    -0.142 C  
ENDROOT
BRANCH   1   2
HETATM    2  C   UNL     1      -9.564   9.509  70.031  1.00  0.00    -0.238 C  
HETATM    3  O   UNL     1      -8.408  10.042  70.692  1.00  0.00    -0.385 OA 
HETATM    4  H   UNL     1      -8.573  10.189  71.617  1.00  0.00     0.000 HD 
BRANCH   2   5
HETATM    5  C   UNL     1     -10.095   8.270  70.756  1.00  0.00    -0.218 A  
HETATM    6  C   UNL     1      -9.826   5.608  74.560  1.00  0.00    -0.236 C  
HETATM    7  C   UNL     1      -9.798   6.593  72.498  1.00  0.00    -0.165 A  
HETATM    8  C   UNL     1     -11.394   7.768  70.548  1.00  0.00    -0.253 A  
HETATM    9  C   UNL     1     -11.083   6.098  72.273  1.00  0.00    -0.277 A  
HETATM   10  C   UNL     1     -10.768   4.552  74.005  1.00  0.00    -0.276 C  
HETATM   11  C   UNL     1      -9.288   7.638  71.722  1.00  0.00    -0.176 A  
HETATM   12  O   UNL     1     -11.651   5.092  73.012  1.00  0.00    -0.320 OA 
HETATM   13  O   UNL     1      -8.998   6.126  73.512  1.00  0.00    -0.125 OA 
HETATM   14  C   UNL     1     -11.873   6.674  71.283  1.00  0.00    -0.403 A  
ENDBRANCH   2   5
ENDBRANCH   1   2
BRANCH   1  15
HETATM   15  N   UNL     1     -10.565   9.430  67.784  1.00  0.00    -0.315 NA 
HETATM   16  H   UNL     1     -10.978   8.582  67.394  1.00  0.00     0.000 HD 
BRANCH  15  17
HETATM   17  C   UNL     1     -11.203  10.514  67.594  1.00  0.00    -0.265 C  
HETATM   18  H   UNL     1     -12.685  11.781  68.197  1.00  0.00     0.000 HD 
HETATM   19  O   UNL     1     -12.208  10.971  68.340  1.00  0.00    -0.586 OA 
BRANCH  17  20
HETATM   20  C   UNL     1     -10.847  11.406  66.430  1.00  0.00    -0.323 C  
BRANCH  20  21
HETATM   21  C   UNL     1     -11.613  12.725  66.444  1.00  0.00    -0.435 C  
BRANCH  21  22
HETATM   22  C   UNL     1     -11.120  13.720  65.392  1.00  0.00    -0.304 C  
BRANCH  22  23
HETATM   23  C   UNL     1     -10.186  14.758  66.018  1.00  0.00    -0.320 C  
BRANCH  23  24
HETATM   24  C   UNL     1     -10.908  15.616  67.056  1.00  0.00    -0.294 C  
BRANCH  24  25
HETATM   25  C   UNL     1     -10.124  16.895  67.353  1.00  0.00    -0.279 C  
HETATM   26  C   UNL     1     -10.660  18.076  66.562  1.00  0.00    -0.263 C  
ENDBRANCH  24  25
ENDBRANCH  23  24
ENDBRANCH  22  23
ENDBRANCH  21  22
ENDBRANCH  20  21
ENDBRANCH  17  20
ENDBRANCH  15  17
ENDBRANCH   1  15
BRANCH   1  27
HETATM   27  C   UNL     1      -8.809   7.835  68.092  1.00  0.00    -0.125 C  
BRANCH  27  28
HETATM   28  N   UNL     1      -7.891   7.608  66.949  1.00  0.00    -0.109 NA 
HETATM   29  C   UNL     1      -7.260   8.892  66.561  1.00  0.00    -0.085 C  
HETATM   30  C   UNL     1      -8.595   7.125  65.760  1.00  0.00    -0.133 C  
HETATM   31  C   UNL     1      -7.214   8.951  65.041  1.00  0.00    -0.091 C  
HETATM   32  C   UNL     1      -7.824   7.652  64.566  1.00  0.00    -0.134 C  
ENDBRANCH  27  28
ENDBRANCH   1  27
TORSDOF 12
ENDMDL
MODEL      298
REMARK 921   NORMALIZED FREE ENERGY PREDICTED BY IDOCK:   -3.64 KCAL/MOL
REMARK 922        TOTAL FREE ENERGY PREDICTED BY IDOCK:   -8.25 KCAL/MOL
REMARK 923 INTER-LIGAND FREE ENERGY PREDICTED BY IDOCK:   -7.14 KCAL/MOL
REMARK 924 INTRA-LIGAND FREE ENERGY PREDICTED BY IDOCK:   -1.10 KCAL/MOL
REMARK 927      BINDING AFFINITY PREDICTED BY RF-SCORE:    0.00 PKD
ROOT
HETATM    1  C   UNL     1      -7.761  14.571  68.501  1.00  0.00    -0.129 C  
ENDROOT
BRANCH   1   2
HETATM    2  C   UNL     1      -9.320  14.623  68.382  1.00  0.00    -0.201 C  
HETATM    3  O   UNL     1      -9.953  14.326  69.634  1.00  0.00    -0.397 OA 
HETATM    4  H   UNL     1     -10.900  14.358  69.562  1.00  0.00     0.000 HD 
BRANCH   2   5
HETATM    5  C   UNL     1      -9.871  13.740  67.260  1.00  0.00    -0.241 A  
HETATM    6  C   UNL     1     -12.393  13.580  63.355  1.00  0.00    -0.194 C  
HETATM    7  C   UNL     1     -11.461  13.444  65.437  1.00  0.00    -0.302 A  
HETATM    8  C   UNL     1      -9.238  12.551  66.849  1.00  0.00    -0.211 A  
HETATM    9  C   UNL     1     -10.831  12.261  65.048  1.00  0.00    -0.298 A  
HETATM   10  C   UNL     1     -12.344  12.063  63.271  1.00  0.00    -0.438 C  
HETATM   11  C   UNL     1     -11.018  14.156  66.555  1.00  0.00    -0.309 A  
HETATM   12  O   UNL     1     -11.200  11.528  63.950  1.00  0.00    -0.387 OA 
HETATM   13  O   UNL     1     -12.499  13.992  64.724  1.00  0.00    -0.541 OA 
HETATM   14  C   UNL     1      -9.730  11.805  65.769  1.00  0.00    -0.260 A  
ENDBRANCH   2   5
ENDBRANCH   1   2
BRANCH   1  15
HETATM   15  N   UNL     1      -7.410  13.543  69.496  1.00  0.00    -0.303 NA 
HETATM   16  H   UNL     1      -8.019  13.471  70.311  1.00  0.00     0.000 HD 
BRANCH  15  17
HETATM   17  C   UNL     1      -6.427  12.736  69.446  1.00  0.00    -0.096 C  
HETATM   18  H   UNL     1      -4.439  12.447  69.086  1.00  0.00     0.000 HD 
HETATM   19  O   UNL     1      -5.173  13.050  69.123  1.00  0.00    -0.069 OA 
BRANCH  17  20
HETATM   20  C   UNL     1      -6.633  11.275  69.759  1.00  0.00    -0.130 C  
BRANCH  20  21
HETATM   21  C   UNL     1      -7.759  10.650  68.943  1.00  0.00    -0.121 C  
BRANCH  21  22
HETATM   22  C   UNL     1      -8.125   9.236  69.401  1.00  0.00    -0.108 C  
BRANCH  22  23
HETATM   23  C   UNL     1      -9.022   9.280  70.639  1.00  0.00    -0.296 C  
BRANCH  23  24
HETATM   24  C   UNL     1     -10.503   9.207  70.269  1.00  0.00    -0.257 C  
BRANCH  24  25
HETATM   25  C   UNL     1     -11.124  10.603  70.213  1.00  0.00    -0.310 C  
HETATM   26  C   UNL     1     -12.615  10.540  69.926  1.00  0.00    -0.124 C  
ENDBRANCH  24  25
ENDBRANCH  23  24
ENDBRANCH  22  23
ENDBRANCH  21  22
ENDBRANCH  20  21
ENDBRANCH  17  20
ENDBRANCH  15  17
ENDBRANCH   1  15
BRANCH   1  27
HETATM   27  C   UNL     1      -7.044  15.861  69.032  1.00  0.00    -0.161 C  
BRANCH  27  28
HETATM   28  N   UNL     1      -7.011  17.126  68.259  1.00  0.00    -0.180 NA 
HETATM   29  C   UNL     1      -8.394  17.626  68.070  1.00  0.00    -0.246 C  
HETATM   30  C   UNL     1      -6.459  16.942  66.916  1.00  0.00    -0.213 C  
HETATM   31  C   UNL     1      -8.510  18.157  66.648  1.00  0.00    -0.282 C  
HETATM   32  C   UNL     1      -7.146  17.962  66.029  1.00  0.00    -0.340 C  
ENDBRANCH  27  28
ENDBRANCH   1  27
TORSDOF 12
ENDMDL
MODEL      299
REMARK 921   NORMALIZED FREE ENERGY PREDICTED BY IDOCK:   -3.64 KCAL/MOL
REMARK 922        TOTAL FREE ENERGY PREDICTED BY IDOCK:   -8.24 KCAL/MOL
REMARK 923 INTER-LIGAND FREE ENERGY PREDICTED BY IDOCK:   -7.03 KCAL/MOL
REMARK 924 INTRA-LIGAND FREE ENERGY PREDICTED BY IDOCK:   -1.21 KCAL/MOL
REMARK 927      BINDING AFFINITY PREDICTED BY RF-SCORE:    0.00 PKD
ROOT
HETATM    1  C   UNL     1      -9.773   9.005  68.193  1.00  0.00    -0.152 C  
ENDROOT
BRANCH   1   2
HETATM    2  C   UNL     1     -10.216  10.312  68.929  1.00  0.00    -0.205 C  
HETATM    3  O   UNL     1     -11.137  10.030  69.991  1.00  0.00    -0.256 OA 
HETATM    4  H   UNL     1     -11.406  10.825  70.439  1.00  0.00     0.000 HD 
BRANCH   2   5
HETATM    5  C   UNL     1     -10.771  11.380  67.983  1.00  0.00    -0.240 A  
HETATM    6  C   UNL     1     -12.291  12.327  63.691  1.00  0.00    -0.562 C  
HETATM    7  C   UNL     1     -11.229  12.103  65.702  1.00  0.00    -0.335 A  
HETATM    8  C   UNL     1     -11.500  12.494  68.441  1.00  0.00    -0.355 A  
HETATM    9  C   UNL     1     -11.939  13.209  66.170  1.00  0.00    -0.422 A  
HETATM   10  C   UNL     1     -12.408  13.819  63.957  1.00  0.00    -0.317 C  
HETATM   11  C   UNL     1     -10.613  11.220  66.592  1.00  0.00    -0.309 A  
HETATM   12  O   UNL     1     -12.585  14.100  65.352  1.00  0.00    -0.478 OA 
HETATM   13  O   UNL     1     -11.143  11.797  64.366  1.00  0.00    -0.316 OA 
HETATM   14  C   UNL     1     -12.057  13.414  67.542  1.00  0.00    -0.323 A  
ENDBRANCH   2   5
ENDBRANCH   1   2
BRANCH   1  15
HETATM   15  N   UNL     1     -10.269   7.852  68.964  1.00  0.00    -0.206 NA 
HETATM   16  H   UNL     1     -10.905   8.059  69.735  1.00  0.00     0.000 HD 
BRANCH  15  17
HETATM   17  C   UNL     1      -9.989   6.626  68.771  1.00  0.00    -0.144 C  
HETATM   18  H   UNL     1     -10.101   4.995  67.548  1.00  0.00     0.000 HD 
HETATM   19  O   UNL     1     -10.310   5.911  67.692  1.00  0.00    -0.168 OA 
BRANCH  17  20
HETATM   20  C   UNL     1      -9.237   5.847  69.821  1.00  0.00    -0.160 C  
BRANCH  20  21
HETATM   21  C   UNL     1     -10.159   5.046  70.734  1.00  0.00    -0.307 C  
BRANCH  21  22
HETATM   22  C   UNL     1     -10.433   5.737  72.072  1.00  0.00    -0.267 C  
BRANCH  22  23
HETATM   23  C   UNL     1     -11.533   5.008  72.846  1.00  0.00    -0.306 C  
BRANCH  23  24
HETATM   24  C   UNL     1     -10.958   3.944  73.781  1.00  0.00    -0.321 C  
BRANCH  24  25
HETATM   25  C   UNL     1     -11.347   2.539  73.319  1.00  0.00    -0.179 C  
HETATM   26  C   UNL     1     -10.163   1.587  73.368  1.00  0.00    -0.157 C  
ENDBRANCH  24  25
ENDBRANCH  23  24
ENDBRANCH  22  23
ENDBRANCH  21  22
ENDBRANCH  20  21
ENDBRANCH  17  20
ENDBRANCH  15  17
ENDBRANCH   1  15
BRANCH   1  27
HETATM   27  C   UNL     1      -8.231   8.739  68.080  1.00  0.00    -0.114 C  
BRANCH  27  28
HETATM   28  N   UNL     1      -7.522   8.711  66.778  1.00  0.00    -0.086 NA 
HETATM   29  C   UNL     1      -8.430   8.178  65.734  1.00  0.00    -0.149 C  
HETATM   30  C   UNL     1      -6.359   7.823  66.797  1.00  0.00    -0.054 C  
HETATM   31  C   UNL     1      -7.620   7.251  64.838  1.00  0.00    -0.102 C  
HETATM   32  C   UNL     1      -6.214   7.281  65.390  1.00  0.00    -0.038 C  
ENDBRANCH  27  28
ENDBRANCH   1  27
TORSDOF 12
ENDMDL
MODEL      300
REMARK 921   NORMALIZED FREE ENERGY PREDICTED BY IDOCK:   -3.63 KCAL/MOL
REMARK 922        TOTAL FREE ENERGY PREDICTED BY IDOCK:   -8.24 KCAL/MOL
REMARK 923 INTER-LIGAND FREE ENERGY PREDICTED BY IDOCK:   -6.70 KCAL/MOL
REMARK 924 INTRA-LIGAND FREE ENERGY PREDICTED BY IDOCK:   -1.54 KCAL/MOL
REMARK 927      BINDING AFFINITY PREDICTED BY RF-SCORE:    0.00 PKD
ROOT
HETATM    1  C   UNL     1     -10.659  13.053  67.314  1.00  0.00    -0.242 C  
ENDROOT
BRANCH   1   2
HETATM    2  C   UNL     1      -9.653  13.124  66.118  1.00  0.00    -0.200 C  
HETATM    3  O   UNL     1     -10.270  13.667  64.943  1.00  0.00    -0.471 OA 
HETATM    4  H   UNL     1      -9.658  13.710  64.217  1.00  0.00     0.000 HD 
BRANCH   2   5
HETATM    5  C   UNL     1      -8.974  11.785  65.820  1.00  0.00    -0.011 A  
HETATM    6  C   UNL     1      -7.925   8.625  62.572  1.00  0.00    -0.151 C  
HETATM    7  C   UNL     1      -8.687   9.888  64.317  1.00  0.00    -0.209 A  
HETATM    8  C   UNL     1      -7.903  11.289  66.587  1.00  0.00    -0.152 A  
HETATM    9  C   UNL     1      -7.634   9.402  65.094  1.00  0.00    -0.108 A  
HETATM   10  C   UNL     1      -7.358   7.637  63.579  1.00  0.00    -0.090 C  
HETATM   11  C   UNL     1      -9.381  11.041  64.694  1.00  0.00    -0.235 A  
HETATM   12  O   UNL     1      -6.899   8.292  64.769  1.00  0.00    -0.066 OA 
HETATM   13  O   UNL     1      -9.057   9.301  63.133  1.00  0.00    -0.164 OA 
HETATM   14  C   UNL     1      -7.256  10.095  66.241  1.00  0.00    -0.111 A  
ENDBRANCH   2   5
ENDBRANCH   1   2
BRANCH   1  15
HETATM   15  N   UNL     1     -11.333  11.744  67.272  1.00  0.00    -0.344 NA 
HETATM   16  H   UNL     1     -11.822  11.510  66.407  1.00  0.00     0.000 HD 
BRANCH  15  17
HETATM   17  C   UNL     1     -11.369  10.874  68.199  1.00  0.00    -0.315 C  
HETATM   18  H   UNL     1     -11.909  10.400  70.110  1.00  0.00     0.000 HD 
HETATM   19  O   UNL     1     -11.882  11.050  69.417  1.00  0.00    -0.287 OA 
BRANCH  17  20
HETATM   20  C   UNL     1     -10.789   9.500  67.971  1.00  0.00    -0.225 C  
BRANCH  20  21
HETATM   21  C   UNL     1      -9.755   9.115  69.023  1.00  0.00    -0.166 C  
BRANCH  21  22
HETATM   22  C   UNL     1     -10.295   8.142  70.073  1.00  0.00    -0.215 C  
BRANCH  22  23
HETATM   23  C   UNL     1     -10.264   8.771  71.467  1.00  0.00    -0.371 C  
BRANCH  23  24
HETATM   24  C   UNL     1     -11.580   8.559  72.214  1.00  0.00    -0.444 C  
BRANCH  24  25
HETATM   25  C   UNL     1     -11.697   7.122  72.724  1.00  0.00    -0.107 C  
HETATM   26  C   UNL     1     -10.753   6.863  73.887  1.00  0.00    -0.122 C  
ENDBRANCH  24  25
ENDBRANCH  23  24
ENDBRANCH  22  23
ENDBRANCH  21  22
ENDBRANCH  20  21
ENDBRANCH  17  20
ENDBRANCH  15  17
ENDBRANCH   1  15
BRANCH   1  27
HETATM   27  C   UNL     1     -11.845  14.080  67.307  1.00  0.00    -0.411 C  
BRANCH  27  28
HETATM   28  N   UNL     1     -12.049  15.067  68.396  1.00  0.00    -0.187 NA 
HETATM   29  C   UNL     1     -11.199  16.256  68.149  1.00  0.00    -0.298 C  
HETATM   30  C   UNL     1     -11.645  14.543  69.702  1.00  0.00    -0.299 C  
HETATM   31  C   UNL     1     -10.611  16.697  69.483  1.00  0.00    -0.308 C  
HETATM   32  C   UNL     1     -11.162  15.732  70.507  1.00  0.00    -0.392 C  
ENDBRANCH  27  28
ENDBRANCH   1  27
TORSDOF 12
ENDMDL
MODEL      301
REMARK 921   NORMALIZED FREE ENERGY PREDICTED BY IDOCK:   -3.63 KCAL/MOL
REMARK 922        TOTAL FREE ENERGY PREDICTED BY IDOCK:   -8.23 KCAL/MOL
REMARK 923 INTER-LIGAND FREE ENERGY PREDICTED BY IDOCK:   -6.08 KCAL/MOL
REMARK 924 INTRA-LIGAND FREE ENERGY PREDICTED BY IDOCK:   -2.15 KCAL/MOL
REMARK 927      BINDING AFFINITY PREDICTED BY RF-SCORE:    0.00 PKD
ROOT
HETATM    1  C   UNL     1      -9.073  10.178  67.500  1.00  0.00    -0.134 C  
ENDROOT
BRANCH   1   2
HETATM    2  C   UNL     1     -10.364   9.321  67.286  1.00  0.00    -0.265 C  
HETATM    3  O   UNL     1     -11.306   9.515  68.350  1.00  0.00    -0.496 OA 
HETATM    4  H   UNL     1     -12.091   8.994  68.219  1.00  0.00     0.000 HD 
BRANCH   2   5
HETATM    5  C   UNL     1     -10.075   7.834  67.065  1.00  0.00    -0.343 A  
HETATM    6  C   UNL     1      -6.927   4.425  67.376  1.00  0.00    -0.063 C  
HETATM    7  C   UNL     1      -8.435   6.049  66.819  1.00  0.00    -0.110 A  
HETATM    8  C   UNL     1     -11.082   6.851  67.106  1.00  0.00    -0.362 A  
HETATM    9  C   UNL     1      -9.444   5.086  66.850  1.00  0.00    -0.142 A  
HETATM   10  C   UNL     1      -7.819   3.408  66.682  1.00  0.00    -0.081 C  
HETATM   11  C   UNL     1      -8.744   7.411  66.882  1.00  0.00    -0.126 A  
HETATM   12  O   UNL     1      -9.208   3.736  66.815  1.00  0.00    -0.151 OA 
HETATM   13  O   UNL     1      -7.103   5.716  66.781  1.00  0.00    -0.067 OA 
HETATM   14  C   UNL     1     -10.771   5.491  66.974  1.00  0.00    -0.286 A  
ENDBRANCH   2   5
ENDBRANCH   1   2
BRANCH   1  15
HETATM   15  N   UNL     1      -8.873  10.353  68.949  1.00  0.00    -0.153 NA 
HETATM   16  H   UNL     1      -9.481  11.027  69.415  1.00  0.00     0.000 HD 
BRANCH  15  17
HETATM   17  C   UNL     1      -8.022   9.753  69.681  1.00  0.00    -0.150 C  
HETATM   18  H   UNL     1      -6.089   9.162  69.961  1.00  0.00     0.000 HD 
HETATM   19  O   UNL     1      -6.724   9.611  69.415  1.00  0.00    -0.050 OA 
BRANCH  17  20
HETATM   20  C   UNL     1      -8.457   9.113  70.975  1.00  0.00    -0.221 C  
BRANCH  20  21
HETATM   21  C   UNL     1      -9.698   8.242  70.814  1.00  0.00    -0.197 C  
BRANCH  21  22
HETATM   22  C   UNL     1      -9.379   6.750  70.694  1.00  0.00    -0.162 C  
BRANCH  22  23
HETATM   23  C   UNL     1      -9.602   6.035  72.027  1.00  0.00    -0.167 C  
BRANCH  23  24
HETATM   24  C   UNL     1      -9.950   4.560  71.828  1.00  0.00    -0.264 C  
BRANCH  24  25
HETATM   25  C   UNL     1      -9.821   4.158  70.359  1.00  0.00    -0.237 C  
HETATM   26  C   UNL     1      -9.198   2.780  70.209  1.00  0.00    -0.207 C  
ENDBRANCH  24  25
ENDBRANCH  23  24
ENDBRANCH  22  23
ENDBRANCH  21  22
ENDBRANCH  20  21
ENDBRANCH  17  20
ENDBRANCH  15  17
ENDBRANCH   1  15
BRANCH   1  27
HETATM   27  C   UNL     1      -9.093  11.646  66.949  1.00  0.00    -0.188 C  
BRANCH  27  28
HETATM   28  N   UNL     1      -9.284  11.952  65.510  1.00  0.00    -0.084 NA 
HETATM   29  C   UNL     1     -10.663  12.448  65.289  1.00  0.00    -0.287 C  
HETATM   30  C   UNL     1      -9.139  10.765  64.666  1.00  0.00    -0.201 C  
HETATM   31  C   UNL     1     -11.183  11.830  63.999  1.00  0.00    -0.461 C  
HETATM   32  C   UNL     1     -10.052  10.975  63.475  1.00  0.00    -0.428 C  
ENDBRANCH  27  28
ENDBRANCH   1  27
TORSDOF 12
ENDMDL
MODEL      302
REMARK 921   NORMALIZED FREE ENERGY PREDICTED BY IDOCK:   -3.62 KCAL/MOL
REMARK 922        TOTAL FREE ENERGY PREDICTED BY IDOCK:   -8.22 KCAL/MOL
REMARK 923 INTER-LIGAND FREE ENERGY PREDICTED BY IDOCK:   -6.83 KCAL/MOL
REMARK 924 INTRA-LIGAND FREE ENERGY PREDICTED BY IDOCK:   -1.39 KCAL/MOL
REMARK 927      BINDING AFFINITY PREDICTED BY RF-SCORE:    0.00 PKD
ROOT
HETATM    1  C   UNL     1      -9.670  10.622  69.383  1.00  0.00    -0.116 C  
ENDROOT
BRANCH   1   2
HETATM    2  C   UNL     1     -11.046  11.154  68.863  1.00  0.00    -0.237 C  
HETATM    3  O   UNL     1     -11.759  10.145  68.136  1.00  0.00    -0.694 OA 
HETATM    4  H   UNL     1     -12.595  10.469  67.819  1.00  0.00     0.000 HD 
BRANCH   2   5
HETATM    5  C   UNL     1     -10.926  12.445  68.048  1.00  0.00    -0.262 A  
HETATM    6  C   UNL     1     -12.363  14.794  64.300  1.00  0.00    -0.320 C  
HETATM    7  C   UNL     1     -11.299  13.618  65.945  1.00  0.00    -0.309 A  
HETATM    8  C   UNL     1     -10.555  13.674  68.624  1.00  0.00    -0.260 A  
HETATM    9  C   UNL     1     -10.917  14.829  66.527  1.00  0.00    -0.325 A  
HETATM   10  C   UNL     1     -11.358  15.917  64.500  1.00  0.00    -0.309 C  
HETATM   11  C   UNL     1     -11.263  12.430  66.680  1.00  0.00    -0.366 A  
HETATM   12  O   UNL     1     -10.951  16.031  65.870  1.00  0.00    -0.242 OA 
HETATM   13  O   UNL     1     -11.772  13.539  64.659  1.00  0.00    -0.351 OA 
HETATM   14  C   UNL     1     -10.526  14.851  67.863  1.00  0.00    -0.250 A  
ENDBRANCH   2   5
ENDBRANCH   1   2
BRANCH   1  15
HETATM   15  N   UNL     1      -8.847  10.256  68.218  1.00  0.00    -0.123 NA 
HETATM   16  H   UNL     1      -9.350   9.987  67.371  1.00  0.00     0.000 HD 
BRANCH  15  17
HETATM   17  C   UNL     1      -7.577  10.240  68.154  1.00  0.00    -0.087 C  
HETATM   18  H   UNL     1      -5.811  11.191  68.534  1.00  0.00     0.000 HD 
HETATM   19  O   UNL     1      -6.760  11.203  68.582  1.00  0.00    -0.056 OA 
BRANCH  17  20
HETATM   20  C   UNL     1      -6.865   9.060  67.541  1.00  0.00    -0.077 C  
BRANCH  20  21
HETATM   21  C   UNL     1      -6.339   8.082  68.586  1.00  0.00    -0.052 C  
BRANCH  21  22
HETATM   22  C   UNL     1      -7.069   6.737  68.576  1.00  0.00    -0.083 C  
BRANCH  22  23
HETATM   23  C   UNL     1      -8.263   6.772  67.620  1.00  0.00    -0.119 C  
BRANCH  23  24
HETATM   24  C   UNL     1      -8.754   5.366  67.276  1.00  0.00    -0.107 C  
BRANCH  24  25
HETATM   25  C   UNL     1      -8.003   4.801  66.070  1.00  0.00    -0.103 C  
HETATM   26  C   UNL     1      -8.090   5.731  64.871  1.00  0.00    -0.131 C  
ENDBRANCH  24  25
ENDBRANCH  23  24
ENDBRANCH  22  23
ENDBRANCH  21  22
ENDBRANCH  20  21
ENDBRANCH  17  20
ENDBRANCH  15  17
ENDBRANCH   1  15
BRANCH   1  27
HETATM   27  C   UNL     1      -9.694   9.312  70.245  1.00  0.00    -0.232 C  
BRANCH  27  28
HETATM   28  N   UNL     1     -10.518   9.183  71.473  1.00  0.00    -0.341 NA 
HETATM   29  C   UNL     1      -9.757   8.433  72.500  1.00  0.00    -0.289 C  
HETATM   30  C   UNL     1     -11.746   8.422  71.240  1.00  0.00    -0.285 C  
HETATM   31  C   UNL     1     -10.720   7.480  73.194  1.00  0.00    -0.452 C  
HETATM   32  C   UNL     1     -12.063   7.717  72.544  1.00  0.00    -0.251 C  
ENDBRANCH  27  28
ENDBRANCH   1  27
TORSDOF 12
ENDMDL
MODEL      303
REMARK 921   NORMALIZED FREE ENERGY PREDICTED BY IDOCK:   -3.61 KCAL/MOL
REMARK 922        TOTAL FREE ENERGY PREDICTED BY IDOCK:   -8.19 KCAL/MOL
REMARK 923 INTER-LIGAND FREE ENERGY PREDICTED BY IDOCK:   -6.78 KCAL/MOL
REMARK 924 INTRA-LIGAND FREE ENERGY PREDICTED BY IDOCK:   -1.41 KCAL/MOL
REMARK 927      BINDING AFFINITY PREDICTED BY RF-SCORE:    0.00 PKD
ROOT
HETATM    1  C   UNL     1      -9.282   9.397  69.544  1.00  0.00    -0.176 C  
ENDROOT
BRANCH   1   2
HETATM    2  C   UNL     1      -8.370   9.315  70.812  1.00  0.00    -0.186 C  
HETATM    3  O   UNL     1      -7.179  10.097  70.654  1.00  0.00    -0.345 OA 
HETATM    4  H   UNL     1      -6.624  10.047  71.424  1.00  0.00     0.000 HD 
BRANCH   2   5
HETATM    5  C   UNL     1      -8.039   7.879  71.228  1.00  0.00    -0.101 A  
HETATM    6  C   UNL     1      -9.076   4.343  74.065  1.00  0.00    -0.110 C  
HETATM    7  C   UNL     1      -8.217   6.100  72.883  1.00  0.00    -0.116 A  
HETATM    8  C   UNL     1      -7.467   6.946  70.343  1.00  0.00    -0.086 A  
HETATM    9  C   UNL     1      -7.639   5.188  71.999  1.00  0.00    -0.097 A  
HETATM   10  C   UNL     1      -7.898   3.501  73.603  1.00  0.00    -0.067 C  
HETATM   11  C   UNL     1      -8.378   7.441  72.523  1.00  0.00    -0.128 A  
HETATM   12  O   UNL     1      -7.473   3.857  72.281  1.00  0.00    -0.061 OA 
HETATM   13  O   UNL     1      -8.701   5.725  74.112  1.00  0.00    -0.122 OA 
HETATM   14  C   UNL     1      -7.245   5.618  70.735  1.00  0.00    -0.079 A  
ENDBRANCH   2   5
ENDBRANCH   1   2
BRANCH   1  15
HETATM   15  N   UNL     1      -9.352  10.805  69.118  1.00  0.00    -0.348 NA 
HETATM   16  H   UNL     1      -9.028  11.501  69.790  1.00  0.00     0.000 HD 
BRANCH  15  17
HETATM   17  C   UNL     1      -9.774  11.246  68.001  1.00  0.00    -0.179 C  
HETATM   18  H   UNL     1      -9.767  11.094  65.965  1.00  0.00     0.000 HD 
HETATM   19  O   UNL     1      -9.453  10.765  66.799  1.00  0.00    -0.169 OA 
BRANCH  17  20
HETATM   20  C   UNL     1     -10.717  12.422  67.959  1.00  0.00    -0.247 C  
BRANCH  20  21
HETATM   21  C   UNL     1      -9.995  13.760  68.083  1.00  0.00    -0.242 C  
BRANCH  21  22
HETATM   22  C   UNL     1     -10.829  14.833  68.787  1.00  0.00    -0.259 C  
BRANCH  22  23
HETATM   23  C   UNL     1     -11.434  14.290  70.083  1.00  0.00    -0.254 C  
BRANCH  23  24
HETATM   24  C   UNL     1     -12.895  14.708  70.246  1.00  0.00    -0.254 C  
BRANCH  24  25
HETATM   25  C   UNL     1     -13.101  15.491  71.543  1.00  0.00    -0.573 C  
HETATM   26  C   UNL     1     -11.810  15.609  72.336  1.00  0.00    -0.584 C  
ENDBRANCH  24  25
ENDBRANCH  23  24
ENDBRANCH  22  23
ENDBRANCH  21  22
ENDBRANCH  20  21
ENDBRANCH  17  20
ENDBRANCH  15  17
ENDBRANCH   1  15
BRANCH   1  27
HETATM   27  C   UNL     1     -10.786   8.988  69.721  1.00  0.00    -0.225 C  
BRANCH  27  28
HETATM   28  N   UNL     1     -11.495   9.111  71.018  1.00  0.00    -0.286 NA 
HETATM   29  C   UNL     1     -12.309   7.894  71.252  1.00  0.00    -0.281 C  
HETATM   30  C   UNL     1     -12.432  10.236  71.034  1.00  0.00    -0.384 C  
HETATM   31  C   UNL     1     -13.642   8.329  71.844  1.00  0.00    -0.390 C  
HETATM   32  C   UNL     1     -13.564   9.834  71.958  1.00  0.00    -0.436 C  
ENDBRANCH  27  28
ENDBRANCH   1  27
TORSDOF 12
ENDMDL
MODEL      304
REMARK 921   NORMALIZED FREE ENERGY PREDICTED BY IDOCK:   -3.60 KCAL/MOL
REMARK 922        TOTAL FREE ENERGY PREDICTED BY IDOCK:   -8.18 KCAL/MOL
REMARK 923 INTER-LIGAND FREE ENERGY PREDICTED BY IDOCK:   -7.27 KCAL/MOL
REMARK 924 INTRA-LIGAND FREE ENERGY PREDICTED BY IDOCK:   -0.91 KCAL/MOL
REMARK 927      BINDING AFFINITY PREDICTED BY RF-SCORE:    0.00 PKD
ROOT
HETATM    1  C   UNL     1     -10.809   9.771  68.108  1.00  0.00    -0.214 C  
ENDROOT
BRANCH   1   2
HETATM    2  C   UNL     1     -10.987   8.278  68.541  1.00  0.00     0.217 C  
HETATM    3  O   UNL     1     -10.699   8.097  69.933  1.00  0.00    -0.244 OA 
HETATM    4  H   UNL     1     -10.807   7.189  70.196  1.00  0.00     0.000 HD 
BRANCH   2   5
HETATM    5  C   UNL     1     -10.189   7.299  67.677  1.00  0.00    -0.257 A  
HETATM    6  C   UNL     1     -10.330   4.209  64.203  1.00  0.00    -0.093 C  
HETATM    7  C   UNL     1     -10.183   5.403  66.146  1.00  0.00    -0.138 A  
HETATM    8  C   UNL     1      -8.814   7.460  67.421  1.00  0.00    -0.123 A  
HETATM    9  C   UNL     1      -8.817   5.567  65.911  1.00  0.00    -0.150 A  
HETATM   10  C   UNL     1      -8.884   3.781  64.397  1.00  0.00    -0.120 C  
HETATM   11  C   UNL     1     -10.857   6.228  67.051  1.00  0.00    -0.458 A  
HETATM   12  O   UNL     1      -8.102   4.808  65.021  1.00  0.00    -0.097 OA 
HETATM   13  O   UNL     1     -10.937   4.473  65.474  1.00  0.00    -0.247 OA 
HETATM   14  C   UNL     1      -8.129   6.585  66.565  1.00  0.00    -0.111 A  
ENDBRANCH   2   5
ENDBRANCH   1   2
BRANCH   1  15
HETATM   15  N   UNL     1     -11.965  10.535  68.607  1.00  0.00    -0.769 NA 
HETATM   16  H   UNL     1     -12.709  10.727  67.935  1.00  0.00     0.000 HD 
BRANCH  15  17
HETATM   17  C   UNL     1     -12.135  10.981  69.787  1.00  0.00    -0.353 C  
HETATM   18  H   UNL     1     -12.374  10.578  71.773  1.00  0.00     0.000 HD 
HETATM   19  O   UNL     1     -12.247  10.245  70.892  1.00  0.00    -0.306 OA 
BRANCH  17  20
HETATM   20  C   UNL     1     -12.239  12.467  70.026  1.00  0.00    -0.264 C  
BRANCH  20  21
HETATM   21  C   UNL     1     -11.593  13.289  68.915  1.00  0.00    -0.357 C  
BRANCH  21  22
HETATM   22  C   UNL     1     -11.333  14.743  69.313  1.00  0.00    -0.317 C  
BRANCH  22  23
HETATM   23  C   UNL     1     -12.648  15.504  69.489  1.00  0.00     0.037 C  
BRANCH  23  24
HETATM   24  C   UNL     1     -12.938  15.804  70.959  1.00  0.00    -0.377 C  
BRANCH  24  25
HETATM   25  C   UNL     1     -11.642  15.945  71.757  1.00  0.00    -0.541 C  
HETATM   26  C   UNL     1     -11.824  15.506  73.201  1.00  0.00    -0.542 C  
ENDBRANCH  24  25
ENDBRANCH  23  24
ENDBRANCH  22  23
ENDBRANCH  21  22
ENDBRANCH  20  21
ENDBRANCH  17  20
ENDBRANCH  15  17
ENDBRANCH   1  15
BRANCH   1  27
HETATM   27  C   UNL     1     -10.804  10.070  66.569  1.00  0.00     0.057 C  
BRANCH  27  28
HETATM   28  N   UNL     1     -10.339  11.364  66.012  1.00  0.00    -0.242 NA 
HETATM   29  C   UNL     1     -11.508  12.233  65.742  1.00  0.00    -0.367 C  
HETATM   30  C   UNL     1      -9.648  11.202  64.732  1.00  0.00    -0.240 C  
HETATM   31  C   UNL     1     -11.269  12.943  64.416  1.00  0.00    -0.389 C  
HETATM   32  C   UNL     1      -9.916  12.466  63.940  1.00  0.00    -0.262 C  
ENDBRANCH  27  28
ENDBRANCH   1  27
TORSDOF 12
ENDMDL
MODEL      305
REMARK 921   NORMALIZED FREE ENERGY PREDICTED BY IDOCK:   -3.60 KCAL/MOL
REMARK 922        TOTAL FREE ENERGY PREDICTED BY IDOCK:   -8.17 KCAL/MOL
REMARK 923 INTER-LIGAND FREE ENERGY PREDICTED BY IDOCK:   -6.85 KCAL/MOL
REMARK 924 INTRA-LIGAND FREE ENERGY PREDICTED BY IDOCK:   -1.32 KCAL/MOL
REMARK 927      BINDING AFFINITY PREDICTED BY RF-SCORE:    0.00 PKD
ROOT
HETATM    1  C   UNL     1      -9.298   6.908  66.649  1.00  0.00    -0.163 C  
ENDROOT
BRANCH   1   2
HETATM    2  C   UNL     1      -8.874   7.485  68.040  1.00  0.00    -0.127 C  
HETATM    3  O   UNL     1      -7.475   7.289  68.286  1.00  0.00    -0.097 OA 
HETATM    4  H   UNL     1      -7.217   7.639  69.131  1.00  0.00     0.000 HD 
BRANCH   2   5
HETATM    5  C   UNL     1      -9.720   6.951  69.199  1.00  0.00    -0.155 A  
HETATM    6  C   UNL     1      -9.745   4.523  73.166  1.00  0.00    -0.135 C  
HETATM    7  C   UNL     1      -9.949   5.403  71.067  1.00  0.00    -0.199 A  
HETATM    8  C   UNL     1     -10.904   7.582  69.628  1.00  0.00    -0.210 A  
HETATM    9  C   UNL     1     -11.127   6.031  71.473  1.00  0.00    -0.276 A  
HETATM   10  C   UNL     1     -11.260   4.559  73.291  1.00  0.00    -0.298 C  
HETATM   11  C   UNL     1      -9.273   5.826  69.919  1.00  0.00    -0.166 A  
HETATM   12  O   UNL     1     -11.826   5.681  72.599  1.00  0.00    -0.283 OA 
HETATM   13  O   UNL     1      -9.371   4.389  71.789  1.00  0.00    -0.129 OA 
HETATM   14  C   UNL     1     -11.615   7.109  70.740  1.00  0.00    -0.358 A  
ENDBRANCH   2   5
ENDBRANCH   1   2
BRANCH   1  15
HETATM   15  N   UNL     1      -9.899   7.999  65.863  1.00  0.00    -0.399 NA 
HETATM   16  H   UNL     1     -10.884   7.895  65.618  1.00  0.00     0.000 HD 
BRANCH  15  17
HETATM   17  C   UNL     1      -9.320   9.057  65.456  1.00  0.00    -0.187 C  
HETATM   18  H   UNL     1      -7.719   9.902  64.513  1.00  0.00     0.000 HD 
HETATM   19  O   UNL     1      -8.151   9.112  64.816  1.00  0.00    -0.125 OA 
BRANCH  17  20
HETATM   20  C   UNL     1      -9.951  10.405  65.697  1.00  0.00    -0.337 C  
BRANCH  20  21
HETATM   21  C   UNL     1     -10.614  10.509  67.067  1.00  0.00    -0.310 C  
BRANCH  21  22
HETATM   22  C   UNL     1     -11.515  11.737  67.210  1.00  0.00    -0.373 C  
BRANCH  22  23
HETATM   23  C   UNL     1     -11.689  12.117  68.681  1.00  0.00    -0.382 C  
BRANCH  23  24
HETATM   24  C   UNL     1     -11.480  13.614  68.909  1.00  0.00    -0.344 C  
BRANCH  24  25
HETATM   25  C   UNL     1     -12.247  14.095  70.142  1.00  0.00    -0.415 C  
HETATM   26  C   UNL     1     -12.445  12.974  71.149  1.00  0.00    -0.364 C  
ENDBRANCH  24  25
ENDBRANCH  23  24
ENDBRANCH  22  23
ENDBRANCH  21  22
ENDBRANCH  20  21
ENDBRANCH  17  20
ENDBRANCH  15  17
ENDBRANCH   1  15
BRANCH   1  27
HETATM   27  C   UNL     1     -10.405   5.797  66.647  1.00  0.00    -0.243 C  
BRANCH  27  28
HETATM   28  N   UNL     1     -10.105   4.376  66.344  1.00  0.00    -0.237 NA 
HETATM   29  C   UNL     1      -8.758   4.036  66.861  1.00  0.00    -0.116 C  
HETATM   30  C   UNL     1     -10.066   4.112  64.905  1.00  0.00    -0.202 C  
HETATM   31  C   UNL     1      -8.066   3.159  65.827  1.00  0.00    -0.086 C  
HETATM   32  C   UNL     1      -9.064   2.993  64.704  1.00  0.00    -0.135 C  
ENDBRANCH  27  28
ENDBRANCH   1  27
TORSDOF 12
ENDMDL
MODEL      306
REMARK 921   NORMALIZED FREE ENERGY PREDICTED BY IDOCK:   -3.59 KCAL/MOL
REMARK 922        TOTAL FREE ENERGY PREDICTED BY IDOCK:   -8.17 KCAL/MOL
REMARK 923 INTER-LIGAND FREE ENERGY PREDICTED BY IDOCK:   -7.16 KCAL/MOL
REMARK 924 INTRA-LIGAND FREE ENERGY PREDICTED BY IDOCK:   -1.01 KCAL/MOL
REMARK 927      BINDING AFFINITY PREDICTED BY RF-SCORE:    0.00 PKD
ROOT
HETATM    1  C   UNL     1      -9.502   9.145  68.049  1.00  0.00    -0.141 C  
ENDROOT
BRANCH   1   2
HETATM    2  C   UNL     1     -10.826   8.874  68.836  1.00  0.00    -0.022 C  
HETATM    3  O   UNL     1     -11.697  10.013  68.807  1.00  0.00    -0.501 OA 
HETATM    4  H   UNL     1     -12.502   9.848  69.285  1.00  0.00     0.000 HD 
BRANCH   2   5
HETATM    5  C   UNL     1     -10.590   8.393  70.270  1.00  0.00    -0.234 A  
HETATM    6  C   UNL     1     -10.548   4.755  73.167  1.00  0.00    -0.217 C  
HETATM    7  C   UNL     1     -10.894   6.665  71.960  1.00  0.00    -0.233 A  
HETATM    8  C   UNL     1      -9.727   9.059  71.161  1.00  0.00    -0.369 A  
HETATM    9  C   UNL     1     -10.045   7.341  72.838  1.00  0.00    -0.227 A  
HETATM   10  C   UNL     1     -10.318   5.616  74.399  1.00  0.00    -0.258 C  
HETATM   11  C   UNL     1     -11.201   7.201  70.707  1.00  0.00    -0.309 A  
HETATM   12  O   UNL     1      -9.685   6.860  74.070  1.00  0.00    -0.236 OA 
HETATM   13  O   UNL     1     -11.421   5.431  72.253  1.00  0.00    -0.201 OA 
HETATM   14  C   UNL     1      -9.477   8.550  72.443  1.00  0.00    -0.350 A  
ENDBRANCH   2   5
ENDBRANCH   1   2
BRANCH   1  15
HETATM   15  N   UNL     1      -9.364  10.601  67.868  1.00  0.00    -0.147 NA 
HETATM   16  H   UNL     1      -9.613  11.185  68.666  1.00  0.00     0.000 HD 
BRANCH  15  17
HETATM   17  C   UNL     1      -8.969  11.206  66.821  1.00  0.00    -0.165 C  
HETATM   18  H   UNL     1      -7.450  11.593  65.513  1.00  0.00     0.000 HD 
HETATM   19  O   UNL     1      -7.745  11.140  66.295  1.00  0.00    -0.154 OA 
BRANCH  17  20
HETATM   20  C   UNL     1      -9.915  12.103  66.063  1.00  0.00    -0.257 C  
BRANCH  20  21
HETATM   21  C   UNL     1     -10.235  13.391  66.814  1.00  0.00    -0.259 C  
BRANCH  21  22
HETATM   22  C   UNL     1     -11.733  13.698  66.876  1.00  0.00    -0.423 C  
BRANCH  22  23
HETATM   23  C   UNL     1     -12.105  14.325  68.221  1.00  0.00    -0.278 C  
BRANCH  23  24
HETATM   24  C   UNL     1     -11.748  13.410  69.392  1.00  0.00    -0.382 C  
BRANCH  24  25
HETATM   25  C   UNL     1     -12.530  13.794  70.648  1.00  0.00    -0.429 C  
HETATM   26  C   UNL     1     -12.707  15.299  70.759  1.00  0.00    -0.491 C  
ENDBRANCH  24  25
ENDBRANCH  23  24
ENDBRANCH  22  23
ENDBRANCH  21  22
ENDBRANCH  20  21
ENDBRANCH  17  20
ENDBRANCH  15  17
ENDBRANCH   1  15
BRANCH   1  27
HETATM   27  C   UNL     1      -9.413   8.580  66.589  1.00  0.00    -0.207 C  
BRANCH  27  28
HETATM   28  N   UNL     1      -8.453   7.516  66.206  1.00  0.00    -0.132 NA 
HETATM   29  C   UNL     1      -7.993   7.745  64.815  1.00  0.00    -0.142 C  
HETATM   30  C   UNL     1      -9.063   6.186  66.217  1.00  0.00    -0.154 C  
HETATM   31  C   UNL     1      -7.927   6.396  64.115  1.00  0.00    -0.096 C  
HETATM   32  C   UNL     1      -8.349   5.380  65.151  1.00  0.00    -0.144 C  
ENDBRANCH  27  28
ENDBRANCH   1  27
TORSDOF 12
ENDMDL
MODEL      307
REMARK 921   NORMALIZED FREE ENERGY PREDICTED BY IDOCK:   -3.59 KCAL/MOL
REMARK 922        TOTAL FREE ENERGY PREDICTED BY IDOCK:   -8.16 KCAL/MOL
REMARK 923 INTER-LIGAND FREE ENERGY PREDICTED BY IDOCK:   -7.35 KCAL/MOL
REMARK 924 INTRA-LIGAND FREE ENERGY PREDICTED BY IDOCK:   -0.81 KCAL/MOL
REMARK 927      BINDING AFFINITY PREDICTED BY RF-SCORE:    0.00 PKD
ROOT
HETATM    1  C   UNL     1      -9.737  14.530  66.783  1.00  0.00    -0.260 C  
ENDROOT
BRANCH   1   2
HETATM    2  C   UNL     1      -9.679  13.388  65.715  1.00  0.00    -0.129 C  
HETATM    3  O   UNL     1     -10.965  13.155  65.126  1.00  0.00    -0.287 OA 
HETATM    4  H   UNL     1     -10.931  12.461  64.477  1.00  0.00     0.000 HD 
BRANCH   2   5
HETATM    5  C   UNL     1      -9.072  12.089  66.251  1.00  0.00    -0.165 A  
HETATM    6  C   UNL     1      -7.980   7.664  65.323  1.00  0.00    -0.129 C  
HETATM    7  C   UNL     1      -8.794   9.678  66.033  1.00  0.00    -0.152 A  
HETATM    8  C   UNL     1      -8.103  12.069  67.273  1.00  0.00    -0.174 A  
HETATM    9  C   UNL     1      -7.844   9.672  67.056  1.00  0.00    -0.098 A  
HETATM   10  C   UNL     1      -7.567   7.365  66.755  1.00  0.00    -0.101 C  
HETATM   11  C   UNL     1      -9.435  10.862  65.661  1.00  0.00    -0.252 A  
HETATM   12  O   UNL     1      -7.162   8.550  67.453  1.00  0.00    -0.082 OA 
HETATM   13  O   UNL     1      -9.105   8.551  65.314  1.00  0.00    -0.122 OA 
HETATM   14  C   UNL     1      -7.514  10.867  67.689  1.00  0.00    -0.095 A  
ENDBRANCH   2   5
ENDBRANCH   1   2
BRANCH   1  15
HETATM   15  N   UNL     1     -10.188  13.946  68.058  1.00  0.00    -0.240 NA 
HETATM   16  H   UNL     1      -9.478  13.825  68.781  1.00  0.00     0.000 HD 
BRANCH  15  17
HETATM   17  C   UNL     1     -11.369  13.576  68.353  1.00  0.00    -0.292 C  
HETATM   18  H   UNL     1     -13.222  13.017  67.705  1.00  0.00     0.000 HD 
HETATM   19  O   UNL     1     -12.340  13.293  67.484  1.00  0.00    -0.225 OA 
BRANCH  17  20
HETATM   20  C   UNL     1     -11.778  13.435  69.798  1.00  0.00    -0.355 C  
BRANCH  20  21
HETATM   21  C   UNL     1     -12.038  11.987  70.198  1.00  0.00    -0.377 C  
BRANCH  21  22
HETATM   22  C   UNL     1     -10.929  11.030  69.755  1.00  0.00    -0.258 C  
BRANCH  22  23
HETATM   23  C   UNL     1     -11.007   9.711  70.526  1.00  0.00    -0.374 C  
BRANCH  23  24
HETATM   24  C   UNL     1     -12.133   9.724  71.559  1.00  0.00    -0.493 C  
BRANCH  24  25
HETATM   25  C   UNL     1     -12.363   8.328  72.140  1.00  0.00    -0.410 C  
HETATM   26  C   UNL     1     -11.118   7.799  72.833  1.00  0.00    -0.457 C  
ENDBRANCH  24  25
ENDBRANCH  23  24
ENDBRANCH  22  23
ENDBRANCH  21  22
ENDBRANCH  20  21
ENDBRANCH  17  20
ENDBRANCH  15  17
ENDBRANCH   1  15
BRANCH   1  27
HETATM   27  C   UNL     1     -10.757  15.693  66.526  1.00  0.00    -0.293 C  
BRANCH  27  28
HETATM   28  N   UNL     1     -10.374  17.122  66.625  1.00  0.00    -0.323 NA 
HETATM   29  C   UNL     1      -8.960  17.284  66.210  1.00  0.00    -0.217 C  
HETATM   30  C   UNL     1     -10.455  17.626  67.997  1.00  0.00    -0.394 C  
HETATM   31  C   UNL     1      -8.304  18.279  67.158  1.00  0.00    -0.250 C  
HETATM   32  C   UNL     1      -9.391  18.697  68.121  1.00  0.00    -0.347 C  
ENDBRANCH  27  28
ENDBRANCH   1  27
TORSDOF 12
ENDMDL
MODEL      308
REMARK 921   NORMALIZED FREE ENERGY PREDICTED BY IDOCK:   -3.57 KCAL/MOL
REMARK 922        TOTAL FREE ENERGY PREDICTED BY IDOCK:   -8.13 KCAL/MOL
REMARK 923 INTER-LIGAND FREE ENERGY PREDICTED BY IDOCK:   -6.68 KCAL/MOL
REMARK 924 INTRA-LIGAND FREE ENERGY PREDICTED BY IDOCK:   -1.45 KCAL/MOL
REMARK 927      BINDING AFFINITY PREDICTED BY RF-SCORE:    0.00 PKD
ROOT
HETATM    1  C   UNL     1      -9.466   8.942  66.524  1.00  0.00    -0.211 C  
ENDROOT
BRANCH   1   2
HETATM    2  C   UNL     1      -8.963   9.849  67.695  1.00  0.00    -0.128 C  
HETATM    3  O   UNL     1      -7.542   9.755  67.860  1.00  0.00    -0.086 OA 
HETATM    4  H   UNL     1      -7.236  10.306  68.571  1.00  0.00     0.000 HD 
BRANCH   2   5
HETATM    5  C   UNL     1      -9.693   9.593  69.016  1.00  0.00    -0.169 A  
HETATM    6  C   UNL     1     -13.783   9.575  71.231  1.00  0.00    -0.171 C  
HETATM    7  C   UNL     1     -11.684   9.900  70.386  1.00  0.00    -0.258 A  
HETATM    8  C   UNL     1      -9.212   8.692  69.986  1.00  0.00    -0.160 A  
HETATM    9  C   UNL     1     -11.190   9.014  71.344  1.00  0.00    -0.324 A  
HETATM   10  C   UNL     1     -13.156   9.294  72.587  1.00  0.00    -0.235 C  
HETATM   11  C   UNL     1     -10.930  10.223  69.255  1.00  0.00    -0.284 A  
HETATM   12  O   UNL     1     -11.887   8.638  72.463  1.00  0.00    -0.361 OA 
HETATM   13  O   UNL     1     -12.939  10.451  70.473  1.00  0.00    -0.344 OA 
HETATM   14  C   UNL     1      -9.943   8.426  71.152  1.00  0.00    -0.245 A  
ENDBRANCH   2   5
ENDBRANCH   1   2
BRANCH   1  15
HETATM   15  N   UNL     1     -10.349   9.748  65.664  1.00  0.00    -0.146 NA 
HETATM   16  H   UNL     1     -11.330   9.800  65.940  1.00  0.00     0.000 HD 
BRANCH  15  17
HETATM   17  C   UNL     1     -10.018  10.385  64.614  1.00  0.00    -0.338 C  
HETATM   18  H   UNL     1      -9.130  10.355  62.776  1.00  0.00     0.000 HD 
HETATM   19  O   UNL     1      -9.377   9.878  63.561  1.00  0.00    -0.272 OA 
BRANCH  17  20
HETATM   20  C   UNL     1     -10.341  11.853  64.487  1.00  0.00    -0.334 C  
BRANCH  20  21
HETATM   21  C   UNL     1     -10.813  12.468  65.800  1.00  0.00    -0.310 C  
BRANCH  21  22
HETATM   22  C   UNL     1     -10.436  13.944  65.946  1.00  0.00    -0.309 C  
BRANCH  22  23
HETATM   23  C   UNL     1     -10.427  14.362  67.418  1.00  0.00    -0.261 C  
BRANCH  23  24
HETATM   24  C   UNL     1      -9.444  15.502  67.677  1.00  0.00    -0.208 C  
BRANCH  24  25
HETATM   25  C   UNL     1      -8.067  15.186  67.091  1.00  0.00    -0.245 C  
HETATM   26  C   UNL     1      -7.149  14.559  68.128  1.00  0.00    -0.125 C  
ENDBRANCH  24  25
ENDBRANCH  23  24
ENDBRANCH  22  23
ENDBRANCH  21  22
ENDBRANCH  20  21
ENDBRANCH  17  20
ENDBRANCH  15  17
ENDBRANCH   1  15
BRANCH   1  27
HETATM   27  C   UNL     1     -10.352   7.707  66.912  1.00  0.00    -0.318 C  
BRANCH  27  28
HETATM   28  N   UNL     1      -9.774   6.370  67.190  1.00  0.00    -0.135 NA 
HETATM   29  C   UNL     1      -8.383   6.318  66.680  1.00  0.00    -0.112 C  
HETATM   30  C   UNL     1     -10.498   5.298  66.505  1.00  0.00    -0.298 C  
HETATM   31  C   UNL     1      -8.169   4.955  66.037  1.00  0.00    -0.112 C  
HETATM   32  C   UNL     1      -9.477   4.218  66.207  1.00  0.00    -0.186 C  
ENDBRANCH  27  28
ENDBRANCH   1  27
TORSDOF 12
ENDMDL
MODEL      309
REMARK 921   NORMALIZED FREE ENERGY PREDICTED BY IDOCK:   -3.53 KCAL/MOL
REMARK 922        TOTAL FREE ENERGY PREDICTED BY IDOCK:   -8.07 KCAL/MOL
REMARK 923 INTER-LIGAND FREE ENERGY PREDICTED BY IDOCK:   -7.12 KCAL/MOL
REMARK 924 INTRA-LIGAND FREE ENERGY PREDICTED BY IDOCK:   -0.95 KCAL/MOL
REMARK 927      BINDING AFFINITY PREDICTED BY RF-SCORE:    0.00 PKD
ROOT
HETATM    1  C   UNL     1      -9.845   9.501  69.998  1.00  0.00    -0.233 C  
ENDROOT
BRANCH   1   2
HETATM    2  C   UNL     1     -10.478   9.589  68.571  1.00  0.00    -0.217 C  
HETATM    3  O   UNL     1     -11.856   9.981  68.631  1.00  0.00    -0.548 OA 
HETATM    4  H   UNL     1     -12.242  10.034  67.763  1.00  0.00     0.000 HD 
BRANCH   2   5
HETATM    5  C   UNL     1     -10.301   8.309  67.750  1.00  0.00    -0.296 A  
HETATM    6  C   UNL     1      -7.354   5.651  65.326  1.00  0.00    -0.072 C  
HETATM    7  C   UNL     1      -8.978   7.027  66.155  1.00  0.00    -0.136 A  
HETATM    8  C   UNL     1     -11.107   7.170  67.938  1.00  0.00    -0.067 A  
HETATM    9  C   UNL     1      -9.793   5.910  66.342  1.00  0.00    -0.121 A  
HETATM   10  C   UNL     1      -8.445   4.704  64.853  1.00  0.00    -0.135 C  
HETATM   11  C   UNL     1      -9.251   8.229  66.815  1.00  0.00    -0.212 A  
HETATM   12  O   UNL     1      -9.568   4.697  65.744  1.00  0.00    -0.160 OA 
HETATM   13  O   UNL     1      -7.854   6.993  65.368  1.00  0.00    -0.103 OA 
HETATM   14  C   UNL     1     -10.870   5.989  67.220  1.00  0.00    -0.403 A  
ENDBRANCH   2   5
ENDBRANCH   1   2
BRANCH   1  15
HETATM   15  N   UNL     1      -8.398   9.268  69.846  1.00  0.00    -0.139 NA 
HETATM   16  H   UNL     1      -8.101   8.296  69.753  1.00  0.00     0.000 HD 
BRANCH  15  17
HETATM   17  C   UNL     1      -7.481  10.149  69.818  1.00  0.00    -0.163 C  
HETATM   18  H   UNL     1      -6.051  11.194  70.833  1.00  0.00     0.000 HD 
HETATM   19  O   UNL     1      -6.737  10.536  70.854  1.00  0.00    -0.323 OA 
BRANCH  17  20
HETATM   20  C   UNL     1      -7.161  10.866  68.530  1.00  0.00    -0.076 C  
BRANCH  20  21
HETATM   21  C   UNL     1      -8.028  12.102  68.313  1.00  0.00    -0.163 C  
BRANCH  21  22
HETATM   22  C   UNL     1      -8.160  12.497  66.841  1.00  0.00    -0.039 C  
BRANCH  22  23
HETATM   23  C   UNL     1      -9.096  13.696  66.680  1.00  0.00    -0.189 C  
BRANCH  23  24
HETATM   24  C   UNL     1     -10.425  13.296  66.040  1.00  0.00    -0.289 C  
BRANCH  24  25
HETATM   25  C   UNL     1     -10.691  14.107  64.771  1.00  0.00    -0.436 C  
HETATM   26  C   UNL     1     -12.096  13.873  64.243  1.00  0.00    -0.477 C  
ENDBRANCH  24  25
ENDBRANCH  23  24
ENDBRANCH  22  23
ENDBRANCH  21  22
ENDBRANCH  20  21
ENDBRANCH  17  20
ENDBRANCH  15  17
ENDBRANCH   1  15
BRANCH   1  27
HETATM   27  C   UNL     1     -10.317   8.319  70.915  1.00  0.00    -0.192 C  
BRANCH  27  28
HETATM   28  N   UNL     1     -11.490   8.431  71.815  1.00  0.00    -0.280 NA 
HETATM   29  C   UNL     1     -12.501   7.416  71.436  1.00  0.00    -0.368 C  
HETATM   30  C   UNL     1     -12.155   9.730  71.701  1.00  0.00    -0.394 C  
HETATM   31  C   UNL     1     -13.875   8.065  71.528  1.00  0.00    -0.394 C  
HETATM   32  C   UNL     1     -13.623   9.483  71.987  1.00  0.00    -0.492 C  
ENDBRANCH  27  28
ENDBRANCH   1  27
TORSDOF 12
ENDMDL
MODEL      310
REMARK 921   NORMALIZED FREE ENERGY PREDICTED BY IDOCK:   -3.50 KCAL/MOL
REMARK 922        TOTAL FREE ENERGY PREDICTED BY IDOCK:   -8.02 KCAL/MOL
REMARK 923 INTER-LIGAND FREE ENERGY PREDICTED BY IDOCK:   -6.47 KCAL/MOL
REMARK 924 INTRA-LIGAND FREE ENERGY PREDICTED BY IDOCK:   -1.55 KCAL/MOL
REMARK 927      BINDING AFFINITY PREDICTED BY RF-SCORE:    0.00 PKD
ROOT
HETATM    1  C   UNL     1      -9.615   7.783  69.776  1.00  0.00    -0.167 C  
ENDROOT
BRANCH   1   2
HETATM    2  C   UNL     1      -9.527   6.324  70.334  1.00  0.00    -0.161 C  
HETATM    3  O   UNL     1      -8.488   6.197  71.314  1.00  0.00    -0.123 OA 
HETATM    4  H   UNL     1      -8.435   5.311  71.653  1.00  0.00     0.000 HD 
BRANCH   2   5
HETATM    5  C   UNL     1      -9.387   5.264  69.238  1.00  0.00    -0.167 A  
HETATM    6  C   UNL     1      -9.910   4.285  64.721  1.00  0.00    -0.158 C  
HETATM    7  C   UNL     1      -9.961   4.503  66.996  1.00  0.00    -0.179 A  
HETATM    8  C   UNL     1      -8.454   4.212  69.314  1.00  0.00    -0.099 A  
HETATM    9  C   UNL     1      -9.041   3.458  67.090  1.00  0.00    -0.173 A  
HETATM   10  C   UNL     1      -9.583   2.812  64.904  1.00  0.00    -0.056 C  
HETATM   11  C   UNL     1     -10.168   5.372  68.070  1.00  0.00    -0.221 A  
HETATM   12  O   UNL     1      -8.775   2.585  66.067  1.00  0.00    -0.117 OA 
HETATM   13  O   UNL     1     -10.662   4.762  65.844  1.00  0.00    -0.318 OA 
HETATM   14  C   UNL     1      -8.302   3.302  68.259  1.00  0.00    -0.094 A  
ENDBRANCH   2   5
ENDBRANCH   1   2
BRANCH   1  15
HETATM   15  N   UNL     1      -8.748   8.643  70.599  1.00  0.00    -0.151 NA 
HETATM   16  H   UNL     1      -8.809   8.518  71.610  1.00  0.00     0.000 HD 
BRANCH  15  17
HETATM   17  C   UNL     1      -7.930   9.524  70.183  1.00  0.00    -0.160 C  
HETATM   18  H   UNL     1      -6.337  10.737  70.586  1.00  0.00     0.000 HD 
HETATM   19  O   UNL     1      -6.948  10.078  70.896  1.00  0.00    -0.337 OA 
BRANCH  17  20
HETATM   20  C   UNL     1      -8.029  10.042  68.771  1.00  0.00    -0.096 C  
BRANCH  20  21
HETATM   21  C   UNL     1      -8.840  11.331  68.671  1.00  0.00    -0.141 C  
BRANCH  21  22
HETATM   22  C   UNL     1      -9.955  11.263  67.626  1.00  0.00    -0.197 C  
BRANCH  22  23
HETATM   23  C   UNL     1      -9.554  12.008  66.351  1.00  0.00    -0.239 C  
BRANCH  23  24
HETATM   24  C   UNL     1     -10.161  11.365  65.104  1.00  0.00    -0.319 C  
BRANCH  24  25
HETATM   25  C   UNL     1      -9.658   9.933  64.924  1.00  0.00    -0.356 C  
HETATM   26  C   UNL     1      -8.520   9.862  63.921  1.00  0.00    -0.183 C  
ENDBRANCH  24  25
ENDBRANCH  23  24
ENDBRANCH  22  23
ENDBRANCH  21  22
ENDBRANCH  20  21
ENDBRANCH  17  20
ENDBRANCH  15  17
ENDBRANCH   1  15
BRANCH   1  27
HETATM   27  C   UNL     1     -11.013   8.489  69.848  1.00  0.00    -0.165 C  
BRANCH  27  28
HETATM   28  N   UNL     1     -11.467   9.233  71.048  1.00  0.00    -0.295 NA 
HETATM   29  C   UNL     1     -12.477   8.429  71.775  1.00  0.00    -0.335 C  
HETATM   30  C   UNL     1     -12.123  10.495  70.704  1.00  0.00    -0.356 C  
HETATM   31  C   UNL     1     -13.575   9.371  72.248  1.00  0.00    -0.532 C  
HETATM   32  C   UNL     1     -13.156  10.747  71.784  1.00  0.00    -0.573 C  
ENDBRANCH  27  28
ENDBRANCH   1  27
TORSDOF 12
ENDMDL
MODEL      311
REMARK 921   NORMALIZED FREE ENERGY PREDICTED BY IDOCK:   -3.49 KCAL/MOL
REMARK 922        TOTAL FREE ENERGY PREDICTED BY IDOCK:   -7.99 KCAL/MOL
REMARK 923 INTER-LIGAND FREE ENERGY PREDICTED BY IDOCK:   -6.46 KCAL/MOL
REMARK 924 INTRA-LIGAND FREE ENERGY PREDICTED BY IDOCK:   -1.53 KCAL/MOL
REMARK 927      BINDING AFFINITY PREDICTED BY RF-SCORE:    0.00 PKD
ROOT
HETATM    1  C   UNL     1     -10.732  12.220  67.532  1.00  0.00    -0.225 C  
ENDROOT
BRANCH   1   2
HETATM    2  C   UNL     1     -10.551  13.446  68.486  1.00  0.00    -0.253 C  
HETATM    3  O   UNL     1     -11.535  14.458  68.233  1.00  0.00    -0.274 OA 
HETATM    4  H   UNL     1     -11.425  15.204  68.812  1.00  0.00     0.000 HD 
BRANCH   2   5
HETATM    5  C   UNL     1      -9.136  14.029  68.461  1.00  0.00    -0.163 A  
HETATM    6  C   UNL     1      -6.409  17.603  69.651  1.00  0.00    -0.182 C  
HETATM    7  C   UNL     1      -7.683  15.973  68.683  1.00  0.00    -0.176 A  
HETATM    8  C   UNL     1      -7.984  13.222  68.409  1.00  0.00    -0.132 A  
HETATM    9  C   UNL     1      -6.549  15.161  68.618  1.00  0.00    -0.090 A  
HETATM   10  C   UNL     1      -5.203  17.057  68.904  1.00  0.00    -0.137 C  
HETATM   11  C   UNL     1      -8.963  15.424  68.562  1.00  0.00    -0.192 A  
HETATM   12  O   UNL     1      -5.269  15.632  68.753  1.00  0.00    -0.097 OA 
HETATM   13  O   UNL     1      -7.607  17.323  68.918  1.00  0.00    -0.258 OA 
HETATM   14  C   UNL     1      -6.702  13.786  68.462  1.00  0.00    -0.094 A  
ENDBRANCH   2   5
ENDBRANCH   1   2
BRANCH   1  15
HETATM   15  N   UNL     1     -11.974  12.414  66.764  1.00  0.00    -0.588 NA 
HETATM   16  H   UNL     1     -12.842  12.443  67.300  1.00  0.00     0.000 HD 
BRANCH  15  17
HETATM   17  C   UNL     1     -12.079  12.548  65.503  1.00  0.00    -0.419 C  
HETATM   18  H   UNL     1     -12.514  13.763  63.921  1.00  0.00     0.000 HD 
HETATM   19  O   UNL     1     -12.435  13.662  64.863  1.00  0.00    -0.489 OA 
BRANCH  17  20
HETATM   20  C   UNL     1     -11.801  11.379  64.591  1.00  0.00     0.165 C  
BRANCH  20  21
HETATM   21  C   UNL     1     -10.922  11.755  63.403  1.00  0.00    -0.458 C  
BRANCH  21  22
HETATM   22  C   UNL     1      -9.444  11.902  63.768  1.00  0.00    -0.029 C  
BRANCH  22  23
HETATM   23  C   UNL     1      -8.990  10.758  64.676  1.00  0.00    -0.191 C  
BRANCH  23  24
HETATM   24  C   UNL     1      -8.204   9.698  63.904  1.00  0.00    -0.159 C  
BRANCH  24  25
HETATM   25  C   UNL     1      -6.810   9.503  64.502  1.00  0.00    -0.099 C  
HETATM   26  C   UNL     1      -6.814   9.711  66.007  1.00  0.00    -0.088 C  
ENDBRANCH  24  25
ENDBRANCH  23  24
ENDBRANCH  22  23
ENDBRANCH  21  22
ENDBRANCH  20  21
ENDBRANCH  17  20
ENDBRANCH  15  17
ENDBRANCH   1  15
BRANCH   1  27
HETATM   27  C   UNL     1     -10.928  10.817  68.206  1.00  0.00    -0.255 C  
BRANCH  27  28
HETATM   28  N   UNL     1     -10.788  10.611  69.668  1.00  0.00    -0.261 NA 
HETATM   29  C   UNL     1     -10.089   9.329  69.921  1.00  0.00    -0.209 C  
HETATM   30  C   UNL     1     -12.084  10.507  70.340  1.00  0.00    -0.329 C  
HETATM   31  C   UNL     1     -10.772   8.647  71.098  1.00  0.00    -0.303 C  
HETATM   32  C   UNL     1     -11.876   9.586  71.526  1.00  0.00    -0.478 C  
ENDBRANCH  27  28
ENDBRANCH   1  27
TORSDOF 12
ENDMDL
MODEL      312
REMARK 921   NORMALIZED FREE ENERGY PREDICTED BY IDOCK:   -3.48 KCAL/MOL
REMARK 922        TOTAL FREE ENERGY PREDICTED BY IDOCK:   -7.98 KCAL/MOL
REMARK 923 INTER-LIGAND FREE ENERGY PREDICTED BY IDOCK:   -6.97 KCAL/MOL
REMARK 924 INTRA-LIGAND FREE ENERGY PREDICTED BY IDOCK:   -1.02 KCAL/MOL
REMARK 927      BINDING AFFINITY PREDICTED BY RF-SCORE:    0.00 PKD
ROOT
HETATM    1  C   UNL     1      -9.995  10.832  66.744  1.00  0.00    -0.206 C  
ENDROOT
BRANCH   1   2
HETATM    2  C   UNL     1      -9.446   9.477  66.188  1.00  0.00    -0.221 C  
HETATM    3  O   UNL     1      -9.893   9.240  64.846  1.00  0.00    -0.379 OA 
HETATM    4  H   UNL     1      -9.559   8.416  64.508  1.00  0.00     0.000 HD 
BRANCH   2   5
HETATM    5  C   UNL     1      -9.755   8.282  67.094  1.00  0.00    -0.255 A  
HETATM    6  C   UNL     1      -8.361   4.103  68.586  1.00  0.00    -0.083 C  
HETATM    7  C   UNL     1      -9.349   5.950  67.671  1.00  0.00    -0.107 A  
HETATM    8  C   UNL     1     -10.521   8.399  68.269  1.00  0.00    -0.214 A  
HETATM    9  C   UNL     1     -10.121   6.077  68.826  1.00  0.00    -0.168 A  
HETATM   10  C   UNL     1      -9.640   3.849  69.368  1.00  0.00    -0.169 C  
HETATM   11  C   UNL     1      -9.200   7.023  66.788  1.00  0.00    -0.181 A  
HETATM   12  O   UNL     1     -10.288   5.072  69.744  1.00  0.00    -0.277 OA 
HETATM   13  O   UNL     1      -8.661   4.800  67.370  1.00  0.00    -0.104 OA 
HETATM   14  C   UNL     1     -10.723   7.299  69.114  1.00  0.00    -0.201 A  
ENDBRANCH   2   5
ENDBRANCH   1   2
BRANCH   1  15
HETATM   15  N   UNL     1     -11.204  11.186  65.981  1.00  0.00    -0.078 NA 
HETATM   16  H   UNL     1     -12.059  10.684  66.222  1.00  0.00     0.000 HD 
BRANCH  15  17
HETATM   17  C   UNL     1     -11.296  12.053  65.054  1.00  0.00    -0.310 C  
HETATM   18  H   UNL     1     -10.669  12.706  63.224  1.00  0.00     0.000 HD 
HETATM   19  O   UNL     1     -10.600  12.058  63.917  1.00  0.00    -0.323 OA 
BRANCH  17  20
HETATM   20  C   UNL     1     -12.252  13.211  65.193  1.00  0.00    -0.497 C  
BRANCH  20  21
HETATM   21  C   UNL     1     -12.254  13.807  66.597  1.00  0.00    -0.454 C  
BRANCH  21  22
HETATM   22  C   UNL     1     -11.340  15.026  66.737  1.00  0.00    -0.293 C  
BRANCH  22  23
HETATM   23  C   UNL     1     -11.382  15.578  68.164  1.00  0.00    -0.348 C  
BRANCH  23  24
HETATM   24  C   UNL     1     -10.725  16.954  68.259  1.00  0.00    -0.377 C  
BRANCH  24  25
HETATM   25  C   UNL     1     -10.414  17.512  66.869  1.00  0.00    -0.285 C  
HETATM   26  C   UNL     1     -10.591  19.021  66.820  1.00  0.00    -0.508 C  
ENDBRANCH  24  25
ENDBRANCH  23  24
ENDBRANCH  22  23
ENDBRANCH  21  22
ENDBRANCH  20  21
ENDBRANCH  17  20
ENDBRANCH  15  17
ENDBRANCH   1  15
BRANCH   1  27
HETATM   27  C   UNL     1      -9.074  12.091  66.584  1.00  0.00    -0.205 C  
BRANCH  27  28
HETATM   28  N   UNL     1      -8.596  12.879  67.747  1.00  0.00    -0.172 NA 
HETATM   29  C   UNL     1      -8.139  14.212  67.286  1.00  0.00    -0.168 C  
HETATM   30  C   UNL     1      -7.444  12.259  68.402  1.00  0.00    -0.122 C  
HETATM   31  C   UNL     1      -6.868  14.561  68.047  1.00  0.00    -0.153 C  
HETATM   32  C   UNL     1      -6.617  13.394  68.973  1.00  0.00    -0.107 C  
ENDBRANCH  27  28
ENDBRANCH   1  27
TORSDOF 12
ENDMDL
MODEL      313
REMARK 921   NORMALIZED FREE ENERGY PREDICTED BY IDOCK:   -3.46 KCAL/MOL
REMARK 922        TOTAL FREE ENERGY PREDICTED BY IDOCK:   -7.95 KCAL/MOL
REMARK 923 INTER-LIGAND FREE ENERGY PREDICTED BY IDOCK:   -6.46 KCAL/MOL
REMARK 924 INTRA-LIGAND FREE ENERGY PREDICTED BY IDOCK:   -1.49 KCAL/MOL
REMARK 927      BINDING AFFINITY PREDICTED BY RF-SCORE:    0.00 PKD
ROOT
HETATM    1  C   UNL     1      -9.748   7.994  68.279  1.00  0.00    -0.164 C  
ENDROOT
BRANCH   1   2
HETATM    2  C   UNL     1     -11.048   7.947  69.148  1.00  0.00     0.185 C  
HETATM    3  O   UNL     1     -11.381   9.241  69.667  1.00  0.00    -0.427 OA 
HETATM    4  H   UNL     1     -12.171   9.212  70.195  1.00  0.00     0.000 HD 
BRANCH   2   5
HETATM    5  C   UNL     1     -10.993   6.899  70.263  1.00  0.00    -0.322 A  
HETATM    6  C   UNL     1      -8.288   4.068  72.773  1.00  0.00    -0.096 C  
HETATM    7  C   UNL     1      -9.768   5.114  71.381  1.00  0.00    -0.168 A  
HETATM    8  C   UNL     1     -11.939   6.850  71.305  1.00  0.00    -0.402 A  
HETATM    9  C   UNL     1     -10.720   5.068  72.400  1.00  0.00    -0.200 A  
HETATM   10  C   UNL     1      -9.465   3.402  73.467  1.00  0.00    -0.102 C  
HETATM   11  C   UNL     1      -9.920   5.987  70.300  1.00  0.00    -0.236 A  
HETATM   12  O   UNL     1     -10.619   4.253  73.498  1.00  0.00    -0.173 OA 
HETATM   13  O   UNL     1      -8.623   4.357  71.410  1.00  0.00    -0.103 OA 
HETATM   14  C   UNL     1     -11.817   5.924  72.350  1.00  0.00    -0.263 A  
ENDBRANCH   2   5
ENDBRANCH   1   2
BRANCH   1  15
HETATM   15  N   UNL     1      -9.348   9.404  68.126  1.00  0.00    -0.134 NA 
HETATM   16  H   UNL     1      -9.165   9.921  68.987  1.00  0.00     0.000 HD 
BRANCH  15  17
HETATM   17  C   UNL     1      -9.207  10.044  67.036  1.00  0.00    -0.146 C  
HETATM   18  H   UNL     1      -7.977  10.616  65.510  1.00  0.00     0.000 HD 
HETATM   19  O   UNL     1      -8.083  10.137  66.325  1.00  0.00    -0.118 OA 
BRANCH  17  20
HETATM   20  C   UNL     1     -10.372  10.796  66.444  1.00  0.00    -0.306 C  
BRANCH  20  21
HETATM   21  C   UNL     1     -10.278  10.928  64.927  1.00  0.00    -0.381 C  
BRANCH  21  22
HETATM   22  C   UNL     1     -11.562  11.460  64.286  1.00  0.00    -0.097 C  
BRANCH  22  23
HETATM   23  C   UNL     1     -11.289  12.748  63.507  1.00  0.00    -0.480 C  
BRANCH  23  24
HETATM   24  C   UNL     1     -11.369  13.982  64.406  1.00  0.00    -0.330 C  
BRANCH  24  25
HETATM   25  C   UNL     1     -12.489  13.840  65.437  1.00  0.00    -0.532 C  
HETATM   26  C   UNL     1     -12.100  14.452  66.772  1.00  0.00    -0.393 C  
ENDBRANCH  24  25
ENDBRANCH  23  24
ENDBRANCH  22  23
ENDBRANCH  21  22
ENDBRANCH  20  21
ENDBRANCH  17  20
ENDBRANCH  15  17
ENDBRANCH   1  15
BRANCH   1  27
HETATM   27  C   UNL     1      -9.860   7.479  66.802  1.00  0.00    -0.225 C  
BRANCH  27  28
HETATM   28  N   UNL     1      -9.268   6.192  66.363  1.00  0.00    -0.151 NA 
HETATM   29  C   UNL     1     -10.253   5.102  66.561  1.00  0.00    -0.264 C  
HETATM   30  C   UNL     1      -8.091   5.824  67.151  1.00  0.00    -0.102 C  
HETATM   31  C   UNL     1      -9.507   3.888  67.098  1.00  0.00    -0.231 C  
HETATM   32  C   UNL     1      -8.059   4.309  67.188  1.00  0.00    -0.100 C  
ENDBRANCH  27  28
ENDBRANCH   1  27
TORSDOF 12
ENDMDL
MODEL      314
REMARK 921   NORMALIZED FREE ENERGY PREDICTED BY IDOCK:   -3.46 KCAL/MOL
REMARK 922        TOTAL FREE ENERGY PREDICTED BY IDOCK:   -7.95 KCAL/MOL
REMARK 923 INTER-LIGAND FREE ENERGY PREDICTED BY IDOCK:   -6.78 KCAL/MOL
REMARK 924 INTRA-LIGAND FREE ENERGY PREDICTED BY IDOCK:   -1.17 KCAL/MOL
REMARK 927      BINDING AFFINITY PREDICTED BY RF-SCORE:    0.00 PKD
ROOT
HETATM    1  C   UNL     1      -9.900   9.031  68.890  1.00  0.00    -0.175 C  
ENDROOT
BRANCH   1   2
HETATM    2  C   UNL     1     -10.788  10.133  69.556  1.00  0.00    -0.255 C  
HETATM    3  O   UNL     1     -12.055   9.606  69.972  1.00  0.00    -0.465 OA 
HETATM    4  H   UNL     1     -12.595  10.276  70.378  1.00  0.00     0.000 HD 
BRANCH   2   5
HETATM    5  C   UNL     1     -10.965  11.378  68.683  1.00  0.00    -0.267 A  
HETATM    6  C   UNL     1     -11.158  13.063  64.353  1.00  0.00    -0.370 C  
HETATM    7  C   UNL     1     -10.713  12.445  66.507  1.00  0.00    -0.236 A  
HETATM    8  C   UNL     1     -11.689  12.507  69.110  1.00  0.00    -0.375 A  
HETATM    9  C   UNL     1     -11.423  13.563  66.947  1.00  0.00    -0.344 A  
HETATM   10  C   UNL     1     -11.210  14.510  64.815  1.00  0.00    -0.390 C  
HETATM   11  C   UNL     1     -10.446  11.381  67.373  1.00  0.00    -0.239 A  
HETATM   12  O   UNL     1     -11.738  14.628  66.144  1.00  0.00    -0.365 OA 
HETATM   13  O   UNL     1     -10.292  12.307  65.207  1.00  0.00    -0.268 OA 
HETATM   14  C   UNL     1     -11.894  13.601  68.257  1.00  0.00    -0.404 A  
ENDBRANCH   2   5
ENDBRANCH   1   2
BRANCH   1  15
HETATM   15  N   UNL     1     -10.246   7.733  69.495  1.00  0.00    -0.202 NA 
HETATM   16  H   UNL     1     -10.323   7.711  70.512  1.00  0.00     0.000 HD 
BRANCH  15  17
HETATM   17  C   UNL     1     -10.459   6.638  68.884  1.00  0.00    -0.212 C  
HETATM   18  H   UNL     1     -11.406   5.658  67.365  1.00  0.00     0.000 HD 
HETATM   19  O   UNL     1     -11.247   6.476  67.821  1.00  0.00    -0.305 OA 
BRANCH  17  20
HETATM   20  C   UNL     1      -9.801   5.367  69.359  1.00  0.00    -0.252 C  
BRANCH  20  21
HETATM   21  C   UNL     1      -9.973   5.138  70.857  1.00  0.00    -0.280 C  
BRANCH  21  22
HETATM   22  C   UNL     1      -8.648   4.921  71.591  1.00  0.00    -0.132 C  
BRANCH  22  23
HETATM   23  C   UNL     1      -8.891   4.557  73.057  1.00  0.00    -0.116 C  
BRANCH  23  24
HETATM   24  C   UNL     1      -9.379   3.116  73.210  1.00  0.00    -0.109 C  
BRANCH  24  25
HETATM   25  C   UNL     1     -10.682   3.059  74.008  1.00  0.00    -0.278 C  
HETATM   26  C   UNL     1     -11.604   1.965  73.495  1.00  0.00    -0.300 C  
ENDBRANCH  24  25
ENDBRANCH  23  24
ENDBRANCH  22  23
ENDBRANCH  21  22
ENDBRANCH  20  21
ENDBRANCH  17  20
ENDBRANCH  15  17
ENDBRANCH   1  15
BRANCH   1  27
HETATM   27  C   UNL     1      -8.350   9.139  69.105  1.00  0.00    -0.123 C  
BRANCH  27  28
HETATM   28  N   UNL     1      -7.594   8.172  69.937  1.00  0.00    -0.087 NA 
HETATM   29  C   UNL     1      -7.587   8.632  71.345  1.00  0.00    -0.112 C  
HETATM   30  C   UNL     1      -6.190   8.072  69.535  1.00  0.00    -0.034 C  
HETATM   31  C   UNL     1      -6.198   8.380  71.914  1.00  0.00    -0.061 C  
HETATM   32  C   UNL     1      -5.409   7.746  70.792  1.00  0.00    -0.026 C  
ENDBRANCH  27  28
ENDBRANCH   1  27
TORSDOF 12
ENDMDL
MODEL      315
REMARK 921   NORMALIZED FREE ENERGY PREDICTED BY IDOCK:   -3.45 KCAL/MOL
REMARK 922        TOTAL FREE ENERGY PREDICTED BY IDOCK:   -7.93 KCAL/MOL
REMARK 923 INTER-LIGAND FREE ENERGY PREDICTED BY IDOCK:   -6.04 KCAL/MOL
REMARK 924 INTRA-LIGAND FREE ENERGY PREDICTED BY IDOCK:   -1.89 KCAL/MOL
REMARK 927      BINDING AFFINITY PREDICTED BY RF-SCORE:    0.00 PKD
ROOT
HETATM    1  C   UNL     1      -9.427   9.937  68.638  1.00  0.00    -0.153 C  
ENDROOT
BRANCH   1   2
HETATM    2  C   UNL     1      -9.966   9.159  67.392  1.00  0.00    -0.206 C  
HETATM    3  O   UNL     1     -11.392   9.259  67.286  1.00  0.00    -0.159 OA 
HETATM    4  H   UNL     1     -11.720   8.787  66.529  1.00  0.00     0.000 HD 
BRANCH   2   5
HETATM    5  C   UNL     1      -9.508   7.699  67.346  1.00  0.00    -0.175 A  
HETATM    6  C   UNL     1      -9.722   3.653  65.062  1.00  0.00    -0.162 C  
HETATM    7  C   UNL     1      -9.827   5.446  66.476  1.00  0.00    -0.176 A  
HETATM    8  C   UNL     1      -8.294   7.266  67.913  1.00  0.00    -0.119 A  
HETATM    9  C   UNL     1      -8.627   5.027  67.052  1.00  0.00    -0.105 A  
HETATM   10  C   UNL     1      -8.951   2.898  66.132  1.00  0.00    -0.147 C  
HETATM   11  C   UNL     1     -10.289   6.752  66.654  1.00  0.00    -0.219 A  
HETATM   12  O   UNL     1      -8.107   3.768  66.898  1.00  0.00    -0.094 OA 
HETATM   13  O   UNL     1     -10.580   4.626  65.671  1.00  0.00    -0.287 OA 
HETATM   14  C   UNL     1      -7.870   5.935  67.788  1.00  0.00    -0.098 A  
ENDBRANCH   2   5
ENDBRANCH   1   2
BRANCH   1  15
HETATM   15  N   UNL     1     -10.335   9.678  69.769  1.00  0.00    -0.223 NA 
HETATM   16  H   UNL     1     -11.095  10.345  69.905  1.00  0.00     0.000 HD 
BRANCH  15  17
HETATM   17  C   UNL     1     -10.271   8.711  70.594  1.00  0.00    -0.198 C  
HETATM   18  H   UNL     1      -9.272   7.805  72.127  1.00  0.00     0.000 HD 
HETATM   19  O   UNL     1      -9.320   8.527  71.510  1.00  0.00    -0.178 OA 
BRANCH  17  20
HETATM   20  C   UNL     1     -11.329   7.636  70.583  1.00  0.00    -0.288 C  
BRANCH  20  21
HETATM   21  C   UNL     1     -10.818   6.301  71.115  1.00  0.00    -0.320 C  
BRANCH  21  22
HETATM   22  C   UNL     1     -11.488   5.875  72.422  1.00  0.00    -0.358 C  
BRANCH  22  23
HETATM   23  C   UNL     1     -10.805   4.638  73.007  1.00  0.00    -0.321 C  
BRANCH  23  24
HETATM   24  C   UNL     1     -10.146   4.937  74.353  1.00  0.00    -0.264 C  
BRANCH  24  25
HETATM   25  C   UNL     1      -8.751   5.533  74.161  1.00  0.00    -0.119 C  
HETATM   26  C   UNL     1      -7.919   4.708  73.193  1.00  0.00    -0.100 C  
ENDBRANCH  24  25
ENDBRANCH  23  24
ENDBRANCH  22  23
ENDBRANCH  21  22
ENDBRANCH  20  21
ENDBRANCH  17  20
ENDBRANCH  15  17
ENDBRANCH   1  15
BRANCH   1  27
HETATM   27  C   UNL     1      -9.394  11.502  68.540  1.00  0.00    -0.170 C  
BRANCH  27  28
HETATM   28  N   UNL     1     -10.256  12.257  67.599  1.00  0.00    -0.200 NA 
HETATM   29  C   UNL     1      -9.453  13.306  66.927  1.00  0.00    -0.249 C  
HETATM   30  C   UNL     1     -11.346  12.955  68.282  1.00  0.00    -0.291 C  
HETATM   31  C   UNL     1     -10.304  14.565  66.840  1.00  0.00    -0.264 C  
HETATM   32  C   UNL     1     -11.629  14.202  67.469  1.00  0.00    -0.396 C  
ENDBRANCH  27  28
ENDBRANCH   1  27
TORSDOF 12
ENDMDL
MODEL      316
REMARK 921   NORMALIZED FREE ENERGY PREDICTED BY IDOCK:   -3.43 KCAL/MOL
REMARK 922        TOTAL FREE ENERGY PREDICTED BY IDOCK:   -7.89 KCAL/MOL
REMARK 923 INTER-LIGAND FREE ENERGY PREDICTED BY IDOCK:   -6.14 KCAL/MOL
REMARK 924 INTRA-LIGAND FREE ENERGY PREDICTED BY IDOCK:   -1.75 KCAL/MOL
REMARK 927      BINDING AFFINITY PREDICTED BY RF-SCORE:    0.00 PKD
ROOT
HETATM    1  C   UNL     1     -10.711   9.357  68.801  1.00  0.00    -0.171 C  
ENDROOT
BRANCH   1   2
HETATM    2  C   UNL     1     -11.476   8.722  70.008  1.00  0.00     0.055 C  
HETATM    3  O   UNL     1     -12.428   9.638  70.567  1.00  0.00    -0.483 OA 
HETATM    4  H   UNL     1     -12.893   9.252  71.301  1.00  0.00     0.000 HD 
BRANCH   2   5
HETATM    5  C   UNL     1     -10.546   8.162  71.088  1.00  0.00    -0.242 A  
HETATM    6  C   UNL     1      -9.508   4.516  73.782  1.00  0.00    -0.119 C  
HETATM    7  C   UNL     1     -10.127   6.489  72.808  1.00  0.00    -0.176 A  
HETATM    8  C   UNL     1      -9.220   8.607  71.251  1.00  0.00    -0.283 A  
HETATM    9  C   UNL     1      -8.818   6.948  72.968  1.00  0.00    -0.126 A  
HETATM   10  C   UNL     1      -8.449   5.275  74.566  1.00  0.00    -0.105 C  
HETATM   11  C   UNL     1     -10.998   7.113  71.912  1.00  0.00    -0.262 A  
HETATM   12  O   UNL     1      -7.907   6.367  73.812  1.00  0.00    -0.092 OA 
HETATM   13  O   UNL     1     -10.604   5.386  73.471  1.00  0.00    -0.227 OA 
HETATM   14  C   UNL     1      -8.372   8.021  72.202  1.00  0.00    -0.188 A  
ENDBRANCH   2   5
ENDBRANCH   1   2
BRANCH   1  15
HETATM   15  N   UNL     1     -11.629  10.275  68.106  1.00  0.00    -0.696 NA 
HETATM   16  H   UNL     1     -12.442   9.853  67.655  1.00  0.00     0.000 HD 
BRANCH  15  17
HETATM   17  C   UNL     1     -11.517  11.539  68.008  1.00  0.00    -0.311 C  
HETATM   18  H   UNL     1     -12.044  13.384  68.704  1.00  0.00     0.000 HD 
HETATM   19  O   UNL     1     -12.128  12.440  68.777  1.00  0.00    -0.269 OA 
BRANCH  17  20
HETATM   20  C   UNL     1     -10.638  12.140  66.939  1.00  0.00    -0.257 C  
BRANCH  20  21
HETATM   21  C   UNL     1     -11.098  11.785  65.529  1.00  0.00    -0.336 C  
BRANCH  21  22
HETATM   22  C   UNL     1     -10.229  10.719  64.860  1.00  0.00    -0.388 C  
BRANCH  22  23
HETATM   23  C   UNL     1     -10.307  10.830  63.336  1.00  0.00    -0.196 C  
BRANCH  23  24
HETATM   24  C   UNL     1      -8.952  10.573  62.678  1.00  0.00    -0.291 C  
BRANCH  24  25
HETATM   25  C   UNL     1      -8.022   9.802  63.617  1.00  0.00    -0.144 C  
HETATM   26  C   UNL     1      -6.618   9.692  63.047  1.00  0.00    -0.107 C  
ENDBRANCH  24  25
ENDBRANCH  23  24
ENDBRANCH  22  23
ENDBRANCH  21  22
ENDBRANCH  20  21
ENDBRANCH  17  20
ENDBRANCH  15  17
ENDBRANCH   1  15
BRANCH   1  27
HETATM   27  C   UNL     1     -10.234   8.382  67.669  1.00  0.00    -0.236 C  
BRANCH  27  28
HETATM   28  N   UNL     1      -8.800   8.130  67.389  1.00  0.00    -0.127 NA 
HETATM   29  C   UNL     1      -8.305   7.053  68.280  1.00  0.00    -0.123 C  
HETATM   30  C   UNL     1      -7.966   9.301  67.665  1.00  0.00    -0.103 C  
HETATM   31  C   UNL     1      -6.912   7.441  68.756  1.00  0.00    -0.078 C  
HETATM   32  C   UNL     1      -6.614   8.768  68.097  1.00  0.00    -0.061 C  
ENDBRANCH  27  28
ENDBRANCH   1  27
TORSDOF 12
ENDMDL
MODEL      317
REMARK 921   NORMALIZED FREE ENERGY PREDICTED BY IDOCK:   -3.42 KCAL/MOL
REMARK 922        TOTAL FREE ENERGY PREDICTED BY IDOCK:   -7.87 KCAL/MOL
REMARK 923 INTER-LIGAND FREE ENERGY PREDICTED BY IDOCK:   -7.37 KCAL/MOL
REMARK 924 INTRA-LIGAND FREE ENERGY PREDICTED BY IDOCK:   -0.50 KCAL/MOL
REMARK 927      BINDING AFFINITY PREDICTED BY RF-SCORE:    0.00 PKD
ROOT
HETATM    1  C   UNL     1      -9.377  14.997  68.396  1.00  0.00    -0.193 C  
ENDROOT
BRANCH   1   2
HETATM    2  C   UNL     1     -10.617  14.056  68.551  1.00  0.00    -0.254 C  
HETATM    3  O   UNL     1     -10.954  13.855  69.931  1.00  0.00    -0.457 OA 
HETATM    4  H   UNL     1     -11.707  13.284  70.026  1.00  0.00     0.000 HD 
BRANCH   2   5
HETATM    5  C   UNL     1     -10.459  12.721  67.819  1.00  0.00    -0.228 A  
HETATM    6  C   UNL     1      -8.605   8.457  67.916  1.00  0.00    -0.131 C  
HETATM    7  C   UNL     1      -9.253  10.620  67.562  1.00  0.00    -0.143 A  
HETATM    8  C   UNL     1     -11.418  12.238  66.909  1.00  0.00    -0.418 A  
HETATM    9  C   UNL     1     -10.205  10.158  66.653  1.00  0.00    -0.224 A  
HETATM   10  C   UNL     1      -9.042   8.130  66.498  1.00  0.00    -0.176 C  
HETATM   11  C   UNL     1      -9.350  11.902  68.109  1.00  0.00    -0.191 A  
HETATM   12  O   UNL     1     -10.182   8.904  66.098  1.00  0.00    -0.259 OA 
HETATM   13  O   UNL     1      -8.218   9.834  68.004  1.00  0.00    -0.108 OA 
HETATM   14  C   UNL     1     -11.278  10.977  66.311  1.00  0.00    -0.008 A  
ENDBRANCH   2   5
ENDBRANCH   1   2
BRANCH   1  15
HETATM   15  N   UNL     1      -8.302  14.490  69.266  1.00  0.00    -0.364 NA 
HETATM   16  H   UNL     1      -8.489  13.617  69.760  1.00  0.00     0.000 HD 
BRANCH  15  17
HETATM   17  C   UNL     1      -7.166  15.026  69.468  1.00  0.00    -0.199 C  
HETATM   18  H   UNL     1      -5.467  15.110  70.596  1.00  0.00     0.000 HD 
HETATM   19  O   UNL     1      -6.315  14.710  70.445  1.00  0.00    -0.179 OA 
BRANCH  17  20
HETATM   20  C   UNL     1      -6.679  16.131  68.565  1.00  0.00    -0.126 C  
BRANCH  20  21
HETATM   21  C   UNL     1      -5.645  17.029  69.236  1.00  0.00    -0.161 C  
BRANCH  21  22
HETATM   22  C   UNL     1      -5.344  18.301  68.442  1.00  0.00    -0.167 C  
BRANCH  22  23
HETATM   23  C   UNL     1      -6.624  18.889  67.847  1.00  0.00    -0.227 C  
BRANCH  23  24
HETATM   24  C   UNL     1      -6.324  19.887  66.729  1.00  0.00    -0.199 C  
BRANCH  24  25
HETATM   25  C   UNL     1      -6.763  19.339  65.371  1.00  0.00    -0.293 C  
HETATM   26  C   UNL     1      -5.753  19.667  64.283  1.00  0.00    -0.308 C  
ENDBRANCH  24  25
ENDBRANCH  23  24
ENDBRANCH  22  23
ENDBRANCH  21  22
ENDBRANCH  20  21
ENDBRANCH  17  20
ENDBRANCH  15  17
ENDBRANCH   1  15
BRANCH   1  27
HETATM   27  C   UNL     1      -9.553  16.487  68.853  1.00  0.00    -0.261 C  
BRANCH  27  28
HETATM   28  N   UNL     1     -10.491  17.419  68.181  1.00  0.00    -0.374 NA 
HETATM   29  C   UNL     1     -10.353  17.284  66.712  1.00  0.00    -0.308 C  
HETATM   30  C   UNL     1     -10.198  18.820  68.490  1.00  0.00    -0.344 C  
HETATM   31  C   UNL     1     -10.417  18.678  66.104  1.00  0.00    -0.473 C  
HETATM   32  C   UNL     1     -10.612  19.620  67.270  1.00  0.00    -0.598 C  
ENDBRANCH  27  28
ENDBRANCH   1  27
TORSDOF 12
ENDMDL
MODEL      318
REMARK 921   NORMALIZED FREE ENERGY PREDICTED BY IDOCK:   -3.41 KCAL/MOL
REMARK 922        TOTAL FREE ENERGY PREDICTED BY IDOCK:   -7.86 KCAL/MOL
REMARK 923 INTER-LIGAND FREE ENERGY PREDICTED BY IDOCK:   -6.37 KCAL/MOL
REMARK 924 INTRA-LIGAND FREE ENERGY PREDICTED BY IDOCK:   -1.49 KCAL/MOL
REMARK 927      BINDING AFFINITY PREDICTED BY RF-SCORE:    0.00 PKD
ROOT
HETATM    1  C   UNL     1     -10.335  10.384  68.824  1.00  0.00    -0.196 C  
ENDROOT
BRANCH   1   2
HETATM    2  C   UNL     1      -8.990   9.687  69.215  1.00  0.00    -0.172 C  
HETATM    3  O   UNL     1      -8.106  10.593  69.890  1.00  0.00    -0.365 OA 
HETATM    4  H   UNL     1      -7.289  10.170  70.128  1.00  0.00     0.000 HD 
BRANCH   2   5
HETATM    5  C   UNL     1      -8.292   9.010  68.033  1.00  0.00    -0.117 A  
HETATM    6  C   UNL     1      -8.430   5.545  64.935  1.00  0.00    -0.139 C  
HETATM    7  C   UNL     1      -8.042   7.046  66.613  1.00  0.00    -0.110 A  
HETATM    8  C   UNL     1      -7.444   9.708  67.151  1.00  0.00    -0.088 A  
HETATM    9  C   UNL     1      -7.194   7.747  65.754  1.00  0.00    -0.068 A  
HETATM   10  C   UNL     1      -7.045   5.850  64.387  1.00  0.00    -0.053 C  
HETATM   11  C   UNL     1      -8.553   7.652  67.764  1.00  0.00    -0.121 A  
HETATM   12  O   UNL     1      -6.678   7.220  64.598  1.00  0.00    -0.042 OA 
HETATM   13  O   UNL     1      -8.457   5.764  66.350  1.00  0.00    -0.117 OA 
HETATM   14  C   UNL     1      -6.880   9.074  66.036  1.00  0.00    -0.080 A  
ENDBRANCH   2   5
ENDBRANCH   1   2
BRANCH   1  15
HETATM   15  N   UNL     1     -11.435   9.668  69.493  1.00  0.00    -0.444 NA 
HETATM   16  H   UNL     1     -12.382   9.966  69.258  1.00  0.00     0.000 HD 
BRANCH  15  17
HETATM   17  C   UNL     1     -11.329   8.718  70.333  1.00  0.00    -0.192 C  
HETATM   18  H   UNL     1     -11.065   6.722  70.666  1.00  0.00     0.000 HD 
HETATM   19  O   UNL     1     -11.144   7.431  70.038  1.00  0.00    -0.259 OA 
BRANCH  17  20
HETATM   20  C   UNL     1     -11.424   9.002  71.811  1.00  0.00    -0.442 C  
BRANCH  20  21
HETATM   21  C   UNL     1     -11.620   7.738  72.642  1.00  0.00    -0.398 C  
BRANCH  21  22
HETATM   22  C   UNL     1     -10.422   7.410  73.535  1.00  0.00    -0.396 C  
BRANCH  22  23
HETATM   23  C   UNL     1     -10.097   5.916  73.484  1.00  0.00    -0.204 C  
BRANCH  23  24
HETATM   24  C   UNL     1      -8.617   5.667  73.194  1.00  0.00    -0.117 C  
BRANCH  24  25
HETATM   25  C   UNL     1      -8.159   6.451  71.964  1.00  0.00    -0.108 C  
HETATM   26  C   UNL     1      -7.724   5.525  70.840  1.00  0.00    -0.092 C  
ENDBRANCH  24  25
ENDBRANCH  23  24
ENDBRANCH  22  23
ENDBRANCH  21  22
ENDBRANCH  20  21
ENDBRANCH  17  20
ENDBRANCH  15  17
ENDBRANCH   1  15
BRANCH   1  27
HETATM   27  C   UNL     1     -10.738  10.350  67.308  1.00  0.00    -0.273 C  
BRANCH  27  28
HETATM   28  N   UNL     1     -10.595  11.530  66.422  1.00  0.00    -0.250 NA 
HETATM   29  C   UNL     1     -11.823  12.356  66.498  1.00  0.00    -0.339 C  
HETATM   30  C   UNL     1     -10.446  11.153  65.015  1.00  0.00    -0.293 C  
HETATM   31  C   UNL     1     -12.153  12.837  65.092  1.00  0.00    -0.498 C  
HETATM   32  C   UNL     1     -11.067  12.274  64.206  1.00  0.00    -0.401 C  
ENDBRANCH  27  28
ENDBRANCH   1  27
TORSDOF 12
ENDMDL
MODEL      319
REMARK 921   NORMALIZED FREE ENERGY PREDICTED BY IDOCK:   -3.39 KCAL/MOL
REMARK 922        TOTAL FREE ENERGY PREDICTED BY IDOCK:   -7.83 KCAL/MOL
REMARK 923 INTER-LIGAND FREE ENERGY PREDICTED BY IDOCK:   -5.96 KCAL/MOL
REMARK 924 INTRA-LIGAND FREE ENERGY PREDICTED BY IDOCK:   -1.88 KCAL/MOL
REMARK 927      BINDING AFFINITY PREDICTED BY RF-SCORE:    0.00 PKD
ROOT
HETATM    1  C   UNL     1      -9.131   6.030  67.805  1.00  0.00    -0.109 C  
ENDROOT
BRANCH   1   2
HETATM    2  C   UNL     1     -10.207   7.076  68.248  1.00  0.00    -0.182 C  
HETATM    3  O   UNL     1     -11.512   6.719  67.774  1.00  0.00    -0.607 OA 
HETATM    4  H   UNL     1     -12.167   7.354  68.043  1.00  0.00     0.000 HD 
BRANCH   2   5
HETATM    5  C   UNL     1      -9.850   8.513  67.860  1.00  0.00    -0.208 A  
HETATM    6  C   UNL     1     -10.985  12.213  65.281  1.00  0.00    -0.304 C  
HETATM    7  C   UNL     1     -10.101  10.370  66.303  1.00  0.00    -0.231 A  
HETATM    8  C   UNL     1      -9.153   9.381  68.722  1.00  0.00    -0.132 A  
HETATM    9  C   UNL     1      -9.398  11.216  67.162  1.00  0.00    -0.165 A  
HETATM   10  C   UNL     1      -9.730  12.983  65.660  1.00  0.00    -0.096 C  
HETATM   11  C   UNL     1     -10.290   9.023  66.622  1.00  0.00    -0.289 A  
HETATM   12  O   UNL     1      -9.198  12.550  66.919  1.00  0.00    -0.200 OA 
HETATM   13  O   UNL     1     -10.682  10.820  65.142  1.00  0.00    -0.215 OA 
HETATM   14  C   UNL     1      -8.907  10.714  68.364  1.00  0.00    -0.145 A  
ENDBRANCH   2   5
ENDBRANCH   1   2
BRANCH   1  15
HETATM   15  N   UNL     1      -8.461   5.520  69.013  1.00  0.00    -0.101 NA 
HETATM   16  H   UNL     1      -7.525   5.132  68.886  1.00  0.00     0.000 HD 
BRANCH  15  17
HETATM   17  C   UNL     1      -8.924   5.512  70.198  1.00  0.00    -0.136 C  
HETATM   18  H   UNL     1     -10.302   4.780  71.514  1.00  0.00     0.000 HD 
HETATM   19  O   UNL     1      -9.956   4.786  70.629  1.00  0.00    -0.207 OA 
BRANCH  17  20
HETATM   20  C   UNL     1      -8.303   6.385  71.259  1.00  0.00    -0.123 C  
BRANCH  20  21
HETATM   21  C   UNL     1      -9.291   6.776  72.353  1.00  0.00    -0.146 C  
BRANCH  21  22
HETATM   22  C   UNL     1      -9.515   8.287  72.453  1.00  0.00    -0.357 C  
BRANCH  22  23
HETATM   23  C   UNL     1     -10.900   8.669  71.928  1.00  0.00    -0.419 C  
BRANCH  23  24
HETATM   24  C   UNL     1     -11.958   7.635  72.314  1.00  0.00    -0.329 C  
BRANCH  24  25
HETATM   25  C   UNL     1     -13.001   7.477  71.207  1.00  0.00    -0.323 C  
HETATM   26  C   UNL     1     -14.374   7.159  71.775  1.00  0.00    -0.515 C  
ENDBRANCH  24  25
ENDBRANCH  23  24
ENDBRANCH  22  23
ENDBRANCH  21  22
ENDBRANCH  20  21
ENDBRANCH  17  20
ENDBRANCH  15  17
ENDBRANCH   1  15
BRANCH   1  27
HETATM   27  C   UNL     1      -7.948   6.558  66.920  1.00  0.00    -0.112 C  
BRANCH  27  28
HETATM   28  N   UNL     1      -7.699   6.058  65.546  1.00  0.00    -0.088 NA 
HETATM   29  C   UNL     1      -8.957   5.512  64.984  1.00  0.00     0.014 C  
HETATM   30  C   UNL     1      -6.733   4.959  65.522  1.00  0.00    -0.056 C  
HETATM   31  C   UNL     1      -8.617   4.238  64.224  1.00  0.00    -0.121 C  
HETATM   32  C   UNL     1      -7.120   4.076  64.353  1.00  0.00    -0.054 C  
ENDBRANCH  27  28
ENDBRANCH   1  27
TORSDOF 12
ENDMDL
MODEL      320
REMARK 921   NORMALIZED FREE ENERGY PREDICTED BY IDOCK:   -3.39 KCAL/MOL
REMARK 922        TOTAL FREE ENERGY PREDICTED BY IDOCK:   -7.83 KCAL/MOL
REMARK 923 INTER-LIGAND FREE ENERGY PREDICTED BY IDOCK:   -5.90 KCAL/MOL
REMARK 924 INTRA-LIGAND FREE ENERGY PREDICTED BY IDOCK:   -1.93 KCAL/MOL
REMARK 927      BINDING AFFINITY PREDICTED BY RF-SCORE:    0.00 PKD
ROOT
HETATM    1  C   UNL     1      -8.385   8.612  67.427  1.00  0.00    -0.116 C  
ENDROOT
BRANCH   1   2
HETATM    2  C   UNL     1      -9.701   9.113  66.746  1.00  0.00    -0.210 C  
HETATM    3  O   UNL     1      -9.772   8.705  65.374  1.00  0.00    -0.405 OA 
HETATM    4  H   UNL     1     -10.572   9.009  64.960  1.00  0.00     0.000 HD 
BRANCH   2   5
HETATM    5  C   UNL     1      -9.919  10.622  66.888  1.00  0.00    -0.245 A  
HETATM    6  C   UNL     1     -11.843  14.029  69.401  1.00  0.00    -0.333 C  
HETATM    7  C   UNL     1     -11.173  12.458  67.883  1.00  0.00    -0.266 A  
HETATM    8  C   UNL     1      -9.014  11.570  66.372  1.00  0.00    -0.200 A  
HETATM    9  C   UNL     1     -10.276  13.388  67.356  1.00  0.00    -0.237 A  
HETATM   10  C   UNL     1     -11.481  15.108  68.393  1.00  0.00    -0.332 C  
HETATM   11  C   UNL     1     -11.027  11.094  67.618  1.00  0.00    -0.323 A  
HETATM   12  O   UNL     1     -10.349  14.736  67.595  1.00  0.00    -0.236 OA 
HETATM   13  O   UNL     1     -12.200  12.821  68.719  1.00  0.00    -0.188 OA 
HETATM   14  C   UNL     1      -9.206  12.943  66.584  1.00  0.00    -0.222 A  
ENDBRANCH   2   5
ENDBRANCH   1   2
BRANCH   1  15
HETATM   15  N   UNL     1      -8.424   7.140  67.477  1.00  0.00    -0.122 NA 
HETATM   16  H   UNL     1      -8.788   6.723  68.334  1.00  0.00     0.000 HD 
BRANCH  15  17
HETATM   17  C   UNL     1      -8.053   6.334  66.564  1.00  0.00    -0.110 C  
HETATM   18  H   UNL     1      -7.237   6.072  64.712  1.00  0.00     0.000 HD 
HETATM   19  O   UNL     1      -7.514   6.674  65.393  1.00  0.00    -0.073 OA 
BRANCH  17  20
HETATM   20  C   UNL     1      -8.219   4.848  66.755  1.00  0.00    -0.107 C  
BRANCH  20  21
HETATM   21  C   UNL     1      -9.552   4.482  67.401  1.00  0.00    -0.209 C  
BRANCH  21  22
HETATM   22  C   UNL     1      -9.458   3.274  68.336  1.00  0.00    -0.209 C  
BRANCH  22  23
HETATM   23  C   UNL     1      -9.805   3.668  69.772  1.00  0.00    -0.008 C  
BRANCH  23  24
HETATM   24  C   UNL     1     -10.331   5.101  69.856  1.00  0.00    -0.347 C  
BRANCH  24  25
HETATM   25  C   UNL     1     -10.924   5.389  71.236  1.00  0.00    -0.135 C  
HETATM   26  C   UNL     1     -10.213   4.604  72.325  1.00  0.00    -0.256 C  
ENDBRANCH  24  25
ENDBRANCH  23  24
ENDBRANCH  22  23
ENDBRANCH  21  22
ENDBRANCH  20  21
ENDBRANCH  17  20
ENDBRANCH  15  17
ENDBRANCH   1  15
BRANCH   1  27
HETATM   27  C   UNL     1      -8.154   9.027  68.921  1.00  0.00    -0.104 C  
BRANCH  27  28
HETATM   28  N   UNL     1      -8.707   8.250  70.057  1.00  0.00    -0.132 NA 
HETATM   29  C   UNL     1      -9.908   8.938  70.587  1.00  0.00    -0.212 C  
HETATM   30  C   UNL     1      -7.767   8.154  71.175  1.00  0.00    -0.091 C  
HETATM   31  C   UNL     1      -9.865   8.853  72.106  1.00  0.00    -0.252 C  
HETATM   32  C   UNL     1      -8.608   8.080  72.433  1.00  0.00    -0.220 C  
ENDBRANCH  27  28
ENDBRANCH   1  27
TORSDOF 12
ENDMDL
MODEL      321
REMARK 921   NORMALIZED FREE ENERGY PREDICTED BY IDOCK:   -3.38 KCAL/MOL
REMARK 922        TOTAL FREE ENERGY PREDICTED BY IDOCK:   -7.80 KCAL/MOL
REMARK 923 INTER-LIGAND FREE ENERGY PREDICTED BY IDOCK:   -6.83 KCAL/MOL
REMARK 924 INTRA-LIGAND FREE ENERGY PREDICTED BY IDOCK:   -0.97 KCAL/MOL
REMARK 927      BINDING AFFINITY PREDICTED BY RF-SCORE:    0.00 PKD
ROOT
HETATM    1  C   UNL     1      -9.956  10.820  69.081  1.00  0.00    -0.187 C  
ENDROOT
BRANCH   1   2
HETATM    2  C   UNL     1     -11.204  11.517  68.446  1.00  0.00    -0.255 C  
HETATM    3  O   UNL     1     -11.696  10.786  67.315  1.00  0.00    -0.402 OA 
HETATM    4  H   UNL     1     -12.455  11.209  66.929  1.00  0.00     0.000 HD 
BRANCH   2   5
HETATM    5  C   UNL     1     -10.963  12.987  68.093  1.00  0.00    -0.269 A  
HETATM    6  C   UNL     1     -11.086  16.231  64.763  1.00  0.00    -0.281 C  
HETATM    7  C   UNL     1     -10.620  14.685  66.380  1.00  0.00    -0.301 A  
HETATM    8  C   UNL     1     -11.056  14.021  69.045  1.00  0.00    -0.296 A  
HETATM    9  C   UNL     1     -10.702  15.699  67.336  1.00  0.00    -0.309 A  
HETATM   10  C   UNL     1     -10.438  17.292  65.638  1.00  0.00    -0.181 C  
HETATM   11  C   UNL     1     -10.704  13.342  66.755  1.00  0.00    -0.279 A  
HETATM   12  O   UNL     1     -10.650  17.035  67.033  1.00  0.00    -0.303 OA 
HETATM   13  O   UNL     1     -10.507  14.949  65.038  1.00  0.00    -0.393 OA 
HETATM   14  C   UNL     1     -10.901  15.363  68.672  1.00  0.00    -0.259 A  
ENDBRANCH   2   5
ENDBRANCH   1   2
BRANCH   1  15
HETATM   15  N   UNL     1      -9.061  10.397  67.990  1.00  0.00    -0.135 NA 
HETATM   16  H   UNL     1      -9.472   9.806  67.267  1.00  0.00     0.000 HD 
BRANCH  15  17
HETATM   17  C   UNL     1      -7.831  10.691  67.853  1.00  0.00    -0.105 C  
HETATM   18  H   UNL     1      -6.410  12.139  67.630  1.00  0.00     0.000 HD 
HETATM   19  O   UNL     1      -7.329  11.920  67.732  1.00  0.00    -0.094 OA 
BRANCH  17  20
HETATM   20  C   UNL     1      -6.793   9.597  67.806  1.00  0.00    -0.078 C  
BRANCH  20  21
HETATM   21  C   UNL     1      -7.372   8.253  67.378  1.00  0.00    -0.092 C  
BRANCH  21  22
HETATM   22  C   UNL     1      -8.168   8.327  66.073  1.00  0.00    -0.119 C  
BRANCH  22  23
HETATM   23  C   UNL     1      -7.245   8.180  64.862  1.00  0.00    -0.081 C  
BRANCH  23  24
HETATM   24  C   UNL     1      -7.112   9.492  64.089  1.00  0.00    -0.112 C  
BRANCH  24  25
HETATM   25  C   UNL     1      -5.730  10.113  64.294  1.00  0.00    -0.130 C  
HETATM   26  C   UNL     1      -5.157  10.645  62.991  1.00  0.00    -0.172 C  
ENDBRANCH  24  25
ENDBRANCH  23  24
ENDBRANCH  22  23
ENDBRANCH  21  22
ENDBRANCH  20  21
ENDBRANCH  17  20
ENDBRANCH  15  17
ENDBRANCH   1  15
BRANCH   1  27
HETATM   27  C   UNL     1     -10.211   9.498  69.885  1.00  0.00    -0.231 C  
BRANCH  27  28
HETATM   28  N   UNL     1     -10.790   9.498  71.250  1.00  0.00    -0.353 NA 
HETATM   29  C   UNL     1     -10.144   8.438  72.060  1.00  0.00    -0.294 C  
HETATM   30  C   UNL     1     -12.221   9.190  71.247  1.00  0.00    -0.327 C  
HETATM   31  C   UNL     1     -11.222   7.764  72.897  1.00  0.00    -0.434 C  
HETATM   32  C   UNL     1     -12.507   8.480  72.555  1.00  0.00    -0.358 C  
ENDBRANCH  27  28
ENDBRANCH   1  27
TORSDOF 12
ENDMDL
MODEL      322
REMARK 921   NORMALIZED FREE ENERGY PREDICTED BY IDOCK:   -3.35 KCAL/MOL
REMARK 922        TOTAL FREE ENERGY PREDICTED BY IDOCK:   -7.76 KCAL/MOL
REMARK 923 INTER-LIGAND FREE ENERGY PREDICTED BY IDOCK:   -6.23 KCAL/MOL
REMARK 924 INTRA-LIGAND FREE ENERGY PREDICTED BY IDOCK:   -1.53 KCAL/MOL
REMARK 927      BINDING AFFINITY PREDICTED BY RF-SCORE:    0.00 PKD
ROOT
HETATM    1  C   UNL     1     -10.052   8.660  69.731  1.00  0.00    -0.199 C  
ENDROOT
BRANCH   1   2
HETATM    2  C   UNL     1     -10.006   8.844  68.178  1.00  0.00    -0.176 C  
HETATM    3  O   UNL     1     -11.287   9.222  67.655  1.00  0.00    -0.372 OA 
HETATM    4  H   UNL     1     -11.259   9.334  66.712  1.00  0.00     0.000 HD 
BRANCH   2   5
HETATM    5  C   UNL     1      -9.444   7.626  67.441  1.00  0.00    -0.175 A  
HETATM    6  C   UNL     1     -10.374   4.058  64.605  1.00  0.00    -0.205 C  
HETATM    7  C   UNL     1      -9.858   5.523  66.282  1.00  0.00    -0.145 A  
HETATM    8  C   UNL     1      -8.096   7.534  67.045  1.00  0.00    -0.117 A  
HETATM    9  C   UNL     1      -8.516   5.438  65.907  1.00  0.00    -0.127 A  
HETATM   10  C   UNL     1      -8.986   3.456  64.751  1.00  0.00    -0.130 C  
HETATM   11  C   UNL     1     -10.313   6.579  67.076  1.00  0.00    -0.319 A  
HETATM   12  O   UNL     1      -8.010   4.443  65.112  1.00  0.00    -0.095 OA 
HETATM   13  O   UNL     1     -10.798   4.618  65.854  1.00  0.00    -0.274 OA 
HETATM   14  C   UNL     1      -7.631   6.436  66.307  1.00  0.00    -0.090 A  
ENDBRANCH   2   5
ENDBRANCH   1   2
BRANCH   1  15
HETATM   15  N   UNL     1      -8.739   8.162  70.174  1.00  0.00    -0.129 NA 
HETATM   16  H   UNL     1      -8.559   7.167  70.037  1.00  0.00     0.000 HD 
BRANCH  15  17
HETATM   17  C   UNL     1      -7.806   8.841  70.710  1.00  0.00    -0.109 C  
HETATM   18  H   UNL     1      -6.969   9.593  72.413  1.00  0.00     0.000 HD 
HETATM   19  O   UNL     1      -7.666   9.086  72.013  1.00  0.00    -0.348 OA 
BRANCH  17  20
HETATM   20  C   UNL     1      -6.732   9.461  69.851  1.00  0.00    -0.058 C  
BRANCH  20  21
HETATM   21  C   UNL     1      -7.101  10.858  69.365  1.00  0.00    -0.131 C  
BRANCH  21  22
HETATM   22  C   UNL     1      -6.992  11.018  67.847  1.00  0.00    -0.073 C  
BRANCH  22  23
HETATM   23  C   UNL     1      -6.119  12.221  67.486  1.00  0.00    -0.140 C  
BRANCH  23  24
HETATM   24  C   UNL     1      -6.607  13.500  68.167  1.00  0.00    -0.121 C  
BRANCH  24  25
HETATM   25  C   UNL     1      -7.892  14.013  67.517  1.00  0.00    -0.197 C  
HETATM   26  C   UNL     1      -8.969  14.292  68.551  1.00  0.00    -0.185 C  
ENDBRANCH  24  25
ENDBRANCH  23  24
ENDBRANCH  22  23
ENDBRANCH  21  22
ENDBRANCH  20  21
ENDBRANCH  17  20
ENDBRANCH  15  17
ENDBRANCH   1  15
BRANCH   1  27
HETATM   27  C   UNL     1     -11.061   7.597  70.292  1.00  0.00    -0.244 C  
BRANCH  27  28
HETATM   28  N   UNL     1     -11.926   7.865  71.466  1.00  0.00    -0.292 NA 
HETATM   29  C   UNL     1     -13.264   7.269  71.239  1.00  0.00    -0.289 C  
HETATM   30  C   UNL     1     -12.149   9.296  71.676  1.00  0.00    -0.379 C  
HETATM   31  C   UNL     1     -14.308   8.251  71.750  1.00  0.00    -0.574 C  
HETATM   32  C   UNL     1     -13.528   9.426  72.293  1.00  0.00    -0.539 C  
ENDBRANCH  27  28
ENDBRANCH   1  27
TORSDOF 12
ENDMDL
MODEL      323
REMARK 921   NORMALIZED FREE ENERGY PREDICTED BY IDOCK:   -3.31 KCAL/MOL
REMARK 922        TOTAL FREE ENERGY PREDICTED BY IDOCK:   -7.69 KCAL/MOL
REMARK 923 INTER-LIGAND FREE ENERGY PREDICTED BY IDOCK:   -6.05 KCAL/MOL
REMARK 924 INTRA-LIGAND FREE ENERGY PREDICTED BY IDOCK:   -1.64 KCAL/MOL
REMARK 927      BINDING AFFINITY PREDICTED BY RF-SCORE:    0.00 PKD
ROOT
HETATM    1  C   UNL     1      -9.882   7.823  70.291  1.00  0.00    -0.184 C  
ENDROOT
BRANCH   1   2
HETATM    2  C   UNL     1     -10.580   6.458  70.604  1.00  0.00    -0.237 C  
HETATM    3  O   UNL     1     -10.314   6.028  71.946  1.00  0.00    -0.199 OA 
HETATM    4  H   UNL     1     -10.738   5.199  72.136  1.00  0.00     0.000 HD 
BRANCH   2   5
HETATM    5  C   UNL     1     -10.243   5.360  69.593  1.00  0.00    -0.345 A  
HETATM    6  C   UNL     1      -8.941   4.389  65.234  1.00  0.00    -0.140 C  
HETATM    7  C   UNL     1      -9.937   4.696  67.268  1.00  0.00    -0.159 A  
HETATM    8  C   UNL     1      -9.741   4.102  69.977  1.00  0.00    -0.282 A  
HETATM    9  C   UNL     1      -9.452   3.449  67.664  1.00  0.00    -0.181 A  
HETATM   10  C   UNL     1      -9.114   2.890  65.414  1.00  0.00    -0.149 C  
HETATM   11  C   UNL     1     -10.370   5.628  68.215  1.00  0.00    -0.253 A  
HETATM   12  O   UNL     1      -8.992   2.499  66.789  1.00  0.00    -0.129 OA 
HETATM   13  O   UNL     1      -9.964   5.090  65.953  1.00  0.00    -0.179 OA 
HETATM   14  C   UNL     1      -9.374   3.146  69.021  1.00  0.00    -0.230 A  
ENDBRANCH   2   5
ENDBRANCH   1   2
BRANCH   1  15
HETATM   15  N   UNL     1      -9.251   8.312  71.529  1.00  0.00    -0.160 NA 
HETATM   16  H   UNL     1      -9.867   8.448  72.331  1.00  0.00     0.000 HD 
BRANCH  15  17
HETATM   17  C   UNL     1      -8.020   8.582  71.705  1.00  0.00    -0.142 C  
HETATM   18  H   UNL     1      -6.502   8.971  73.013  1.00  0.00     0.000 HD 
HETATM   19  O   UNL     1      -7.421   8.769  72.881  1.00  0.00    -0.357 OA 
BRANCH  17  20
HETATM   20  C   UNL     1      -7.101   8.728  70.518  1.00  0.00    -0.050 C  
BRANCH  20  21
HETATM   21  C   UNL     1      -6.968  10.174  70.051  1.00  0.00    -0.145 C  
BRANCH  21  22
HETATM   22  C   UNL     1      -7.640  10.437  68.702  1.00  0.00    -0.092 C  
BRANCH  22  23
HETATM   23  C   UNL     1      -6.596  10.583  67.592  1.00  0.00    -0.065 C  
BRANCH  23  24
HETATM   24  C   UNL     1      -6.895   9.664  66.409  1.00  0.00    -0.084 C  
BRANCH  24  25
HETATM   25  C   UNL     1      -7.069   8.216  66.867  1.00  0.00    -0.078 C  
HETATM   26  C   UNL     1      -5.736   7.577  67.220  1.00  0.00    -0.031 C  
ENDBRANCH  24  25
ENDBRANCH  23  24
ENDBRANCH  22  23
ENDBRANCH  21  22
ENDBRANCH  20  21
ENDBRANCH  17  20
ENDBRANCH  15  17
ENDBRANCH   1  15
BRANCH   1  27
HETATM   27  C   UNL     1     -10.807   9.011  69.852  1.00  0.00    -0.218 C  
BRANCH  27  28
HETATM   28  N   UNL     1     -11.196  10.100  70.780  1.00  0.00    -0.338 NA 
HETATM   29  C   UNL     1     -12.265   9.616  71.687  1.00  0.00    -0.402 C  
HETATM   30  C   UNL     1     -11.753  11.257  70.077  1.00  0.00    -0.346 C  
HETATM   31  C   UNL     1     -13.284  10.736  71.850  1.00  0.00    -0.524 C  
HETATM   32  C   UNL     1     -12.759  11.885  71.021  1.00  0.00    -0.354 C  
ENDBRANCH  27  28
ENDBRANCH   1  27
TORSDOF 12
ENDMDL
MODEL      324
REMARK 921   NORMALIZED FREE ENERGY PREDICTED BY IDOCK:   -3.29 KCAL/MOL
REMARK 922        TOTAL FREE ENERGY PREDICTED BY IDOCK:   -7.65 KCAL/MOL
REMARK 923 INTER-LIGAND FREE ENERGY PREDICTED BY IDOCK:   -7.58 KCAL/MOL
REMARK 924 INTRA-LIGAND FREE ENERGY PREDICTED BY IDOCK:   -0.08 KCAL/MOL
REMARK 927      BINDING AFFINITY PREDICTED BY RF-SCORE:    0.00 PKD
ROOT
HETATM    1  C   UNL     1     -12.702  10.302  71.038  1.00  0.00    -0.396 C  
ENDROOT
BRANCH   1   2
HETATM    2  C   UNL     1     -13.053   9.001  71.834  1.00  0.00    -0.400 C  
HETATM    3  O   UNL     1     -12.972   9.214  73.249  1.00  0.00    -0.484 OA 
HETATM    4  H   UNL     1     -13.185   8.424  73.733  1.00  0.00     0.000 HD 
BRANCH   2   5
HETATM    5  C   UNL     1     -12.222   7.788  71.407  1.00  0.00    -0.343 A  
HETATM    6  C   UNL     1     -10.603   3.598  72.612  1.00  0.00    -0.058 C  
HETATM    7  C   UNL     1     -11.007   5.774  72.040  1.00  0.00    -0.260 A  
HETATM    8  C   UNL     1     -12.058   7.417  70.059  1.00  0.00     0.332 A  
HETATM    9  C   UNL     1     -10.841   5.424  70.699  1.00  0.00    -0.123 A  
HETATM   10  C   UNL     1      -9.741   3.467  71.366  1.00  0.00    -0.164 C  
HETATM   11  C   UNL     1     -11.650   6.962  72.395  1.00  0.00    -0.278 A  
HETATM   12  O   UNL     1     -10.241   4.263  70.284  1.00  0.00    -0.138 OA 
HETATM   13  O   UNL     1     -10.602   4.957  73.067  1.00  0.00    -0.192 OA 
HETATM   14  C   UNL     1     -11.351   6.259  69.708  1.00  0.00    -0.506 A  
ENDBRANCH   2   5
ENDBRANCH   1   2
BRANCH   1  15
HETATM   15  N   UNL     1     -11.291  10.221  70.623  1.00  0.00    -0.333 NA 
HETATM   16  H   UNL     1     -10.615   9.983  71.350  1.00  0.00     0.000 HD 
BRANCH  15  17
HETATM   17  C   UNL     1     -10.826  10.416  69.455  1.00  0.00    -0.248 C  
HETATM   18  H   UNL     1      -9.190  10.529  68.239  1.00  0.00     0.000 HD 
HETATM   19  O   UNL     1      -9.538  10.384  69.111  1.00  0.00    -0.196 OA 
BRANCH  17  20
HETATM   20  C   UNL     1     -11.759  10.726  68.311  1.00  0.00    -0.205 C  
BRANCH  20  21
HETATM   21  C   UNL     1     -11.553  12.128  67.747  1.00  0.00    -0.410 C  
BRANCH  21  22
HETATM   22  C   UNL     1     -10.241  12.774  68.198  1.00  0.00    -0.241 C  
BRANCH  22  23
HETATM   23  C   UNL     1      -9.911  13.996  67.338  1.00  0.00    -0.243 C  
BRANCH  23  24
HETATM   24  C   UNL     1     -10.560  15.267  67.886  1.00  0.00    -0.260 C  
BRANCH  24  25
HETATM   25  C   UNL     1      -9.576  16.061  68.744  1.00  0.00    -0.221 C  
HETATM   26  C   UNL     1      -8.135  15.736  68.387  1.00  0.00    -0.143 C  
ENDBRANCH  24  25
ENDBRANCH  23  24
ENDBRANCH  22  23
ENDBRANCH  21  22
ENDBRANCH  20  21
ENDBRANCH  17  20
ENDBRANCH  15  17
ENDBRANCH   1  15
BRANCH   1  27
HETATM   27  C   UNL     1     -12.782  11.658  71.821  1.00  0.00    -0.217 C  
BRANCH  27  28
HETATM   28  N   UNL     1     -13.476  12.851  71.277  1.00  0.00     0.039 NA 
HETATM   29  C   UNL     1     -12.480  13.771  70.679  1.00  0.00    -0.359 C  
HETATM   30  C   UNL     1     -14.163  13.616  72.319  1.00  0.00    -0.426 C  
HETATM   31  C   UNL     1     -12.873  15.194  71.051  1.00  0.00    -0.477 C  
HETATM   32  C   UNL     1     -14.137  15.064  71.870  1.00  0.00    -0.627 C  
ENDBRANCH  27  28
ENDBRANCH   1  27
TORSDOF 12
ENDMDL
MODEL      325
REMARK 921   NORMALIZED FREE ENERGY PREDICTED BY IDOCK:   -3.27 KCAL/MOL
REMARK 922        TOTAL FREE ENERGY PREDICTED BY IDOCK:   -7.63 KCAL/MOL
REMARK 923 INTER-LIGAND FREE ENERGY PREDICTED BY IDOCK:   -6.01 KCAL/MOL
REMARK 924 INTRA-LIGAND FREE ENERGY PREDICTED BY IDOCK:   -1.62 KCAL/MOL
REMARK 927      BINDING AFFINITY PREDICTED BY RF-SCORE:    0.00 PKD
ROOT
HETATM    1  C   UNL     1      -9.698  11.361  67.632  1.00  0.00    -0.172 C  
ENDROOT
BRANCH   1   2
HETATM    2  C   UNL     1     -10.789  10.374  67.100  1.00  0.00    -0.238 C  
HETATM    3  O   UNL     1     -11.871  10.235  68.031  1.00  0.00    -0.708 OA 
HETATM    4  H   UNL     1     -12.534   9.635  67.708  1.00  0.00     0.000 HD 
BRANCH   2   5
HETATM    5  C   UNL     1     -10.225   9.008  66.699  1.00  0.00    -0.333 A  
HETATM    6  C   UNL     1      -6.468   6.627  65.341  1.00  0.00    -0.046 C  
HETATM    7  C   UNL     1      -8.453   7.722  65.630  1.00  0.00    -0.141 A  
HETATM    8  C   UNL     1     -10.776   7.796  67.156  1.00  0.00    -0.337 A  
HETATM    9  C   UNL     1      -9.016   6.528  66.081  1.00  0.00    -0.146 A  
HETATM   10  C   UNL     1      -7.250   5.347  65.094  1.00  0.00    -0.067 C  
HETATM   11  C   UNL     1      -9.069   8.948  65.896  1.00  0.00    -0.271 A  
HETATM   12  O   UNL     1      -8.451   5.295  65.875  1.00  0.00    -0.116 OA 
HETATM   13  O   UNL     1      -7.255   7.763  64.960  1.00  0.00    -0.061 OA 
HETATM   14  C   UNL     1     -10.190   6.565  66.828  1.00  0.00    -0.257 A  
ENDBRANCH   2   5
ENDBRANCH   1   2
BRANCH   1  15
HETATM   15  N   UNL     1      -9.516  11.112  69.073  1.00  0.00    -0.379 NA 
HETATM   16  H   UNL     1     -10.138  11.617  69.705  1.00  0.00     0.000 HD 
BRANCH  15  17
HETATM   17  C   UNL     1      -8.665  10.335  69.612  1.00  0.00    -0.105 C  
HETATM   18  H   UNL     1      -6.728   9.705  69.735  1.00  0.00     0.000 HD 
HETATM   19  O   UNL     1      -7.363  10.286  69.332  1.00  0.00    -0.087 OA 
BRANCH  17  20
HETATM   20  C   UNL     1      -9.104   9.348  70.665  1.00  0.00    -0.292 C  
BRANCH  20  21
HETATM   21  C   UNL     1      -9.366   7.958  70.097  1.00  0.00    -0.156 C  
BRANCH  21  22
HETATM   22  C   UNL     1      -9.506   6.881  71.175  1.00  0.00    -0.166 C  
BRANCH  22  23
HETATM   23  C   UNL     1      -8.248   6.012  71.245  1.00  0.00    -0.123 C  
BRANCH  23  24
HETATM   24  C   UNL     1      -7.556   6.125  72.603  1.00  0.00    -0.101 C  
BRANCH  24  25
HETATM   25  C   UNL     1      -8.575   6.338  73.723  1.00  0.00    -0.126 C  
HETATM   26  C   UNL     1      -9.031   5.018  74.322  1.00  0.00    -0.111 C  
ENDBRANCH  24  25
ENDBRANCH  23  24
ENDBRANCH  22  23
ENDBRANCH  21  22
ENDBRANCH  20  21
ENDBRANCH  17  20
ENDBRANCH  15  17
ENDBRANCH   1  15
BRANCH   1  27
HETATM   27  C   UNL     1     -10.028  12.892  67.559  1.00  0.00    -0.215 C  
BRANCH  27  28
HETATM   28  N   UNL     1     -10.144  13.739  68.771  1.00  0.00    -0.184 NA 
HETATM   29  C   UNL     1     -11.485  14.368  68.808  1.00  0.00    -0.289 C  
HETATM   30  C   UNL     1      -9.179  14.839  68.774  1.00  0.00    -0.196 C  
HETATM   31  C   UNL     1     -11.316  15.806  69.277  1.00  0.00    -0.350 C  
HETATM   32  C   UNL     1      -9.836  15.980  69.525  1.00  0.00    -0.235 C  
ENDBRANCH  27  28
ENDBRANCH   1  27
TORSDOF 12
ENDMDL
MODEL      326
REMARK 921   NORMALIZED FREE ENERGY PREDICTED BY IDOCK:   -3.27 KCAL/MOL
REMARK 922        TOTAL FREE ENERGY PREDICTED BY IDOCK:   -7.62 KCAL/MOL
REMARK 923 INTER-LIGAND FREE ENERGY PREDICTED BY IDOCK:   -6.41 KCAL/MOL
REMARK 924 INTRA-LIGAND FREE ENERGY PREDICTED BY IDOCK:   -1.21 KCAL/MOL
REMARK 927      BINDING AFFINITY PREDICTED BY RF-SCORE:    0.00 PKD
ROOT
HETATM    1  C   UNL     1     -10.264   8.146  69.431  1.00  0.00    -0.211 C  
ENDROOT
BRANCH   1   2
HETATM    2  C   UNL     1     -11.224   8.995  70.328  1.00  0.00    -0.205 C  
HETATM    3  O   UNL     1     -12.467   8.317  70.555  1.00  0.00    -0.438 OA 
HETATM    4  H   UNL     1     -13.051   8.832  71.100  1.00  0.00     0.000 HD 
BRANCH   2   5
HETATM    5  C   UNL     1     -11.456  10.412  69.796  1.00  0.00    -0.348 A  
HETATM    6  C   UNL     1     -11.893  14.917  70.865  1.00  0.00    -0.321 C  
HETATM    7  C   UNL     1     -12.074  12.725  70.242  1.00  0.00    -0.297 A  
HETATM    8  C   UNL     1     -11.097  10.800  68.491  1.00  0.00    -0.317 A  
HETATM    9  C   UNL     1     -11.726  13.094  68.941  1.00  0.00    -0.326 A  
HETATM   10  C   UNL     1     -12.270  15.315  69.447  1.00  0.00    -0.213 C  
HETATM   11  C   UNL     1     -11.984  11.394  70.656  1.00  0.00    -0.413 A  
HETATM   12  O   UNL     1     -11.769  14.384  68.479  1.00  0.00    -0.302 OA 
HETATM   13  O   UNL     1     -12.467  13.643  71.185  1.00  0.00    -0.354 OA 
HETATM   14  C   UNL     1     -11.255  12.124  68.060  1.00  0.00    -0.319 A  
ENDBRANCH   2   5
ENDBRANCH   1   2
BRANCH   1  15
HETATM   15  N   UNL     1     -11.076   7.447  68.420  1.00  0.00    -0.438 NA 
HETATM   16  H   UNL     1     -12.077   7.376  68.609  1.00  0.00     0.000 HD 
BRANCH  15  17
HETATM   17  C   UNL     1     -10.663   6.923  67.337  1.00  0.00    -0.326 C  
HETATM   18  H   UNL     1     -10.944   5.535  65.867  1.00  0.00     0.000 HD 
HETATM   19  O   UNL     1     -11.253   5.927  66.676  1.00  0.00    -0.172 OA 
BRANCH  17  20
HETATM   20  C   UNL     1      -9.392   7.418  66.693  1.00  0.00    -0.215 C  
BRANCH  20  21
HETATM   21  C   UNL     1      -8.448   6.285  66.306  1.00  0.00    -0.133 C  
BRANCH  21  22
HETATM   22  C   UNL     1      -7.852   6.447  64.906  1.00  0.00    -0.113 C  
BRANCH  22  23
HETATM   23  C   UNL     1      -7.515   7.913  64.623  1.00  0.00    -0.101 C  
BRANCH  23  24
HETATM   24  C   UNL     1      -8.176   8.408  63.337  1.00  0.00    -0.114 C  
BRANCH  24  25
HETATM   25  C   UNL     1      -7.176   9.165  62.462  1.00  0.00    -0.096 C  
HETATM   26  C   UNL     1      -6.646  10.405  63.163  1.00  0.00    -0.085 C  
ENDBRANCH  24  25
ENDBRANCH  23  24
ENDBRANCH  22  23
ENDBRANCH  21  22
ENDBRANCH  20  21
ENDBRANCH  17  20
ENDBRANCH  15  17
ENDBRANCH   1  15
BRANCH   1  27
HETATM   27  C   UNL     1      -9.470   6.990  70.133  1.00  0.00    -0.162 C  
BRANCH  27  28
HETATM   28  N   UNL     1      -8.023   7.093  70.443  1.00  0.00    -0.110 NA 
HETATM   29  C   UNL     1      -7.846   7.339  71.893  1.00  0.00    -0.091 C  
HETATM   30  C   UNL     1      -7.388   8.220  69.758  1.00  0.00    -0.065 C  
HETATM   31  C   UNL     1      -6.734   8.365  72.062  1.00  0.00    -0.087 C  
HETATM   32  C   UNL     1      -6.266   8.690  70.662  1.00  0.00    -0.037 C  
ENDBRANCH  27  28
ENDBRANCH   1  27
TORSDOF 12
ENDMDL
MODEL      327
REMARK 921   NORMALIZED FREE ENERGY PREDICTED BY IDOCK:   -3.27 KCAL/MOL
REMARK 922        TOTAL FREE ENERGY PREDICTED BY IDOCK:   -7.61 KCAL/MOL
REMARK 923 INTER-LIGAND FREE ENERGY PREDICTED BY IDOCK:   -6.31 KCAL/MOL
REMARK 924 INTRA-LIGAND FREE ENERGY PREDICTED BY IDOCK:   -1.30 KCAL/MOL
REMARK 927      BINDING AFFINITY PREDICTED BY RF-SCORE:    0.00 PKD
ROOT
HETATM    1  C   UNL     1      -8.476   8.487  67.203  1.00  0.00    -0.118 C  
ENDROOT
BRANCH   1   2
HETATM    2  C   UNL     1      -8.663   9.149  68.608  1.00  0.00    -0.129 C  
HETATM    3  O   UNL     1      -7.401   9.465  69.212  1.00  0.00    -0.067 OA 
HETATM    4  H   UNL     1      -7.514   9.868  70.066  1.00  0.00     0.000 HD 
BRANCH   2   5
HETATM    5  C   UNL     1      -9.538   8.324  69.554  1.00  0.00    -0.171 A  
HETATM    6  C   UNL     1      -9.651   5.583  73.310  1.00  0.00    -0.146 C  
HETATM    7  C   UNL     1      -9.698   6.591  71.259  1.00  0.00    -0.173 A  
HETATM    8  C   UNL     1     -10.897   8.617  69.780  1.00  0.00    -0.185 A  
HETATM    9  C   UNL     1     -11.047   6.884  71.464  1.00  0.00    -0.244 A  
HETATM   10  C   UNL     1     -11.126   5.253  73.144  1.00  0.00    -0.324 C  
HETATM   11  C   UNL     1      -8.959   7.269  70.287  1.00  0.00    -0.151 A  
HETATM   12  O   UNL     1     -11.822   6.273  72.416  1.00  0.00    -0.291 OA 
HETATM   13  O   UNL     1      -9.022   5.674  72.026  1.00  0.00    -0.137 OA 
HETATM   14  C   UNL     1     -11.651   7.886  70.708  1.00  0.00    -0.258 A  
ENDBRANCH   2   5
ENDBRANCH   1   2
BRANCH   1  15
HETATM   15  N   UNL     1      -8.514   9.550  66.184  1.00  0.00    -0.118 NA 
HETATM   16  H   UNL     1      -7.618   9.954  65.913  1.00  0.00     0.000 HD 
BRANCH  15  17
HETATM   17  C   UNL     1      -9.547  10.018  65.607  1.00  0.00    -0.252 C  
HETATM   18  H   UNL     1     -10.534  10.394  63.860  1.00  0.00     0.000 HD 
HETATM   19  O   UNL     1      -9.763  10.044  64.291  1.00  0.00    -0.296 OA 
BRANCH  17  20
HETATM   20  C   UNL     1     -10.663  10.620  66.424  1.00  0.00    -0.198 C  
BRANCH  20  21
HETATM   21  C   UNL     1     -10.627  12.145  66.436  1.00  0.00    -0.275 C  
BRANCH  21  22
HETATM   22  C   UNL     1     -11.987  12.784  66.148  1.00  0.00    -0.476 C  
BRANCH  22  23
HETATM   23  C   UNL     1     -11.948  14.291  66.406  1.00  0.00    -0.438 C  
BRANCH  23  24
HETATM   24  C   UNL     1     -10.723  14.693  67.227  1.00  0.00    -0.290 C  
BRANCH  24  25
HETATM   25  C   UNL     1     -10.571  16.214  67.278  1.00  0.00    -0.305 C  
HETATM   26  C   UNL     1     -10.540  16.725  68.709  1.00  0.00    -0.348 C  
ENDBRANCH  24  25
ENDBRANCH  23  24
ENDBRANCH  22  23
ENDBRANCH  21  22
ENDBRANCH  20  21
ENDBRANCH  17  20
ENDBRANCH  15  17
ENDBRANCH   1  15
BRANCH   1  27
HETATM   27  C   UNL     1      -9.588   7.485  66.735  1.00  0.00    -0.206 C  
BRANCH  27  28
HETATM   28  N   UNL     1      -9.346   6.025  66.623  1.00  0.00    -0.140 NA 
HETATM   29  C   UNL     1     -10.292   5.300  67.503  1.00  0.00    -0.162 C  
HETATM   30  C   UNL     1      -8.004   5.649  67.070  1.00  0.00    -0.102 C  
HETATM   31  C   UNL     1      -9.532   4.163  68.172  1.00  0.00    -0.215 C  
HETATM   32  C   UNL     1      -8.122   4.248  67.636  1.00  0.00    -0.095 C  
ENDBRANCH  27  28
ENDBRANCH   1  27
TORSDOF 12
ENDMDL
MODEL      328
REMARK 921   NORMALIZED FREE ENERGY PREDICTED BY IDOCK:   -3.23 KCAL/MOL
REMARK 922        TOTAL FREE ENERGY PREDICTED BY IDOCK:   -7.55 KCAL/MOL
REMARK 923 INTER-LIGAND FREE ENERGY PREDICTED BY IDOCK:   -7.02 KCAL/MOL
REMARK 924 INTRA-LIGAND FREE ENERGY PREDICTED BY IDOCK:   -0.53 KCAL/MOL
REMARK 927      BINDING AFFINITY PREDICTED BY RF-SCORE:    0.00 PKD
ROOT
HETATM    1  C   UNL     1      -9.308  11.746  68.198  1.00  0.00    -0.190 C  
ENDROOT
BRANCH   1   2
HETATM    2  C   UNL     1      -9.227  10.206  67.939  1.00  0.00    -0.138 C  
HETATM    3  O   UNL     1     -10.131   9.800  66.902  1.00  0.00    -0.200 OA 
HETATM    4  H   UNL     1     -10.082   8.864  66.744  1.00  0.00     0.000 HD 
BRANCH   2   5
HETATM    5  C   UNL     1      -9.424   9.368  69.205  1.00  0.00    -0.163 A  
HETATM    6  C   UNL     1     -11.002   5.373  70.987  1.00  0.00    -0.050 C  
HETATM    7  C   UNL     1     -10.537   7.507  70.315  1.00  0.00    -0.229 A  
HETATM    8  C   UNL     1      -8.593   9.495  70.335  1.00  0.00    -0.246 A  
HETATM    9  C   UNL     1      -9.715   7.652  71.433  1.00  0.00    -0.163 A  
HETATM   10  C   UNL     1     -10.774   5.813  72.425  1.00  0.00    -0.235 C  
HETATM   11  C   UNL     1     -10.427   8.380  69.229  1.00  0.00    -0.223 A  
HETATM   12  O   UNL     1      -9.756   6.817  72.520  1.00  0.00    -0.154 OA 
HETATM   13  O   UNL     1     -11.447   6.485  70.200  1.00  0.00    -0.368 OA 
HETATM   14  C   UNL     1      -8.755   8.660  71.449  1.00  0.00    -0.262 A  
ENDBRANCH   2   5
ENDBRANCH   1   2
BRANCH   1  15
HETATM   15  N   UNL     1     -10.728  12.140  68.195  1.00  0.00    -0.203 NA 
HETATM   16  H   UNL     1     -11.273  11.886  69.020  1.00  0.00     0.000 HD 
BRANCH  15  17
HETATM   17  C   UNL     1     -11.346  12.762  67.274  1.00  0.00    -0.314 C  
HETATM   18  H   UNL     1     -12.030  12.777  65.351  1.00  0.00     0.000 HD 
HETATM   19  O   UNL     1     -11.568  12.312  66.039  1.00  0.00    -0.368 OA 
BRANCH  17  20
HETATM   20  C   UNL     1     -11.895  14.143  67.531  1.00  0.00    -0.437 C  
BRANCH  20  21
HETATM   21  C   UNL     1     -11.792  14.555  68.996  1.00  0.00    -0.354 C  
BRANCH  21  22
HETATM   22  C   UNL     1     -12.074  13.406  69.967  1.00  0.00    -0.404 C  
BRANCH  22  23
HETATM   23  C   UNL     1     -12.901  13.891  71.159  1.00  0.00    -0.423 C  
BRANCH  23  24
HETATM   24  C   UNL     1     -13.416  12.725  72.003  1.00  0.00    -0.540 C  
BRANCH  24  25
HETATM   25  C   UNL     1     -12.458  11.535  71.941  1.00  0.00     0.091 C  
HETATM   26  C   UNL     1     -12.978  10.446  71.019  1.00  0.00    -0.490 C  
ENDBRANCH  24  25
ENDBRANCH  23  24
ENDBRANCH  22  23
ENDBRANCH  21  22
ENDBRANCH  20  21
ENDBRANCH  17  20
ENDBRANCH  15  17
ENDBRANCH   1  15
BRANCH   1  27
HETATM   27  C   UNL     1      -8.662  12.684  67.120  1.00  0.00    -0.201 C  
BRANCH  27  28
HETATM   28  N   UNL     1      -7.762  13.807  67.480  1.00  0.00    -0.174 NA 
HETATM   29  C   UNL     1      -7.259  13.613  68.860  1.00  0.00    -0.083 C  
HETATM   30  C   UNL     1      -8.454  15.096  67.477  1.00  0.00    -0.170 C  
HETATM   31  C   UNL     1      -7.263  14.967  69.556  1.00  0.00    -0.184 C  
HETATM   32  C   UNL     1      -7.769  15.950  68.526  1.00  0.00    -0.147 C  
ENDBRANCH  27  28
ENDBRANCH   1  27
TORSDOF 12
ENDMDL
MODEL      329
REMARK 921   NORMALIZED FREE ENERGY PREDICTED BY IDOCK:   -3.23 KCAL/MOL
REMARK 922        TOTAL FREE ENERGY PREDICTED BY IDOCK:   -7.55 KCAL/MOL
REMARK 923 INTER-LIGAND FREE ENERGY PREDICTED BY IDOCK:   -6.00 KCAL/MOL
REMARK 924 INTRA-LIGAND FREE ENERGY PREDICTED BY IDOCK:   -1.55 KCAL/MOL
REMARK 927      BINDING AFFINITY PREDICTED BY RF-SCORE:    0.00 PKD
ROOT
HETATM    1  C   UNL     1     -10.030   4.978  68.002  1.00  0.00    -0.130 C  
ENDROOT
BRANCH   1   2
HETATM    2  C   UNL     1     -10.343   6.498  67.806  1.00  0.00    -0.192 C  
HETATM    3  O   UNL     1     -11.534   6.693  67.032  1.00  0.00    -0.763 OA 
HETATM    4  H   UNL     1     -11.725   7.617  66.913  1.00  0.00     0.000 HD 
BRANCH   2   5
HETATM    5  C   UNL     1      -9.168   7.287  67.223  1.00  0.00    -0.148 A  
HETATM    6  C   UNL     1      -7.707  10.078  63.801  1.00  0.00    -0.148 C  
HETATM    7  C   UNL     1      -8.173   8.431  65.315  1.00  0.00    -0.151 A  
HETATM    8  C   UNL     1      -8.119   7.784  68.019  1.00  0.00    -0.123 A  
HETATM    9  C   UNL     1      -7.133   8.908  66.114  1.00  0.00    -0.085 A  
HETATM   10  C   UNL     1      -6.259  10.044  64.261  1.00  0.00    -0.132 C  
HETATM   11  C   UNL     1      -9.158   7.595  65.848  1.00  0.00    -0.101 A  
HETATM   12  O   UNL     1      -6.150   9.749  65.661  1.00  0.00    -0.063 OA 
HETATM   13  O   UNL     1      -8.314   8.795  63.999  1.00  0.00    -0.168 OA 
HETATM   14  C   UNL     1      -7.096   8.566  67.464  1.00  0.00    -0.080 A  
ENDBRANCH   2   5
ENDBRANCH   1   2
BRANCH   1  15
HETATM   15  N   UNL     1     -10.008   4.695  69.447  1.00  0.00    -0.205 NA 
HETATM   16  H   UNL     1      -9.796   3.735  69.721  1.00  0.00     0.000 HD 
BRANCH  15  17
HETATM   17  C   UNL     1     -10.226   5.521  70.391  1.00  0.00    -0.251 C  
HETATM   18  H   UNL     1     -11.577   6.631  71.444  1.00  0.00     0.000 HD 
HETATM   19  O   UNL     1     -11.414   6.014  70.739  1.00  0.00    -0.290 OA 
BRANCH  17  20
HETATM   20  C   UNL     1      -9.079   6.037  71.223  1.00  0.00    -0.149 C  
BRANCH  20  21
HETATM   21  C   UNL     1      -9.421   7.327  71.961  1.00  0.00    -0.151 C  
BRANCH  21  22
HETATM   22  C   UNL     1      -9.055   8.588  71.174  1.00  0.00    -0.238 C  
BRANCH  22  23
HETATM   23  C   UNL     1     -10.289   9.462  70.942  1.00  0.00    -0.380 C  
BRANCH  23  24
HETATM   24  C   UNL     1     -11.404   9.146  71.939  1.00  0.00    -0.416 C  
BRANCH  24  25
HETATM   25  C   UNL     1     -12.780   9.329  71.299  1.00  0.00    -0.368 C  
HETATM   26  C   UNL     1     -13.898   9.056  72.292  1.00  0.00    -0.547 C  
ENDBRANCH  24  25
ENDBRANCH  23  24
ENDBRANCH  22  23
ENDBRANCH  21  22
ENDBRANCH  20  21
ENDBRANCH  17  20
ENDBRANCH  15  17
ENDBRANCH   1  15
BRANCH   1  27
HETATM   27  C   UNL     1      -8.632   4.469  67.504  1.00  0.00    -0.103 C  
BRANCH  27  28
HETATM   28  N   UNL     1      -8.374   4.115  66.087  1.00  0.00    -0.108 NA 
HETATM   29  C   UNL     1      -9.659   4.059  65.350  1.00  0.00    -0.188 C  
HETATM   30  C   UNL     1      -7.767   2.790  65.947  1.00  0.00    -0.080 C  
HETATM   31  C   UNL     1      -9.610   2.861  64.411  1.00  0.00    -0.151 C  
HETATM   32  C   UNL     1      -8.248   2.240  64.620  1.00  0.00    -0.086 C  
ENDBRANCH  27  28
ENDBRANCH   1  27
TORSDOF 12
ENDMDL
MODEL      330
REMARK 921   NORMALIZED FREE ENERGY PREDICTED BY IDOCK:   -3.19 KCAL/MOL
REMARK 922        TOTAL FREE ENERGY PREDICTED BY IDOCK:   -7.49 KCAL/MOL
REMARK 923 INTER-LIGAND FREE ENERGY PREDICTED BY IDOCK:   -4.90 KCAL/MOL
REMARK 924 INTRA-LIGAND FREE ENERGY PREDICTED BY IDOCK:   -2.59 KCAL/MOL
REMARK 927      BINDING AFFINITY PREDICTED BY RF-SCORE:    0.00 PKD
ROOT
HETATM    1  C   UNL     1      -9.674   7.752  69.815  1.00  0.00    -0.176 C  
ENDROOT
BRANCH   1   2
HETATM    2  C   UNL     1      -9.637   6.271  69.315  1.00  0.00    -0.133 C  
HETATM    3  O   UNL     1      -9.463   5.353  70.402  1.00  0.00    -0.153 OA 
HETATM    4  H   UNL     1      -9.440   4.452  70.099  1.00  0.00     0.000 HD 
BRANCH   2   5
HETATM    5  C   UNL     1      -8.599   6.030  68.215  1.00  0.00    -0.115 A  
HETATM    6  C   UNL     1      -7.303   6.981  63.851  1.00  0.00    -0.084 C  
HETATM    7  C   UNL     1      -8.008   6.136  65.854  1.00  0.00    -0.112 A  
HETATM    8  C   UNL     1      -7.260   5.698  68.495  1.00  0.00    -0.075 A  
HETATM    9  C   UNL     1      -6.687   5.794  66.145  1.00  0.00    -0.057 A  
HETATM   10  C   UNL     1      -6.160   5.979  63.870  1.00  0.00    -0.025 C  
HETATM   11  C   UNL     1      -8.967   6.211  66.868  1.00  0.00    -0.118 A  
HETATM   12  O   UNL     1      -5.694   5.726  65.202  1.00  0.00    -0.022 OA 
HETATM   13  O   UNL     1      -8.420   6.463  64.585  1.00  0.00    -0.059 OA 
HETATM   14  C   UNL     1      -6.318   5.556  67.466  1.00  0.00    -0.042 A  
ENDBRANCH   2   5
ENDBRANCH   1   2
BRANCH   1  15
HETATM   15  N   UNL     1      -9.084   7.797  71.164  1.00  0.00    -0.141 NA 
HETATM   16  H   UNL     1      -9.572   7.277  71.893  1.00  0.00     0.000 HD 
BRANCH  15  17
HETATM   17  C   UNL     1      -8.029   8.416  71.516  1.00  0.00    -0.130 C  
HETATM   18  H   UNL     1      -6.891   9.176  73.031  1.00  0.00     0.000 HD 
HETATM   19  O   UNL     1      -7.679   8.713  72.768  1.00  0.00    -0.347 OA 
BRANCH  17  20
HETATM   20  C   UNL     1      -7.049   8.894  70.474  1.00  0.00    -0.064 C  
BRANCH  20  21
HETATM   21  C   UNL     1      -7.284  10.345  70.067  1.00  0.00    -0.143 C  
BRANCH  21  22
HETATM   22  C   UNL     1      -6.899  10.634  68.614  1.00  0.00    -0.059 C  
BRANCH  22  23
HETATM   23  C   UNL     1      -6.944   9.357  67.774  1.00  0.00    -0.080 C  
BRANCH  23  24
HETATM   24  C   UNL     1      -7.371   9.640  66.334  1.00  0.00    -0.094 C  
BRANCH  24  25
HETATM   25  C   UNL     1      -8.659  10.464  66.294  1.00  0.00    -0.147 C  
HETATM   26  C   UNL     1      -9.891   9.578  66.371  1.00  0.00    -0.320 C  
ENDBRANCH  24  25
ENDBRANCH  23  24
ENDBRANCH  22  23
ENDBRANCH  21  22
ENDBRANCH  20  21
ENDBRANCH  17  20
ENDBRANCH  15  17
ENDBRANCH   1  15
BRANCH   1  27
HETATM   27  C   UNL     1     -11.089   8.402  70.008  1.00  0.00    -0.148 C  
BRANCH  27  28
HETATM   28  N   UNL     1     -11.861   8.267  71.268  1.00  0.00    -0.285 NA 
HETATM   29  C   UNL     1     -12.889   7.212  71.105  1.00  0.00    -0.288 C  
HETATM   30  C   UNL     1     -12.586   9.492  71.609  1.00  0.00    -0.388 C  
HETATM   31  C   UNL     1     -14.166   7.695  71.778  1.00  0.00    -0.549 C  
HETATM   32  C   UNL     1     -13.836   9.055  72.346  1.00  0.00    -0.540 C  
ENDBRANCH  27  28
ENDBRANCH   1  27
TORSDOF 12
ENDMDL
MODEL      331
REMARK 921   NORMALIZED FREE ENERGY PREDICTED BY IDOCK:   -3.18 KCAL/MOL
REMARK 922        TOTAL FREE ENERGY PREDICTED BY IDOCK:   -7.46 KCAL/MOL
REMARK 923 INTER-LIGAND FREE ENERGY PREDICTED BY IDOCK:   -6.39 KCAL/MOL
REMARK 924 INTRA-LIGAND FREE ENERGY PREDICTED BY IDOCK:   -1.07 KCAL/MOL
REMARK 927      BINDING AFFINITY PREDICTED BY RF-SCORE:    0.00 PKD
ROOT
HETATM    1  C   UNL     1      -9.916   9.243  69.922  1.00  0.00    -0.205 C  
ENDROOT
BRANCH   1   2
HETATM    2  C   UNL     1      -9.095   8.945  71.219  1.00  0.00    -0.253 C  
HETATM    3  O   UNL     1      -7.852   9.660  71.229  1.00  0.00    -0.270 OA 
HETATM    4  H   UNL     1      -7.352   9.479  72.018  1.00  0.00     0.000 HD 
BRANCH   2   5
HETATM    5  C   UNL     1      -8.878   7.451  71.468  1.00  0.00    -0.131 A  
HETATM    6  C   UNL     1      -6.105   3.782  70.774  1.00  0.00    -0.018 C  
HETATM    7  C   UNL     1      -7.728   5.388  70.868  1.00  0.00    -0.090 A  
HETATM    8  C   UNL     1      -9.411   6.782  72.587  1.00  0.00    -0.152 A  
HETATM    9  C   UNL     1      -8.273   4.735  71.975  1.00  0.00    -0.110 A  
HETATM   10  C   UNL     1      -7.089   2.800  71.389  1.00  0.00    -0.032 C  
HETATM   11  C   UNL     1      -8.057   6.717  70.589  1.00  0.00    -0.119 A  
HETATM   12  O   UNL     1      -7.974   3.442  72.318  1.00  0.00    -0.061 OA 
HETATM   13  O   UNL     1      -6.812   4.788  70.039  1.00  0.00    -0.042 OA 
HETATM   14  C   UNL     1      -9.131   5.429  72.823  1.00  0.00    -0.133 A  
ENDBRANCH   2   5
ENDBRANCH   1   2
BRANCH   1  15
HETATM   15  N   UNL     1      -9.879  10.695  69.677  1.00  0.00    -0.439 NA 
HETATM   16  H   UNL     1      -9.907  11.298  70.500  1.00  0.00     0.000 HD 
BRANCH  15  17
HETATM   17  C   UNL     1      -9.815  11.278  68.547  1.00  0.00    -0.197 C  
HETATM   18  H   UNL     1      -8.743  11.658  66.852  1.00  0.00     0.000 HD 
HETATM   19  O   UNL     1      -8.791  11.222  67.696  1.00  0.00    -0.134 OA 
BRANCH  17  20
HETATM   20  C   UNL     1     -10.962  12.134  68.072  1.00  0.00    -0.271 C  
BRANCH  20  21
HETATM   21  C   UNL     1     -10.506  13.301  67.202  1.00  0.00    -0.248 C  
BRANCH  21  22
HETATM   22  C   UNL     1     -10.823  14.668  67.811  1.00  0.00    -0.268 C  
BRANCH  22  23
HETATM   23  C   UNL     1     -10.785  15.763  66.743  1.00  0.00    -0.293 C  
BRANCH  23  24
HETATM   24  C   UNL     1      -9.389  16.368  66.600  1.00  0.00    -0.282 C  
BRANCH  24  25
HETATM   25  C   UNL     1      -9.457  17.893  66.518  1.00  0.00    -0.307 C  
HETATM   26  C   UNL     1     -10.673  18.439  67.247  1.00  0.00    -0.389 C  
ENDBRANCH  24  25
ENDBRANCH  23  24
ENDBRANCH  22  23
ENDBRANCH  21  22
ENDBRANCH  20  21
ENDBRANCH  17  20
ENDBRANCH  15  17
ENDBRANCH   1  15
BRANCH   1  27
HETATM   27  C   UNL     1     -11.449   8.913  69.959  1.00  0.00     0.033 C  
BRANCH  27  28
HETATM   28  N   UNL     1     -12.167   8.609  71.221  1.00  0.00    -0.294 NA 
HETATM   29  C   UNL     1     -12.824   7.286  71.109  1.00  0.00    -0.286 C  
HETATM   30  C   UNL     1     -13.235   9.571  71.498  1.00  0.00    -0.390 C  
HETATM   31  C   UNL     1     -14.200   7.389  71.752  1.00  0.00    -0.544 C  
HETATM   32  C   UNL     1     -14.307   8.811  72.252  1.00  0.00    -0.468 C  
ENDBRANCH  27  28
ENDBRANCH   1  27
TORSDOF 12
ENDMDL
MODEL      332
REMARK 921   NORMALIZED FREE ENERGY PREDICTED BY IDOCK:   -3.15 KCAL/MOL
REMARK 922        TOTAL FREE ENERGY PREDICTED BY IDOCK:   -7.41 KCAL/MOL
REMARK 923 INTER-LIGAND FREE ENERGY PREDICTED BY IDOCK:   -6.24 KCAL/MOL
REMARK 924 INTRA-LIGAND FREE ENERGY PREDICTED BY IDOCK:   -1.17 KCAL/MOL
REMARK 927      BINDING AFFINITY PREDICTED BY RF-SCORE:    0.00 PKD
ROOT
HETATM    1  C   UNL     1      -9.908  10.041  68.873  1.00  0.00    -0.184 C  
ENDROOT
BRANCH   1   2
HETATM    2  C   UNL     1     -10.857   8.847  69.222  1.00  0.00    -0.096 C  
HETATM    3  O   UNL     1     -11.779   9.196  70.263  1.00  0.00    -0.450 OA 
HETATM    4  H   UNL     1     -12.355   8.471  70.476  1.00  0.00     0.000 HD 
BRANCH   2   5
HETATM    5  C   UNL     1     -10.106   7.556  69.557  1.00  0.00    -0.189 A  
HETATM    6  C   UNL     1      -6.860   4.512  68.204  1.00  0.00    -0.055 C  
HETATM    7  C   UNL     1      -8.718   5.701  68.801  1.00  0.00    -0.106 A  
HETATM    8  C   UNL     1      -9.908   7.114  70.879  1.00  0.00    -0.182 A  
HETATM    9  C   UNL     1      -8.539   5.268  70.116  1.00  0.00    -0.117 A  
HETATM   10  C   UNL     1      -7.156   3.545  69.339  1.00  0.00    -0.042 C  
HETATM   11  C   UNL     1      -9.526   6.805  68.515  1.00  0.00    -0.131 A  
HETATM   12  O   UNL     1      -7.743   4.209  70.466  1.00  0.00    -0.048 OA 
HETATM   13  O   UNL     1      -8.077   5.110  67.740  1.00  0.00    -0.098 OA 
HETATM   14  C   UNL     1      -9.153   5.965  71.154  1.00  0.00    -0.152 A  
ENDBRANCH   2   5
ENDBRANCH   1   2
BRANCH   1  15
HETATM   15  N   UNL     1     -10.499  11.274  69.420  1.00  0.00    -0.425 NA 
HETATM   16  H   UNL     1     -10.067  11.651  70.264  1.00  0.00     0.000 HD 
BRANCH  15  17
HETATM   17  C   UNL     1     -11.492  11.918  68.952  1.00  0.00    -0.301 C  
HETATM   18  H   UNL     1     -13.390  11.872  68.203  1.00  0.00     0.000 HD 
HETATM   19  O   UNL     1     -12.649  11.390  68.552  1.00  0.00    -0.205 OA 
BRANCH  17  20
HETATM   20  C   UNL     1     -11.416  13.417  68.799  1.00  0.00    -0.344 C  
BRANCH  20  21
HETATM   21  C   UNL     1     -11.817  13.888  67.405  1.00  0.00    -0.437 C  
BRANCH  21  22
HETATM   22  C   UNL     1     -10.656  14.496  66.616  1.00  0.00    -0.283 C  
BRANCH  22  23
HETATM   23  C   UNL     1     -10.228  13.571  65.475  1.00  0.00    -0.308 C  
BRANCH  23  24
HETATM   24  C   UNL     1     -11.229  13.593  64.321  1.00  0.00    -0.355 C  
BRANCH  24  25
HETATM   25  C   UNL     1     -11.416  12.196  63.728  1.00  0.00    -0.548 C  
HETATM   26  C   UNL     1     -12.865  11.937  63.353  1.00  0.00    -0.393 C  
ENDBRANCH  24  25
ENDBRANCH  23  24
ENDBRANCH  22  23
ENDBRANCH  21  22
ENDBRANCH  20  21
ENDBRANCH  17  20
ENDBRANCH  15  17
ENDBRANCH   1  15
BRANCH   1  27
HETATM   27  C   UNL     1      -9.708  10.369  67.352  1.00  0.00    -0.163 C  
BRANCH  27  28
HETATM   28  N   UNL     1      -8.727   9.646  66.505  1.00  0.00    -0.133 NA 
HETATM   29  C   UNL     1      -7.362   9.861  67.039  1.00  0.00    -0.091 C  
HETATM   30  C   UNL     1      -8.709  10.144  65.129  1.00  0.00    -0.173 C  
HETATM   31  C   UNL     1      -6.424  10.071  65.859  1.00  0.00    -0.096 C  
HETATM   32  C   UNL     1      -7.291   9.954  64.627  1.00  0.00    -0.140 C  
ENDBRANCH  27  28
ENDBRANCH   1  27
TORSDOF 12
ENDMDL
MODEL      333
REMARK 921   NORMALIZED FREE ENERGY PREDICTED BY IDOCK:   -3.09 KCAL/MOL
REMARK 922        TOTAL FREE ENERGY PREDICTED BY IDOCK:   -7.31 KCAL/MOL
REMARK 923 INTER-LIGAND FREE ENERGY PREDICTED BY IDOCK:   -6.26 KCAL/MOL
REMARK 924 INTRA-LIGAND FREE ENERGY PREDICTED BY IDOCK:   -1.05 KCAL/MOL
REMARK 927      BINDING AFFINITY PREDICTED BY RF-SCORE:    0.00 PKD
ROOT
HETATM    1  C   UNL     1      -7.569  14.385  68.399  1.00  0.00    -0.122 C  
ENDROOT
BRANCH   1   2
HETATM    2  C   UNL     1      -9.119  14.531  68.240  1.00  0.00    -0.196 C  
HETATM    3  O   UNL     1      -9.792  14.377  69.497  1.00  0.00    -0.412 OA 
HETATM    4  H   UNL     1     -10.733  14.466  69.401  1.00  0.00     0.000 HD 
BRANCH   2   5
HETATM    5  C   UNL     1      -9.709  13.601  67.178  1.00  0.00    -0.245 A  
HETATM    6  C   UNL     1     -12.478  13.250  63.458  1.00  0.00    -0.248 C  
HETATM    7  C   UNL     1     -11.404  13.200  65.474  1.00  0.00    -0.299 A  
HETATM    8  C   UNL     1      -9.058  12.427  66.751  1.00  0.00    -0.212 A  
HETATM    9  C   UNL     1     -10.755  12.033  65.069  1.00  0.00    -0.296 A  
HETATM   10  C   UNL     1     -12.375  11.735  63.404  1.00  0.00    -0.361 C  
HETATM   11  C   UNL     1     -10.916  13.956  66.544  1.00  0.00    -0.300 A  
HETATM   12  O   UNL     1     -11.168  11.260  64.015  1.00  0.00    -0.340 OA 
HETATM   13  O   UNL     1     -12.508  13.691  64.821  1.00  0.00    -0.518 OA 
HETATM   14  C   UNL     1      -9.591  11.637  65.723  1.00  0.00    -0.255 A  
ENDBRANCH   2   5
ENDBRANCH   1   2
BRANCH   1  15
HETATM   15  N   UNL     1      -7.306  13.320  69.381  1.00  0.00    -0.308 NA 
HETATM   16  H   UNL     1      -7.799  13.389  70.272  1.00  0.00     0.000 HD 
BRANCH  15  17
HETATM   17  C   UNL     1      -6.529  12.322  69.237  1.00  0.00    -0.109 C  
HETATM   18  H   UNL     1      -4.910  11.509  68.295  1.00  0.00     0.000 HD 
HETATM   19  O   UNL     1      -5.491  12.254  68.403  1.00  0.00    -0.053 OA 
BRANCH  17  20
HETATM   20  C   UNL     1      -6.751  11.068  70.044  1.00  0.00    -0.097 C  
BRANCH  20  21
HETATM   21  C   UNL     1      -7.826  10.166  69.447  1.00  0.00    -0.150 C  
BRANCH  21  22
HETATM   22  C   UNL     1      -7.572   8.678  69.694  1.00  0.00    -0.080 C  
BRANCH  22  23
HETATM   23  C   UNL     1      -7.274   8.414  71.171  1.00  0.00    -0.068 C  
BRANCH  23  24
HETATM   24  C   UNL     1      -6.671   7.026  71.388  1.00  0.00    -0.052 C  
BRANCH  24  25
HETATM   25  C   UNL     1      -7.739   6.025  71.828  1.00  0.00    -0.101 C  
HETATM   26  C   UNL     1      -7.120   4.733  72.333  1.00  0.00    -0.079 C  
ENDBRANCH  24  25
ENDBRANCH  23  24
ENDBRANCH  22  23
ENDBRANCH  21  22
ENDBRANCH  20  21
ENDBRANCH  17  20
ENDBRANCH  15  17
ENDBRANCH   1  15
BRANCH   1  27
HETATM   27  C   UNL     1      -6.793  15.621  68.975  1.00  0.00    -0.140 C  
BRANCH  27  28
HETATM   28  N   UNL     1      -6.589  16.865  68.194  1.00  0.00    -0.142 NA 
HETATM   29  C   UNL     1      -7.649  17.842  68.538  1.00  0.00    -0.289 C  
HETATM   30  C   UNL     1      -6.697  16.640  66.752  1.00  0.00    -0.206 C  
HETATM   31  C   UNL     1      -8.090  18.528  67.253  1.00  0.00    -0.245 C  
HETATM   32  C   UNL     1      -7.239  17.926  66.160  1.00  0.00    -0.339 C  
ENDBRANCH  27  28
ENDBRANCH   1  27
TORSDOF 12
ENDMDL
MODEL      334
REMARK 921   NORMALIZED FREE ENERGY PREDICTED BY IDOCK:   -3.03 KCAL/MOL
REMARK 922        TOTAL FREE ENERGY PREDICTED BY IDOCK:   -7.21 KCAL/MOL
REMARK 923 INTER-LIGAND FREE ENERGY PREDICTED BY IDOCK:   -5.69 KCAL/MOL
REMARK 924 INTRA-LIGAND FREE ENERGY PREDICTED BY IDOCK:   -1.52 KCAL/MOL
REMARK 927      BINDING AFFINITY PREDICTED BY RF-SCORE:    0.00 PKD
ROOT
HETATM    1  C   UNL     1      -7.597  10.589  68.134  1.00  0.00    -0.091 C  
ENDROOT
BRANCH   1   2
HETATM    2  C   UNL     1      -7.002   9.193  68.513  1.00  0.00    -0.067 C  
HETATM    3  O   UNL     1      -6.390   8.558  67.383  1.00  0.00    -0.055 OA 
HETATM    4  H   UNL     1      -6.028   7.710  67.613  1.00  0.00     0.000 HD 
BRANCH   2   5
HETATM    5  C   UNL     1      -8.016   8.266  69.187  1.00  0.00    -0.112 A  
HETATM    6  C   UNL     1     -10.705   7.536  72.912  1.00  0.00    -0.358 C  
HETATM    7  C   UNL     1      -9.172   7.572  71.217  1.00  0.00    -0.149 A  
HETATM    8  C   UNL     1      -8.870   7.417  68.457  1.00  0.00    -0.126 A  
HETATM    9  C   UNL     1     -10.004   6.726  70.482  1.00  0.00    -0.183 A  
HETATM   10  C   UNL     1     -11.125   6.148  72.456  1.00  0.00    -0.274 C  
HETATM   11  C   UNL     1      -8.160   8.302  70.588  1.00  0.00    -0.110 A  
HETATM   12  O   UNL     1     -11.029   6.001  71.033  1.00  0.00    -0.271 OA 
HETATM   13  O   UNL     1      -9.334   7.771  72.566  1.00  0.00    -0.150 OA 
HETATM   14  C   UNL     1      -9.839   6.635  69.103  1.00  0.00    -0.155 A  
ENDBRANCH   2   5
ENDBRANCH   1   2
BRANCH   1  15
HETATM   15  N   UNL     1      -7.291  11.531  69.225  1.00  0.00    -0.302 NA 
HETATM   16  H   UNL     1      -7.689  11.315  70.139  1.00  0.00     0.000 HD 
BRANCH  15  17
HETATM   17  C   UNL     1      -6.582  12.585  69.148  1.00  0.00    -0.100 C  
HETATM   18  H   UNL     1      -4.724  13.430  69.192  1.00  0.00     0.000 HD 
HETATM   19  O   UNL     1      -5.254  12.643  69.250  1.00  0.00    -0.068 OA 
BRANCH  17  20
HETATM   20  C   UNL     1      -7.240  13.925  68.933  1.00  0.00    -0.103 C  
BRANCH  20  21
HETATM   21  C   UNL     1      -6.893  14.541  67.582  1.00  0.00    -0.203 C  
BRANCH  21  22
HETATM   22  C   UNL     1      -7.550  15.904  67.353  1.00  0.00    -0.208 C  
BRANCH  22  23
HETATM   23  C   UNL     1      -8.436  15.879  66.106  1.00  0.00    -0.196 C  
BRANCH  23  24
HETATM   24  C   UNL     1      -9.839  16.411  66.396  1.00  0.00    -0.312 C  
BRANCH  24  25
HETATM   25  C   UNL     1     -10.891  15.316  66.216  1.00  0.00    -0.312 C  
HETATM   26  C   UNL     1     -10.280  14.042  65.657  1.00  0.00    -0.351 C  
ENDBRANCH  24  25
ENDBRANCH  23  24
ENDBRANCH  22  23
ENDBRANCH  21  22
ENDBRANCH  20  21
ENDBRANCH  17  20
ENDBRANCH  15  17
ENDBRANCH   1  15
BRANCH   1  27
HETATM   27  C   UNL     1      -9.156  10.683  67.991  1.00  0.00    -0.147 C  
BRANCH  27  28
HETATM   28  N   UNL     1     -10.024  11.202  69.075  1.00  0.00    -0.177 NA 
HETATM   29  C   UNL     1     -11.097  10.220  69.361  1.00  0.00    -0.252 C  
HETATM   30  C   UNL     1     -10.701  12.444  68.699  1.00  0.00    -0.232 C  
HETATM   31  C   UNL     1     -12.390  10.990  69.586  1.00  0.00    -0.303 C  
HETATM   32  C   UNL     1     -12.025  12.448  69.436  1.00  0.00    -0.319 C  
ENDBRANCH  27  28
ENDBRANCH   1  27
TORSDOF 12
ENDMDL
MODEL      335
REMARK 921   NORMALIZED FREE ENERGY PREDICTED BY IDOCK:   -3.02 KCAL/MOL
REMARK 922        TOTAL FREE ENERGY PREDICTED BY IDOCK:   -7.19 KCAL/MOL
REMARK 923 INTER-LIGAND FREE ENERGY PREDICTED BY IDOCK:   -6.67 KCAL/MOL
REMARK 924 INTRA-LIGAND FREE ENERGY PREDICTED BY IDOCK:   -0.52 KCAL/MOL
REMARK 927      BINDING AFFINITY PREDICTED BY RF-SCORE:    0.00 PKD
ROOT
HETATM    1  C   UNL     1      -7.896  12.228  68.877  1.00  0.00     0.091 C  
ENDROOT
BRANCH   1   2
HETATM    2  C   UNL     1      -7.562  10.754  68.473  1.00  0.00    -0.104 C  
HETATM    3  O   UNL     1      -7.681  10.558  67.058  1.00  0.00    -0.105 OA 
HETATM    4  H   UNL     1      -7.478   9.662  66.812  1.00  0.00     0.000 HD 
BRANCH   2   5
HETATM    5  C   UNL     1      -8.376   9.715  69.248  1.00  0.00    -0.137 A  
HETATM    6  C   UNL     1     -10.462   5.560  69.115  1.00  0.00    -0.244 C  
HETATM    7  C   UNL     1      -9.817   7.751  69.207  1.00  0.00    -0.173 A  
HETATM    8  C   UNL     1      -8.310   9.590  70.648  1.00  0.00    -0.159 A  
HETATM    9  C   UNL     1      -9.752   7.646  70.597  1.00  0.00    -0.174 A  
HETATM   10  C   UNL     1     -11.083   5.721  70.493  1.00  0.00    -0.210 C  
HETATM   11  C   UNL     1      -9.175   8.796  68.538  1.00  0.00    -0.141 A  
HETATM   12  O   UNL     1     -10.339   6.633  71.311  1.00  0.00    -0.203 OA 
HETATM   13  O   UNL     1     -10.459   6.819  68.429  1.00  0.00    -0.178 OA 
HETATM   14  C   UNL     1      -9.013   8.579  71.319  1.00  0.00    -0.244 A  
ENDBRANCH   2   5
ENDBRANCH   1   2
BRANCH   1  15
HETATM   15  N   UNL     1      -9.284  12.512  68.474  1.00  0.00    -0.373 NA 
HETATM   16  H   UNL     1      -9.922  12.806  69.214  1.00  0.00     0.000 HD 
BRANCH  15  17
HETATM   17  C   UNL     1      -9.771  12.431  67.302  1.00  0.00    -0.201 C  
HETATM   18  H   UNL     1     -10.786  11.322  65.921  1.00  0.00     0.000 HD 
HETATM   19  O   UNL     1     -10.422  11.383  66.797  1.00  0.00    -0.225 OA 
BRANCH  17  20
HETATM   20  C   UNL     1      -9.626  13.584  66.341  1.00  0.00    -0.268 C  
BRANCH  20  21
HETATM   21  C   UNL     1     -10.619  14.709  66.616  1.00  0.00    -0.289 C  
BRANCH  21  22
HETATM   22  C   UNL     1     -12.020  14.205  66.969  1.00  0.00    -0.471 C  
BRANCH  22  23
HETATM   23  C   UNL     1     -12.780  13.781  65.710  1.00  0.00    -0.494 C  
BRANCH  23  24
HETATM   24  C   UNL     1     -12.123  14.324  64.442  1.00  0.00    -0.490 C  
BRANCH  24  25
HETATM   25  C   UNL     1     -12.055  13.251  63.354  1.00  0.00    -0.508 C  
HETATM   26  C   UNL     1     -12.394  11.876  63.905  1.00  0.00    -0.488 C  
ENDBRANCH  24  25
ENDBRANCH  23  24
ENDBRANCH  22  23
ENDBRANCH  21  22
ENDBRANCH  20  21
ENDBRANCH  17  20
ENDBRANCH  15  17
ENDBRANCH   1  15
BRANCH   1  27
HETATM   27  C   UNL     1      -7.068  13.363  68.178  1.00  0.00    -0.116 C  
BRANCH  27  28
HETATM   28  N   UNL     1      -7.246  14.797  68.512  1.00  0.00    -0.109 NA 
HETATM   29  C   UNL     1      -7.027  15.616  67.296  1.00  0.00    -0.189 C  
HETATM   30  C   UNL     1      -6.270  15.263  69.498  1.00  0.00    -0.131 C  
HETATM   31  C   UNL     1      -6.237  16.853  67.700  1.00  0.00    -0.171 C  
HETATM   32  C   UNL     1      -6.022  16.727  69.191  1.00  0.00    -0.165 C  
ENDBRANCH  27  28
ENDBRANCH   1  27
TORSDOF 12
ENDMDL
MODEL      336
REMARK 921   NORMALIZED FREE ENERGY PREDICTED BY IDOCK:   -3.01 KCAL/MOL
REMARK 922        TOTAL FREE ENERGY PREDICTED BY IDOCK:   -7.18 KCAL/MOL
REMARK 923 INTER-LIGAND FREE ENERGY PREDICTED BY IDOCK:   -6.16 KCAL/MOL
REMARK 924 INTRA-LIGAND FREE ENERGY PREDICTED BY IDOCK:   -1.02 KCAL/MOL
REMARK 927      BINDING AFFINITY PREDICTED BY RF-SCORE:    0.00 PKD
ROOT
HETATM    1  C   UNL     1      -8.830   8.302  68.308  1.00  0.00    -0.140 C  
ENDROOT
BRANCH   1   2
HETATM    2  C   UNL     1      -7.884   7.127  68.723  1.00  0.00    -0.122 C  
HETATM    3  O   UNL     1      -6.548   7.589  68.962  1.00  0.00    -0.042 OA 
HETATM    4  H   UNL     1      -5.972   6.875  69.214  1.00  0.00     0.000 HD 
BRANCH   2   5
HETATM    5  C   UNL     1      -7.898   5.960  67.733  1.00  0.00    -0.098 A  
HETATM    6  C   UNL     1     -10.247   3.784  64.359  1.00  0.00    -0.222 C  
HETATM    7  C   UNL     1      -9.170   4.517  66.237  1.00  0.00    -0.137 A  
HETATM    8  C   UNL     1      -6.719   5.377  67.229  1.00  0.00    -0.059 A  
HETATM    9  C   UNL     1      -7.994   3.940  65.756  1.00  0.00    -0.093 A  
HETATM   10  C   UNL     1      -9.263   2.627  64.288  1.00  0.00    -0.125 C  
HETATM   11  C   UNL     1      -9.131   5.484  67.245  1.00  0.00    -0.110 A  
HETATM   12  O   UNL     1      -7.960   3.005  64.754  1.00  0.00    -0.081 OA 
HETATM   13  O   UNL     1     -10.404   4.210  65.718  1.00  0.00    -0.183 OA 
HETATM   14  C   UNL     1      -6.768   4.358  66.268  1.00  0.00    -0.046 A  
ENDBRANCH   2   5
ENDBRANCH   1   2
BRANCH   1  15
HETATM   15  N   UNL     1      -8.157   9.571  68.630  1.00  0.00    -0.096 NA 
HETATM   16  H   UNL     1      -7.701   9.627  69.542  1.00  0.00     0.000 HD 
BRANCH  15  17
HETATM   17  C   UNL     1      -8.083  10.606  67.893  1.00  0.00    -0.111 C  
HETATM   18  H   UNL     1      -7.020  12.252  67.320  1.00  0.00     0.000 HD 
HETATM   19  O   UNL     1      -7.075  11.479  67.870  1.00  0.00    -0.070 OA 
BRANCH  17  20
HETATM   20  C   UNL     1      -9.206  10.941  66.944  1.00  0.00    -0.175 C  
BRANCH  20  21
HETATM   21  C   UNL     1     -10.178  11.966  67.520  1.00  0.00    -0.212 C  
BRANCH  21  22
HETATM   22  C   UNL     1     -11.488  12.063  66.736  1.00  0.00    -0.410 C  
BRANCH  22  23
HETATM   23  C   UNL     1     -11.225  12.034  65.229  1.00  0.00    -0.374 C  
BRANCH  23  24
HETATM   24  C   UNL     1     -12.501  12.282  64.426  1.00  0.00    -0.484 C  
BRANCH  24  25
HETATM   25  C   UNL     1     -12.402  13.580  63.623  1.00  0.00    -0.377 C  
HETATM   26  C   UNL     1     -11.921  14.735  64.485  1.00  0.00    -0.451 C  
ENDBRANCH  24  25
ENDBRANCH  23  24
ENDBRANCH  22  23
ENDBRANCH  21  22
ENDBRANCH  20  21
ENDBRANCH  17  20
ENDBRANCH  15  17
ENDBRANCH   1  15
BRANCH   1  27
HETATM   27  C   UNL     1     -10.203   8.409  69.059  1.00  0.00    -0.207 C  
BRANCH  27  28
HETATM   28  N   UNL     1     -10.438   7.775  70.379  1.00  0.00    -0.217 NA 
HETATM   29  C   UNL     1     -11.578   6.832  70.277  1.00  0.00    -0.362 C  
HETATM   30  C   UNL     1     -10.808   8.750  71.406  1.00  0.00    -0.289 C  
HETATM   31  C   UNL     1     -12.421   6.979  71.536  1.00  0.00    -0.426 C  
HETATM   32  C   UNL     1     -11.721   8.024  72.373  1.00  0.00    -0.444 C  
ENDBRANCH  27  28
ENDBRANCH   1  27
TORSDOF 12
ENDMDL
MODEL      337
REMARK 921   NORMALIZED FREE ENERGY PREDICTED BY IDOCK:   -2.94 KCAL/MOL
REMARK 922        TOTAL FREE ENERGY PREDICTED BY IDOCK:   -7.06 KCAL/MOL
REMARK 923 INTER-LIGAND FREE ENERGY PREDICTED BY IDOCK:   -6.81 KCAL/MOL
REMARK 924 INTRA-LIGAND FREE ENERGY PREDICTED BY IDOCK:   -0.25 KCAL/MOL
REMARK 927      BINDING AFFINITY PREDICTED BY RF-SCORE:    0.00 PKD
ROOT
HETATM    1  C   UNL     1      -9.777   9.311  68.297  1.00  0.00    -0.150 C  
ENDROOT
BRANCH   1   2
HETATM    2  C   UNL     1     -11.043   9.093  69.190  1.00  0.00     0.062 C  
HETATM    3  O   UNL     1     -11.788  10.307  69.351  1.00  0.00    -0.458 OA 
HETATM    4  H   UNL     1     -12.557  10.175  69.894  1.00  0.00     0.000 HD 
BRANCH   2   5
HETATM    5  C   UNL     1     -10.725   8.454  70.545  1.00  0.00    -0.247 A  
HETATM    6  C   UNL     1     -11.171   4.692  73.242  1.00  0.00    -0.325 C  
HETATM    7  C   UNL     1     -11.199   6.720  72.188  1.00  0.00    -0.259 A  
HETATM    8  C   UNL     1      -9.598   8.816  71.308  1.00  0.00    -0.323 A  
HETATM    9  C   UNL     1     -10.086   7.096  72.941  1.00  0.00    -0.210 A  
HETATM   10  C   UNL     1     -10.549   5.368  74.453  1.00  0.00    -0.124 C  
HETATM   11  C   UNL     1     -11.544   7.415  71.026  1.00  0.00    -0.315 A  
HETATM   12  O   UNL     1      -9.679   6.444  74.076  1.00  0.00    -0.181 OA 
HETATM   13  O   UNL     1     -11.970   5.631  72.513  1.00  0.00    -0.258 OA 
HETATM   14  C   UNL     1      -9.297   8.159  72.509  1.00  0.00    -0.329 A  
ENDBRANCH   2   5
ENDBRANCH   1   2
BRANCH   1  15
HETATM   15  N   UNL     1      -9.694  10.742  67.958  1.00  0.00    -0.159 NA 
HETATM   16  H   UNL     1      -9.259  11.350  68.653  1.00  0.00     0.000 HD 
BRANCH  15  17
HETATM   17  C   UNL     1     -10.107  11.301  66.892  1.00  0.00    -0.212 C  
HETATM   18  H   UNL     1      -9.752  11.784  64.941  1.00  0.00     0.000 HD 
HETATM   19  O   UNL     1      -9.444  11.367  65.737  1.00  0.00    -0.222 OA 
BRANCH  17  20
HETATM   20  C   UNL     1     -11.455  11.976  66.865  1.00  0.00    -0.402 C  
BRANCH  20  21
HETATM   21  C   UNL     1     -11.743  12.664  65.535  1.00  0.00    -0.446 C  
BRANCH  21  22
HETATM   22  C   UNL     1     -12.300  14.080  65.696  1.00  0.00    -0.502 C  
BRANCH  22  23
HETATM   23  C   UNL     1     -11.207  15.126  65.466  1.00  0.00    -0.320 C  
BRANCH  23  24
HETATM   24  C   UNL     1     -10.512  15.516  66.770  1.00  0.00    -0.295 C  
BRANCH  24  25
HETATM   25  C   UNL     1      -9.581  16.710  66.561  1.00  0.00    -0.292 C  
HETATM   26  C   UNL     1     -10.157  17.981  67.163  1.00  0.00    -0.349 C  
ENDBRANCH  24  25
ENDBRANCH  23  24
ENDBRANCH  22  23
ENDBRANCH  21  22
ENDBRANCH  20  21
ENDBRANCH  17  20
ENDBRANCH  15  17
ENDBRANCH   1  15
BRANCH   1  27
HETATM   27  C   UNL     1      -9.761   8.598  66.900  1.00  0.00    -0.214 C  
BRANCH  27  28
HETATM   28  N   UNL     1      -9.918   7.130  66.755  1.00  0.00    -0.214 NA 
HETATM   29  C   UNL     1      -9.247   6.448  67.886  1.00  0.00    -0.113 C  
HETATM   30  C   UNL     1      -9.283   6.622  65.538  1.00  0.00     0.290 C  
HETATM   31  C   UNL     1      -8.531   5.222  67.337  1.00  0.00    -0.106 C  
HETATM   32  C   UNL     1      -8.826   5.212  65.855  1.00  0.00    -0.142 C  
ENDBRANCH  27  28
ENDBRANCH   1  27
TORSDOF 12
ENDMDL
MODEL      338
REMARK 921   NORMALIZED FREE ENERGY PREDICTED BY IDOCK:   -2.93 KCAL/MOL
REMARK 922        TOTAL FREE ENERGY PREDICTED BY IDOCK:   -7.04 KCAL/MOL
REMARK 923 INTER-LIGAND FREE ENERGY PREDICTED BY IDOCK:   -5.81 KCAL/MOL
REMARK 924 INTRA-LIGAND FREE ENERGY PREDICTED BY IDOCK:   -1.23 KCAL/MOL
REMARK 927      BINDING AFFINITY PREDICTED BY RF-SCORE:    0.00 PKD
ROOT
HETATM    1  C   UNL     1      -9.538   9.003  69.124  1.00  0.00    -0.161 C  
ENDROOT
BRANCH   1   2
HETATM    2  C   UNL     1     -10.447   8.895  67.856  1.00  0.00    -0.223 C  
HETATM    3  O   UNL     1     -11.272   7.724  67.899  1.00  0.00    -0.404 OA 
HETATM    4  H   UNL     1     -11.825   7.658  67.128  1.00  0.00     0.000 HD 
BRANCH   2   5
HETATM    5  C   UNL     1      -9.665   8.974  66.542  1.00  0.00    -0.311 A  
HETATM    6  C   UNL     1      -7.850   6.600  62.978  1.00  0.00    -0.103 C  
HETATM    7  C   UNL     1      -8.353   7.838  64.832  1.00  0.00    -0.063 A  
HETATM    8  C   UNL     1      -9.676  10.117  65.720  1.00  0.00    -0.307 A  
HETATM    9  C   UNL     1      -8.362   8.982  64.032  1.00  0.00    -0.176 A  
HETATM   10  C   UNL     1      -7.159   7.820  62.392  1.00  0.00    -0.082 C  
HETATM   11  C   UNL     1      -8.958   7.842  66.091  1.00  0.00    -0.214 A  
HETATM   12  O   UNL     1      -7.808   9.039  62.779  1.00  0.00    -0.119 OA 
HETATM   13  O   UNL     1      -7.806   6.652  64.409  1.00  0.00    -0.108 OA 
HETATM   14  C   UNL     1      -9.008  10.128  64.487  1.00  0.00    -0.253 A  
ENDBRANCH   2   5
ENDBRANCH   1   2
BRANCH   1  15
HETATM   15  N   UNL     1      -8.268   9.636  68.727  1.00  0.00    -0.103 NA 
HETATM   16  H   UNL     1      -8.011   9.564  67.742  1.00  0.00     0.000 HD 
BRANCH  15  17
HETATM   17  C   UNL     1      -7.458  10.263  69.482  1.00  0.00    -0.142 C  
HETATM   18  H   UNL     1      -6.402  10.312  71.228  1.00  0.00     0.000 HD 
HETATM   19  O   UNL     1      -7.007   9.843  70.664  1.00  0.00    -0.214 OA 
BRANCH  17  20
HETATM   20  C   UNL     1      -6.929  11.613  69.068  1.00  0.00    -0.111 C  
BRANCH  20  21
HETATM   21  C   UNL     1      -7.842  12.324  68.074  1.00  0.00    -0.147 C  
BRANCH  21  22
HETATM   22  C   UNL     1      -8.640  13.469  68.700  1.00  0.00    -0.009 C  
BRANCH  22  23
HETATM   23  C   UNL     1      -7.958  14.814  68.442  1.00  0.00    -0.138 C  
BRANCH  23  24
HETATM   24  C   UNL     1      -8.941  15.979  68.556  1.00  0.00    -0.200 C  
BRANCH  24  25
HETATM   25  C   UNL     1     -10.356  15.545  68.171  1.00  0.00    -0.237 C  
HETATM   26  C   UNL     1     -11.358  15.874  69.265  1.00  0.00    -0.355 C  
ENDBRANCH  24  25
ENDBRANCH  23  24
ENDBRANCH  22  23
ENDBRANCH  21  22
ENDBRANCH  20  21
ENDBRANCH  17  20
ENDBRANCH  15  17
ENDBRANCH   1  15
BRANCH   1  27
HETATM   27  C   UNL     1      -9.088   7.658  69.794  1.00  0.00    -0.147 C  
BRANCH  27  28
HETATM   28  N   UNL     1      -9.565   7.240  71.134  1.00  0.00    -0.161 NA 
HETATM   29  C   UNL     1     -10.645   6.236  70.982  1.00  0.00    -0.238 C  
HETATM   30  C   UNL     1     -10.147   8.351  71.888  1.00  0.00    -0.267 C  
HETATM   31  C   UNL     1     -11.721   6.544  72.013  1.00  0.00    -0.367 C  
HETATM   32  C   UNL     1     -11.219   7.749  72.775  1.00  0.00    -0.456 C  
ENDBRANCH  27  28
ENDBRANCH   1  27
TORSDOF 12
ENDMDL
MODEL      339
REMARK 921   NORMALIZED FREE ENERGY PREDICTED BY IDOCK:   -2.91 KCAL/MOL
REMARK 922        TOTAL FREE ENERGY PREDICTED BY IDOCK:   -7.01 KCAL/MOL
REMARK 923 INTER-LIGAND FREE ENERGY PREDICTED BY IDOCK:   -6.46 KCAL/MOL
REMARK 924 INTRA-LIGAND FREE ENERGY PREDICTED BY IDOCK:   -0.54 KCAL/MOL
REMARK 927      BINDING AFFINITY PREDICTED BY RF-SCORE:    0.00 PKD
ROOT
HETATM    1  C   UNL     1     -10.467  15.104  67.381  1.00  0.00    -0.264 C  
ENDROOT
BRANCH   1   2
HETATM    2  C   UNL     1     -10.259  15.691  68.816  1.00  0.00    -0.215 C  
HETATM    3  O   UNL     1     -11.297  16.619  69.161  1.00  0.00    -0.220 OA 
HETATM    4  H   UNL     1     -11.170  16.975  70.033  1.00  0.00     0.000 HD 
BRANCH   2   5
HETATM    5  C   UNL     1      -8.873  16.308  69.022  1.00  0.00    -0.243 A  
HETATM    6  C   UNL     1      -6.476  20.076  70.321  1.00  0.00    -0.265 C  
HETATM    7  C   UNL     1      -7.508  18.305  69.310  1.00  0.00     0.011 A  
HETATM    8  C   UNL     1      -7.734  15.534  69.317  1.00  0.00    -0.223 A  
HETATM    9  C   UNL     1      -6.384  17.526  69.589  1.00  0.00    -0.191 A  
HETATM   10  C   UNL     1      -5.136  19.480  69.921  1.00  0.00    -0.188 C  
HETATM   11  C   UNL     1      -8.730  17.709  68.987  1.00  0.00    -0.008 A  
HETATM   12  O   UNL     1      -5.164  18.046  69.934  1.00  0.00    -0.186 OA 
HETATM   13  O   UNL     1      -7.488  19.676  69.389  1.00  0.00    -0.322 OA 
HETATM   14  C   UNL     1      -6.495  16.138  69.572  1.00  0.00    -0.199 A  
ENDBRANCH   2   5
ENDBRANCH   1   2
BRANCH   1  15
HETATM   15  N   UNL     1     -10.296  13.643  67.452  1.00  0.00    -0.243 NA 
HETATM   16  H   UNL     1      -9.398  13.306  67.800  1.00  0.00     0.000 HD 
BRANCH  15  17
HETATM   17  C   UNL     1     -11.149  12.757  67.126  1.00  0.00    -0.277 C  
HETATM   18  H   UNL     1     -12.127  11.759  65.638  1.00  0.00     0.000 HD 
HETATM   19  O   UNL     1     -11.490  12.421  65.882  1.00  0.00    -0.337 OA 
BRANCH  17  20
HETATM   20  C   UNL     1     -11.885  11.987  68.193  1.00  0.00    -0.352 C  
BRANCH  20  21
HETATM   21  C   UNL     1     -11.322  10.585  68.402  1.00  0.00    -0.328 C  
BRANCH  21  22
HETATM   22  C   UNL     1     -11.725   9.965  69.742  1.00  0.00    -0.079 C  
BRANCH  22  23
HETATM   23  C   UNL     1     -10.500   9.745  70.631  1.00  0.00    -0.358 C  
BRANCH  23  24
HETATM   24  C   UNL     1     -10.719   8.606  71.626  1.00  0.00    -0.374 C  
BRANCH  24  25
HETATM   25  C   UNL     1      -9.883   7.381  71.252  1.00  0.00    -0.182 C  
HETATM   26  C   UNL     1      -8.831   7.720  70.210  1.00  0.00    -0.144 C  
ENDBRANCH  24  25
ENDBRANCH  23  24
ENDBRANCH  22  23
ENDBRANCH  21  22
ENDBRANCH  20  21
ENDBRANCH  17  20
ENDBRANCH  15  17
ENDBRANCH   1  15
BRANCH   1  27
HETATM   27  C   UNL     1      -9.444  15.545  66.277  1.00  0.00    -0.323 C  
BRANCH  27  28
HETATM   28  N   UNL     1      -9.560  16.835  65.556  1.00  0.00    -0.474 NA 
HETATM   29  C   UNL     1      -8.380  17.678  65.861  1.00  0.00     0.050 C  
HETATM   30  C   UNL     1     -10.730  17.605  65.980  1.00  0.00    -0.117 C  
HETATM   31  C   UNL     1      -8.862  19.110  66.050  1.00  0.00    -0.097 C  
HETATM   32  C   UNL     1     -10.356  19.066  65.827  1.00  0.00    -0.316 C  
ENDBRANCH  27  28
ENDBRANCH   1  27
TORSDOF 12
ENDMDL
MODEL      340
REMARK 921   NORMALIZED FREE ENERGY PREDICTED BY IDOCK:   -2.90 KCAL/MOL
REMARK 922        TOTAL FREE ENERGY PREDICTED BY IDOCK:   -7.00 KCAL/MOL
REMARK 923 INTER-LIGAND FREE ENERGY PREDICTED BY IDOCK:   -6.26 KCAL/MOL
REMARK 924 INTRA-LIGAND FREE ENERGY PREDICTED BY IDOCK:   -0.74 KCAL/MOL
REMARK 927      BINDING AFFINITY PREDICTED BY RF-SCORE:    0.00 PKD
ROOT
HETATM    1  C   UNL     1      -8.891  12.424  67.885  1.00  0.00    -0.180 C  
ENDROOT
BRANCH   1   2
HETATM    2  C   UNL     1      -8.658  11.016  67.246  1.00  0.00    -0.130 C  
HETATM    3  O   UNL     1      -9.368  10.876  66.008  1.00  0.00    -0.177 OA 
HETATM    4  H   UNL     1      -9.227  10.020  65.620  1.00  0.00     0.000 HD 
BRANCH   2   5
HETATM    5  C   UNL     1      -8.971   9.859  68.199  1.00  0.00    -0.118 A  
HETATM    6  C   UNL     1      -9.578   5.269  68.635  1.00  0.00    -0.136 C  
HETATM    7  C   UNL     1      -9.680   7.548  68.502  1.00  0.00    -0.156 A  
HETATM    8  C   UNL     1      -8.674   9.908  69.574  1.00  0.00    -0.200 A  
HETATM    9  C   UNL     1      -9.392   7.614  69.866  1.00  0.00    -0.150 A  
HETATM   10  C   UNL     1     -10.020   5.368  70.086  1.00  0.00    -0.232 C  
HETATM   11  C   UNL     1      -9.515   8.667  67.681  1.00  0.00    -0.169 A  
HETATM   12  O   UNL     1      -9.510   6.549  70.720  1.00  0.00    -0.170 OA 
HETATM   13  O   UNL     1     -10.082   6.385  67.892  1.00  0.00    -0.131 OA 
HETATM   14  C   UNL     1      -8.907   8.803  70.405  1.00  0.00    -0.185 A  
ENDBRANCH   2   5
ENDBRANCH   1   2
BRANCH   1  15
HETATM   15  N   UNL     1     -10.343  12.656  67.969  1.00  0.00    -0.221 NA 
HETATM   16  H   UNL     1     -10.843  12.157  68.705  1.00  0.00     0.000 HD 
BRANCH  15  17
HETATM   17  C   UNL     1     -11.041  13.414  67.221  1.00  0.00    -0.282 C  
HETATM   18  H   UNL     1     -12.183  13.613  65.541  1.00  0.00     0.000 HD 
HETATM   19  O   UNL     1     -11.662  13.047  66.100  1.00  0.00    -0.354 OA 
BRANCH  17  20
HETATM   20  C   UNL     1     -11.212  14.871  67.570  1.00  0.00    -0.334 C  
BRANCH  20  21
HETATM   21  C   UNL     1     -10.933  15.162  69.041  1.00  0.00    -0.245 C  
BRANCH  21  22
HETATM   22  C   UNL     1     -11.340  16.574  69.465  1.00  0.00    -0.088 C  
BRANCH  22  23
HETATM   23  C   UNL     1     -11.308  16.716  70.988  1.00  0.00     0.106 C  
BRANCH  23  24
HETATM   24  C   UNL     1     -12.226  15.704  71.671  1.00  0.00    -0.493 C  
BRANCH  24  25
HETATM   25  C   UNL     1     -12.581  16.152  73.089  1.00  0.00    -0.599 C  
HETATM   26  C   UNL     1     -12.133  15.135  74.125  1.00  0.00    -0.603 C  
ENDBRANCH  24  25
ENDBRANCH  23  24
ENDBRANCH  22  23
ENDBRANCH  21  22
ENDBRANCH  20  21
ENDBRANCH  17  20
ENDBRANCH  15  17
ENDBRANCH   1  15
BRANCH   1  27
HETATM   27  C   UNL     1      -8.363  13.665  67.084  1.00  0.00    -0.137 C  
BRANCH  27  28
HETATM   28  N   UNL     1      -7.721  14.825  67.748  1.00  0.00    -0.141 NA 
HETATM   29  C   UNL     1      -7.670  15.968  66.805  1.00  0.00    -0.235 C  
HETATM   30  C   UNL     1      -6.335  14.550  68.129  1.00  0.00    -0.141 C  
HETATM   31  C   UNL     1      -6.319  16.650  66.968  1.00  0.00    -0.222 C  
HETATM   32  C   UNL     1      -5.600  15.873  68.047  1.00  0.00    -0.133 C  
ENDBRANCH  27  28
ENDBRANCH   1  27
TORSDOF 12
ENDMDL
MODEL      341
REMARK 921   NORMALIZED FREE ENERGY PREDICTED BY IDOCK:   -2.87 KCAL/MOL
REMARK 922        TOTAL FREE ENERGY PREDICTED BY IDOCK:   -6.93 KCAL/MOL
REMARK 923 INTER-LIGAND FREE ENERGY PREDICTED BY IDOCK:   -5.24 KCAL/MOL
REMARK 924 INTRA-LIGAND FREE ENERGY PREDICTED BY IDOCK:   -1.69 KCAL/MOL
REMARK 927      BINDING AFFINITY PREDICTED BY RF-SCORE:    0.00 PKD
ROOT
HETATM    1  C   UNL     1     -11.147  11.612  66.646  1.00  0.00    -0.307 C  
ENDROOT
BRANCH   1   2
HETATM    2  C   UNL     1     -11.387  10.468  67.685  1.00  0.00    -0.154 C  
HETATM    3  O   UNL     1     -12.047  10.956  68.861  1.00  0.00    -0.623 OA 
HETATM    4  H   UNL     1     -12.193  10.261  69.493  1.00  0.00     0.000 HD 
BRANCH   2   5
HETATM    5  C   UNL     1     -10.113   9.699  68.044  1.00  0.00    -0.213 A  
HETATM    6  C   UNL     1      -6.506   9.345  70.958  1.00  0.00    -0.086 C  
HETATM    7  C   UNL     1      -7.997   9.627  69.250  1.00  0.00    -0.104 A  
HETATM    8  C   UNL     1      -9.929   8.341  67.719  1.00  0.00    -0.235 A  
HETATM    9  C   UNL     1      -7.822   8.285  68.910  1.00  0.00    -0.111 A  
HETATM   10  C   UNL     1      -5.830   8.255  70.142  1.00  0.00    -0.025 C  
HETATM   11  C   UNL     1      -9.105  10.343  68.788  1.00  0.00    -0.165 A  
HETATM   12  O   UNL     1      -6.772   7.520  69.348  1.00  0.00    -0.039 OA 
HETATM   13  O   UNL     1      -7.133  10.292  70.085  1.00  0.00    -0.147 OA 
HETATM   14  C   UNL     1      -8.781   7.648  68.127  1.00  0.00    -0.122 A  
ENDBRANCH   2   5
ENDBRANCH   1   2
BRANCH   1  15
HETATM   15  N   UNL     1     -10.930  10.996  65.326  1.00  0.00    -0.101 NA 
HETATM   16  H   UNL     1     -11.681  10.404  64.970  1.00  0.00     0.000 HD 
BRANCH  15  17
HETATM   17  C   UNL     1      -9.906  11.125  64.581  1.00  0.00    -0.280 C  
HETATM   18  H   UNL     1      -8.831  12.297  63.302  1.00  0.00     0.000 HD 
HETATM   19  O   UNL     1      -9.596  12.201  63.858  1.00  0.00    -0.137 OA 
BRANCH  17  20
HETATM   20  C   UNL     1      -8.919   9.992  64.452  1.00  0.00    -0.265 C  
BRANCH  20  21
HETATM   21  C   UNL     1      -7.599  10.278  65.160  1.00  0.00    -0.133 C  
BRANCH  21  22
HETATM   22  C   UNL     1      -6.393  10.267  64.219  1.00  0.00    -0.096 C  
BRANCH  22  23
HETATM   23  C   UNL     1      -5.463   9.095  64.538  1.00  0.00    -0.055 C  
BRANCH  23  24
HETATM   24  C   UNL     1      -6.188   7.987  65.302  1.00  0.00    -0.045 C  
BRANCH  24  25
HETATM   25  C   UNL     1      -6.449   6.779  64.402  1.00  0.00    -0.038 C  
HETATM   26  C   UNL     1      -7.754   6.088  64.759  1.00  0.00    -0.101 C  
ENDBRANCH  24  25
ENDBRANCH  23  24
ENDBRANCH  22  23
ENDBRANCH  21  22
ENDBRANCH  20  21
ENDBRANCH  17  20
ENDBRANCH  15  17
ENDBRANCH   1  15
BRANCH   1  27
HETATM   27  C   UNL     1      -9.874  12.504  66.852  1.00  0.00    -0.227 C  
BRANCH  27  28
HETATM   28  N   UNL     1      -9.947  13.982  66.955  1.00  0.00    -0.257 NA 
HETATM   29  C   UNL     1     -11.052  14.482  66.102  1.00  0.00    -0.334 C  
HETATM   30  C   UNL     1      -8.731  14.634  66.467  1.00  0.00    -0.080 C  
HETATM   31  C   UNL     1     -10.573  15.749  65.409  1.00  0.00    -0.441 C  
HETATM   32  C   UNL     1      -9.163  15.973  65.902  1.00  0.00    -0.321 C  
ENDBRANCH  27  28
ENDBRANCH   1  27
TORSDOF 12
ENDMDL
MODEL      342
REMARK 921   NORMALIZED FREE ENERGY PREDICTED BY IDOCK:   -2.85 KCAL/MOL
REMARK 922        TOTAL FREE ENERGY PREDICTED BY IDOCK:   -6.90 KCAL/MOL
REMARK 923 INTER-LIGAND FREE ENERGY PREDICTED BY IDOCK:   -5.49 KCAL/MOL
REMARK 924 INTRA-LIGAND FREE ENERGY PREDICTED BY IDOCK:   -1.41 KCAL/MOL
REMARK 927      BINDING AFFINITY PREDICTED BY RF-SCORE:    0.00 PKD
ROOT
HETATM    1  C   UNL     1      -9.638   8.934  69.498  1.00  0.00    -0.171 C  
ENDROOT
BRANCH   1   2
HETATM    2  C   UNL     1      -9.949   9.171  67.984  1.00  0.00    -0.178 C  
HETATM    3  O   UNL     1     -11.347   9.400  67.765  1.00  0.00    -0.446 OA 
HETATM    4  H   UNL     1     -11.537   9.545  66.844  1.00  0.00     0.000 HD 
BRANCH   2   5
HETATM    5  C   UNL     1      -9.420   8.058  67.075  1.00  0.00    -0.223 A  
HETATM    6  C   UNL     1     -10.436   4.163  64.747  1.00  0.00    -0.174 C  
HETATM    7  C   UNL     1      -9.711   5.832  66.129  1.00  0.00    -0.071 A  
HETATM    8  C   UNL     1      -8.329   8.244  66.205  1.00  0.00    -0.124 A  
HETATM    9  C   UNL     1      -8.620   6.025  65.280  1.00  0.00    -0.099 A  
HETATM   10  C   UNL     1      -8.990   3.904  64.358  1.00  0.00    -0.128 C  
HETATM   11  C   UNL     1     -10.084   6.816  67.048  1.00  0.00    -0.264 A  
HETATM   12  O   UNL     1      -8.217   5.112  64.341  1.00  0.00    -0.118 OA 
HETATM   13  O   UNL     1     -10.497   4.708  66.071  1.00  0.00    -0.290 OA 
HETATM   14  C   UNL     1      -7.917   7.226  65.334  1.00  0.00    -0.125 A  
ENDBRANCH   2   5
ENDBRANCH   1   2
BRANCH   1  15
HETATM   15  N   UNL     1      -8.275   8.386  69.608  1.00  0.00    -0.115 NA 
HETATM   16  H   UNL     1      -8.114   7.475  69.175  1.00  0.00     0.000 HD 
BRANCH  15  17
HETATM   17  C   UNL     1      -7.278   8.927  70.183  1.00  0.00    -0.057 C  
HETATM   18  H   UNL     1      -6.590  10.219  71.606  1.00  0.00     0.000 HD 
HETATM   19  O   UNL     1      -7.335   9.815  71.176  1.00  0.00    -0.316 OA 
BRANCH  17  20
HETATM   20  C   UNL     1      -5.875   8.587  69.745  1.00  0.00    -0.029 C  
BRANCH  20  21
HETATM   21  C   UNL     1      -5.425   7.212  70.227  1.00  0.00    -0.023 C  
BRANCH  21  22
HETATM   22  C   UNL     1      -6.567   6.197  70.311  1.00  0.00    -0.045 C  
BRANCH  22  23
HETATM   23  C   UNL     1      -6.596   5.305  69.068  1.00  0.00    -0.051 C  
BRANCH  23  24
HETATM   24  C   UNL     1      -7.890   4.497  68.979  1.00  0.00    -0.070 C  
BRANCH  24  25
HETATM   25  C   UNL     1      -8.751   4.700  70.226  1.00  0.00    -0.113 C  
HETATM   26  C   UNL     1      -9.767   3.582  70.392  1.00  0.00    -0.176 C  
ENDBRANCH  24  25
ENDBRANCH  23  24
ENDBRANCH  22  23
ENDBRANCH  21  22
ENDBRANCH  20  21
ENDBRANCH  17  20
ENDBRANCH  15  17
ENDBRANCH   1  15
BRANCH   1  27
HETATM   27  C   UNL     1     -10.523   7.878  70.249  1.00  0.00    -0.225 C  
BRANCH  27  28
HETATM   28  N   UNL     1     -11.450   8.254  71.344  1.00  0.00    -0.260 NA 
HETATM   29  C   UNL     1     -12.702   7.470  71.221  1.00  0.00    -0.302 C  
HETATM   30  C   UNL     1     -11.844   9.662  71.279  1.00  0.00    -0.381 C  
HETATM   31  C   UNL     1     -13.869   8.399  71.528  1.00  0.00    -0.377 C  
HETATM   32  C   UNL     1     -13.247   9.738  71.848  1.00  0.00    -0.545 C  
ENDBRANCH  27  28
ENDBRANCH   1  27
TORSDOF 12
ENDMDL
MODEL      343
REMARK 921   NORMALIZED FREE ENERGY PREDICTED BY IDOCK:   -2.84 KCAL/MOL
REMARK 922        TOTAL FREE ENERGY PREDICTED BY IDOCK:   -6.88 KCAL/MOL
REMARK 923 INTER-LIGAND FREE ENERGY PREDICTED BY IDOCK:   -6.09 KCAL/MOL
REMARK 924 INTRA-LIGAND FREE ENERGY PREDICTED BY IDOCK:   -0.79 KCAL/MOL
REMARK 927      BINDING AFFINITY PREDICTED BY RF-SCORE:    0.00 PKD
ROOT
HETATM    1  C   UNL     1      -9.371   9.148  67.982  1.00  0.00    -0.137 C  
ENDROOT
BRANCH   1   2
HETATM    2  C   UNL     1      -8.185   8.150  68.194  1.00  0.00    -0.129 C  
HETATM    3  O   UNL     1      -6.937   8.721  67.779  1.00  0.00    -0.073 OA 
HETATM    4  H   UNL     1      -6.217   8.115  67.907  1.00  0.00     0.000 HD 
BRANCH   2   5
HETATM    5  C   UNL     1      -8.417   6.786  67.537  1.00  0.00    -0.121 A  
HETATM    6  C   UNL     1      -7.986   4.238  63.671  1.00  0.00    -0.089 C  
HETATM    7  C   UNL     1      -8.600   5.464  65.499  1.00  0.00    -0.148 A  
HETATM    8  C   UNL     1      -8.455   5.587  68.273  1.00  0.00    -0.097 A  
HETATM    9  C   UNL     1      -8.648   4.283  66.241  1.00  0.00    -0.113 A  
HETATM   10  C   UNL     1      -8.752   3.058  64.248  1.00  0.00    -0.094 C  
HETATM   11  C   UNL     1      -8.529   6.706  66.135  1.00  0.00    -0.135 A  
HETATM   12  O   UNL     1      -8.695   3.033  65.680  1.00  0.00    -0.117 OA 
HETATM   13  O   UNL     1      -8.565   5.467  64.126  1.00  0.00    -0.103 OA 
HETATM   14  C   UNL     1      -8.596   4.348  67.631  1.00  0.00    -0.108 A  
ENDBRANCH   2   5
ENDBRANCH   1   2
BRANCH   1  15
HETATM   15  N   UNL     1     -10.510   8.689  68.795  1.00  0.00    -0.283 NA 
HETATM   16  H   UNL     1     -11.413   8.629  68.323  1.00  0.00     0.000 HD 
BRANCH  15  17
HETATM   17  C   UNL     1     -10.488   8.358  70.024  1.00  0.00    -0.224 C  
HETATM   18  H   UNL     1     -10.288   6.878  71.416  1.00  0.00     0.000 HD 
HETATM   19  O   UNL     1     -10.305   7.125  70.498  1.00  0.00    -0.199 OA 
BRANCH  17  20
HETATM   20  C   UNL     1     -10.690   9.403  71.092  1.00  0.00    -0.417 C  
BRANCH  20  21
HETATM   21  C   UNL     1     -12.116   9.944  71.124  1.00  0.00    -0.466 C  
BRANCH  21  22
HETATM   22  C   UNL     1     -12.191  11.459  70.926  1.00  0.00    -0.447 C  
BRANCH  22  23
HETATM   23  C   UNL     1     -11.217  11.916  69.838  1.00  0.00    -0.051 C  
BRANCH  23  24
HETATM   24  C   UNL     1     -11.940  12.256  68.536  1.00  0.00    -0.272 C  
BRANCH  24  25
HETATM   25  C   UNL     1     -11.592  13.670  68.067  1.00  0.00    -0.368 C  
HETATM   26  C   UNL     1     -10.119  13.796  67.716  1.00  0.00    -0.245 C  
ENDBRANCH  24  25
ENDBRANCH  23  24
ENDBRANCH  22  23
ENDBRANCH  21  22
ENDBRANCH  20  21
ENDBRANCH  17  20
ENDBRANCH  15  17
ENDBRANCH   1  15
BRANCH   1  27
HETATM   27  C   UNL     1      -9.966   9.248  66.534  1.00  0.00    -0.274 C  
BRANCH  27  28
HETATM   28  N   UNL     1      -9.517  10.271  65.559  1.00  0.00    -0.204 NA 
HETATM   29  C   UNL     1     -10.684  11.058  65.096  1.00  0.00    -0.183 C  
HETATM   30  C   UNL     1      -8.928   9.674  64.359  1.00  0.00    -0.234 C  
HETATM   31  C   UNL     1     -10.530  11.292  63.600  1.00  0.00    -0.464 C  
HETATM   32  C   UNL     1      -9.227  10.627  63.219  1.00  0.00    -0.295 C  
ENDBRANCH  27  28
ENDBRANCH   1  27
TORSDOF 12
ENDMDL
MODEL      344
REMARK 921   NORMALIZED FREE ENERGY PREDICTED BY IDOCK:   -2.82 KCAL/MOL
REMARK 922        TOTAL FREE ENERGY PREDICTED BY IDOCK:   -6.85 KCAL/MOL
REMARK 923 INTER-LIGAND FREE ENERGY PREDICTED BY IDOCK:   -5.21 KCAL/MOL
REMARK 924 INTRA-LIGAND FREE ENERGY PREDICTED BY IDOCK:   -1.64 KCAL/MOL
REMARK 927      BINDING AFFINITY PREDICTED BY RF-SCORE:    0.00 PKD
ROOT
HETATM    1  C   UNL     1      -9.545   6.066  71.223  1.00  0.00    -0.167 C  
ENDROOT
BRANCH   1   2
HETATM    2  C   UNL     1      -8.278   6.478  70.403  1.00  0.00    -0.125 C  
HETATM    3  O   UNL     1      -7.093   6.437  71.209  1.00  0.00    -0.073 OA 
HETATM    4  H   UNL     1      -6.323   6.687  70.711  1.00  0.00     0.000 HD 
BRANCH   2   5
HETATM    5  C   UNL     1      -8.425   7.831  69.702  1.00  0.00    -0.133 A  
HETATM    6  C   UNL     1     -10.589  10.236  66.361  1.00  0.00    -0.107 C  
HETATM    7  C   UNL     1      -9.193   9.099  67.768  1.00  0.00    -0.133 A  
HETATM    8  C   UNL     1      -8.152   9.053  70.346  1.00  0.00    -0.152 A  
HETATM    9  C   UNL     1      -8.907  10.302  68.414  1.00  0.00    -0.129 A  
HETATM   10  C   UNL     1      -9.723  11.470  66.555  1.00  0.00    -0.203 C  
HETATM   11  C   UNL     1      -8.917   7.874  68.382  1.00  0.00    -0.133 A  
HETATM   12  O   UNL     1      -9.175  11.535  67.879  1.00  0.00    -0.157 OA 
HETATM   13  O   UNL     1      -9.801   9.053  66.538  1.00  0.00    -0.223 OA 
HETATM   14  C   UNL     1      -8.367  10.277  69.698  1.00  0.00    -0.139 A  
ENDBRANCH   2   5
ENDBRANCH   1   2
BRANCH   1  15
HETATM   15  N   UNL     1      -9.789   4.630  71.002  1.00  0.00    -0.187 NA 
HETATM   16  H   UNL     1     -10.365   4.154  71.697  1.00  0.00     0.000 HD 
BRANCH  15  17
HETATM   17  C   UNL     1      -9.360   3.922  70.037  1.00  0.00    -0.176 C  
HETATM   18  H   UNL     1      -8.127   2.423  69.403  1.00  0.00     0.000 HD 
HETATM   19  O   UNL     1      -8.448   2.952  70.124  1.00  0.00    -0.050 OA 
BRANCH  17  20
HETATM   20  C   UNL     1      -9.878   4.153  68.640  1.00  0.00    -0.082 C  
BRANCH  20  21
HETATM   21  C   UNL     1      -9.069   3.411  67.581  1.00  0.00    -0.204 C  
BRANCH  21  22
HETATM   22  C   UNL     1      -7.879   4.217  67.056  1.00  0.00    -0.096 C  
BRANCH  22  23
HETATM   23  C   UNL     1      -8.341   5.293  66.072  1.00  0.00    -0.118 C  
BRANCH  23  24
HETATM   24  C   UNL     1      -7.164   5.932  65.335  1.00  0.00    -0.074 C  
BRANCH  24  25
HETATM   25  C   UNL     1      -7.569   7.263  64.701  1.00  0.00    -0.106 C  
HETATM   26  C   UNL     1      -6.638   8.388  65.121  1.00  0.00    -0.063 C  
ENDBRANCH  24  25
ENDBRANCH  23  24
ENDBRANCH  22  23
ENDBRANCH  21  22
ENDBRANCH  20  21
ENDBRANCH  17  20
ENDBRANCH  15  17
ENDBRANCH   1  15
BRANCH   1  27
HETATM   27  C   UNL     1     -10.903   6.740  70.821  1.00  0.00    -0.249 C  
BRANCH  27  28
HETATM   28  N   UNL     1     -11.729   7.502  71.789  1.00  0.00    -0.274 NA 
HETATM   29  C   UNL     1     -13.164   7.255  71.514  1.00  0.00    -0.379 C  
HETATM   30  C   UNL     1     -11.535   8.948  71.667  1.00  0.00    -0.339 C  
HETATM   31  C   UNL     1     -13.905   8.576  71.667  1.00  0.00    -0.437 C  
HETATM   32  C   UNL     1     -12.852   9.588  72.055  1.00  0.00    -0.499 C  
ENDBRANCH  27  28
ENDBRANCH   1  27
TORSDOF 12
ENDMDL
MODEL      345
REMARK 921   NORMALIZED FREE ENERGY PREDICTED BY IDOCK:   -2.76 KCAL/MOL
REMARK 922        TOTAL FREE ENERGY PREDICTED BY IDOCK:   -6.75 KCAL/MOL
REMARK 923 INTER-LIGAND FREE ENERGY PREDICTED BY IDOCK:   -6.48 KCAL/MOL
REMARK 924 INTRA-LIGAND FREE ENERGY PREDICTED BY IDOCK:   -0.27 KCAL/MOL
REMARK 927      BINDING AFFINITY PREDICTED BY RF-SCORE:    0.00 PKD
ROOT
HETATM    1  C   UNL     1     -10.371  12.899  65.999  1.00  0.00    -0.283 C  
ENDROOT
BRANCH   1   2
HETATM    2  C   UNL     1     -10.284  12.101  64.657  1.00  0.00    -0.284 C  
HETATM    3  O   UNL     1     -11.585  11.739  64.175  1.00  0.00    -0.350 OA 
HETATM    4  H   UNL     1     -11.532  11.253  63.359  1.00  0.00     0.000 HD 
BRANCH   2   5
HETATM    5  C   UNL     1      -9.363  10.880  64.738  1.00  0.00    -0.259 A  
HETATM    6  C   UNL     1      -6.933   7.709  62.356  1.00  0.00    -0.076 C  
HETATM    7  C   UNL     1      -8.364   8.952  63.633  1.00  0.00    -0.162 A  
HETATM    8  C   UNL     1      -8.520  10.638  65.839  1.00  0.00    -0.167 A  
HETATM    9  C   UNL     1      -7.542   8.716  64.736  1.00  0.00    -0.102 A  
HETATM   10  C   UNL     1      -6.568   6.914  63.600  1.00  0.00    -0.043 C  
HETATM   11  C   UNL     1      -9.296   9.993  63.645  1.00  0.00    -0.301 A  
HETATM   12  O   UNL     1      -6.593   7.728  64.780  1.00  0.00    -0.044 OA 
HETATM   13  O   UNL     1      -8.266   8.220  62.475  1.00  0.00    -0.172 OA 
HETATM   14  C   UNL     1      -7.636   9.550  65.848  1.00  0.00    -0.100 A  
ENDBRANCH   2   5
ENDBRANCH   1   2
BRANCH   1  15
HETATM   15  N   UNL     1     -10.754  11.961  67.068  1.00  0.00    -0.230 NA 
HETATM   16  H   UNL     1     -10.852  10.981  66.801  1.00  0.00     0.000 HD 
BRANCH  15  17
HETATM   17  C   UNL     1     -10.974  12.243  68.289  1.00  0.00    -0.232 C  
HETATM   18  H   UNL     1     -10.589  13.459  69.883  1.00  0.00     0.000 HD 
HETATM   19  O   UNL     1     -10.424  13.248  68.971  1.00  0.00    -0.151 OA 
BRANCH  17  20
HETATM   20  C   UNL     1     -11.925  11.399  69.101  1.00  0.00    -0.395 C  
BRANCH  20  21
HETATM   21  C   UNL     1     -11.364  11.031  70.470  1.00  0.00    -0.116 C  
BRANCH  21  22
HETATM   22  C   UNL     1     -11.802   9.645  70.949  1.00  0.00    -0.403 C  
BRANCH  22  23
HETATM   23  C   UNL     1     -10.592   8.733  71.160  1.00  0.00    -0.310 C  
BRANCH  23  24
HETATM   24  C   UNL     1     -10.663   7.484  70.282  1.00  0.00    -0.247 C  
BRANCH  24  25
HETATM   25  C   UNL     1     -10.975   7.850  68.830  1.00  0.00     0.101 C  
HETATM   26  C   UNL     1     -11.015   6.619  67.940  1.00  0.00    -0.342 C  
ENDBRANCH  24  25
ENDBRANCH  23  24
ENDBRANCH  22  23
ENDBRANCH  21  22
ENDBRANCH  20  21
ENDBRANCH  17  20
ENDBRANCH  15  17
ENDBRANCH   1  15
BRANCH   1  27
HETATM   27  C   UNL     1     -11.459  14.026  66.087  1.00  0.00    -0.346 C  
BRANCH  27  28
HETATM   28  N   UNL     1     -11.113  15.449  66.321  1.00  0.00    -0.278 NA 
HETATM   29  C   UNL     1      -9.777  15.732  65.745  1.00  0.00    -0.337 C  
HETATM   30  C   UNL     1     -11.018  15.770  67.746  1.00  0.00    -0.314 C  
HETATM   31  C   UNL     1      -9.028  16.632  66.719  1.00  0.00    -0.263 C  
HETATM   32  C   UNL     1      -9.983  16.870  67.866  1.00  0.00    -0.274 C  
ENDBRANCH  27  28
ENDBRANCH   1  27
TORSDOF 12
ENDMDL
MODEL      346
REMARK 921   NORMALIZED FREE ENERGY PREDICTED BY IDOCK:   -2.70 KCAL/MOL
REMARK 922        TOTAL FREE ENERGY PREDICTED BY IDOCK:   -6.64 KCAL/MOL
REMARK 923 INTER-LIGAND FREE ENERGY PREDICTED BY IDOCK:   -5.57 KCAL/MOL
REMARK 924 INTRA-LIGAND FREE ENERGY PREDICTED BY IDOCK:   -1.07 KCAL/MOL
REMARK 927      BINDING AFFINITY PREDICTED BY RF-SCORE:    0.00 PKD
ROOT
HETATM    1  C   UNL     1      -9.594   4.264  67.668  1.00  0.00    -0.165 C  
ENDROOT
BRANCH   1   2
HETATM    2  C   UNL     1     -10.198   5.629  67.199  1.00  0.00    -0.212 C  
HETATM    3  O   UNL     1     -11.123   5.451  66.118  1.00  0.00    -0.748 OA 
HETATM    4  H   UNL     1     -11.490   6.280  65.833  1.00  0.00     0.000 HD 
BRANCH   2   5
HETATM    5  C   UNL     1      -9.134   6.673  66.852  1.00  0.00    -0.144 A  
HETATM    6  C   UNL     1      -5.537   9.185  68.395  1.00  0.00    -0.038 C  
HETATM    7  C   UNL     1      -7.499   8.310  67.616  1.00  0.00    -0.094 A  
HETATM    8  C   UNL     1      -8.640   6.848  65.545  1.00  0.00    -0.087 A  
HETATM    9  C   UNL     1      -7.027   8.481  66.313  1.00  0.00    -0.077 A  
HETATM   10  C   UNL     1      -5.429   9.996  67.114  1.00  0.00    -0.042 C  
HETATM   11  C   UNL     1      -8.568   7.451  67.881  1.00  0.00    -0.125 A  
HETATM   12  O   UNL     1      -5.969   9.290  65.988  1.00  0.00    -0.053 OA 
HETATM   13  O   UNL     1      -6.913   8.924  68.695  1.00  0.00    -0.062 OA 
HETATM   14  C   UNL     1      -7.613   7.763  65.275  1.00  0.00    -0.091 A  
ENDBRANCH   2   5
ENDBRANCH   1   2
BRANCH   1  15
HETATM   15  N   UNL     1      -9.459   4.299  69.134  1.00  0.00    -0.162 NA 
HETATM   16  H   UNL     1      -8.654   3.813  69.530  1.00  0.00     0.000 HD 
BRANCH  15  17
HETATM   17  C   UNL     1     -10.240   4.872  69.960  1.00  0.00    -0.243 C  
HETATM   18  H   UNL     1     -11.783   6.173  70.268  1.00  0.00     0.000 HD 
HETATM   19  O   UNL     1     -11.200   5.745  69.651  1.00  0.00    -0.353 OA 
BRANCH  17  20
HETATM   20  C   UNL     1     -10.116   4.593  71.436  1.00  0.00    -0.248 C  
BRANCH  20  21
HETATM   21  C   UNL     1     -10.878   5.599  72.292  1.00  0.00    -0.295 C  
BRANCH  21  22
HETATM   22  C   UNL     1      -9.971   6.416  73.215  1.00  0.00    -0.195 C  
BRANCH  22  23
HETATM   23  C   UNL     1     -10.308   7.906  73.131  1.00  0.00    -0.357 C  
BRANCH  23  24
HETATM   24  C   UNL     1     -11.607   8.151  72.364  1.00  0.00    -0.463 C  
BRANCH  24  25
HETATM   25  C   UNL     1     -11.448   9.297  71.364  1.00  0.00    -0.439 C  
HETATM   26  C   UNL     1     -10.063   9.305  70.739  1.00  0.00    -0.358 C  
ENDBRANCH  24  25
ENDBRANCH  23  24
ENDBRANCH  22  23
ENDBRANCH  21  22
ENDBRANCH  20  21
ENDBRANCH  17  20
ENDBRANCH  15  17
ENDBRANCH   1  15
BRANCH   1  27
HETATM   27  C   UNL     1      -8.147   3.918  67.170  1.00  0.00    -0.095 C  
BRANCH  27  28
HETATM   28  N   UNL     1      -7.897   3.168  65.916  1.00  0.00    -0.084 NA 
HETATM   29  C   UNL     1      -6.910   3.903  65.090  1.00  0.00    -0.053 C  
HETATM   30  C   UNL     1      -9.101   3.042  65.094  1.00  0.00    -0.148 C  
HETATM   31  C   UNL     1      -7.361   3.825  63.638  1.00  0.00    -0.051 C  
HETATM   32  C   UNL     1      -8.632   3.006  63.653  1.00  0.00    -0.089 C  
ENDBRANCH  27  28
ENDBRANCH   1  27
TORSDOF 12
ENDMDL
MODEL      347
REMARK 921   NORMALIZED FREE ENERGY PREDICTED BY IDOCK:   -2.68 KCAL/MOL
REMARK 922        TOTAL FREE ENERGY PREDICTED BY IDOCK:   -6.62 KCAL/MOL
REMARK 923 INTER-LIGAND FREE ENERGY PREDICTED BY IDOCK:   -6.07 KCAL/MOL
REMARK 924 INTRA-LIGAND FREE ENERGY PREDICTED BY IDOCK:   -0.55 KCAL/MOL
REMARK 927      BINDING AFFINITY PREDICTED BY RF-SCORE:    0.00 PKD
ROOT
HETATM    1  C   UNL     1     -10.010   9.412  68.458  1.00  0.00    -0.173 C  
ENDROOT
BRANCH   1   2
HETATM    2  C   UNL     1     -10.736   9.742  67.112  1.00  0.00    -0.202 C  
HETATM    3  O   UNL     1     -10.336   8.845  66.067  1.00  0.00    -0.333 OA 
HETATM    4  H   UNL     1     -10.777   9.045  65.248  1.00  0.00     0.000 HD 
BRANCH   2   5
HETATM    5  C   UNL     1     -10.576  11.202  66.680  1.00  0.00    -0.314 A  
HETATM    6  C   UNL     1      -8.000  15.062  66.989  1.00  0.00    -0.162 C  
HETATM    7  C   UNL     1      -9.544  13.378  67.048  1.00  0.00    -0.244 A  
HETATM    8  C   UNL     1     -11.095  11.696  65.468  1.00  0.00    -0.297 A  
HETATM    9  C   UNL     1     -10.075  13.858  65.850  1.00  0.00    -0.317 A  
HETATM   10  C   UNL     1      -9.003  15.908  66.220  1.00  0.00    -0.346 C  
HETATM   11  C   UNL     1      -9.824  12.080  67.485  1.00  0.00    -0.190 A  
HETATM   12  O   UNL     1      -9.821  15.110  65.353  1.00  0.00    -0.328 OA 
HETATM   13  O   UNL     1      -8.689  14.123  67.823  1.00  0.00    -0.163 OA 
HETATM   14  C   UNL     1     -10.867  13.020  65.070  1.00  0.00    -0.328 A  
ENDBRANCH   2   5
ENDBRANCH   1   2
BRANCH   1  15
HETATM   15  N   UNL     1      -8.616   9.048  68.153  1.00  0.00    -0.129 NA 
HETATM   16  H   UNL     1      -7.924   9.794  68.228  1.00  0.00     0.000 HD 
BRANCH  15  17
HETATM   17  C   UNL     1      -8.183   7.903  67.806  1.00  0.00    -0.129 C  
HETATM   18  H   UNL     1      -8.609   6.010  67.170  1.00  0.00     0.000 HD 
HETATM   19  O   UNL     1      -8.932   6.866  67.430  1.00  0.00    -0.117 OA 
BRANCH  17  20
HETATM   20  C   UNL     1      -6.702   7.622  67.806  1.00  0.00    -0.067 C  
BRANCH  20  21
HETATM   21  C   UNL     1      -6.060   7.850  69.171  1.00  0.00    -0.035 C  
BRANCH  21  22
HETATM   22  C   UNL     1      -6.957   7.432  70.338  1.00  0.00    -0.056 C  
BRANCH  22  23
HETATM   23  C   UNL     1      -6.169   6.618  71.366  1.00  0.00    -0.041 C  
BRANCH  23  24
HETATM   24  C   UNL     1      -6.836   6.644  72.741  1.00  0.00    -0.068 C  
BRANCH  24  25
HETATM   25  C   UNL     1      -7.665   7.915  72.926  1.00  0.00    -0.158 C  
HETATM   26  C   UNL     1      -8.489   7.864  74.202  1.00  0.00    -0.312 C  
ENDBRANCH  24  25
ENDBRANCH  23  24
ENDBRANCH  22  23
ENDBRANCH  21  22
ENDBRANCH  20  21
ENDBRANCH  17  20
ENDBRANCH  15  17
ENDBRANCH   1  15
BRANCH   1  27
HETATM   27  C   UNL     1     -10.545   8.181  69.271  1.00  0.00    -0.182 C  
BRANCH  27  28
HETATM   28  N   UNL     1     -10.532   8.143  70.754  1.00  0.00    -0.200 NA 
HETATM   29  C   UNL     1     -10.597   6.734  71.211  1.00  0.00    -0.219 C  
HETATM   30  C   UNL     1     -11.695   8.813  71.337  1.00  0.00    -0.305 C  
HETATM   31  C   UNL     1     -11.534   6.673  72.409  1.00  0.00    -0.300 C  
HETATM   32  C   UNL     1     -11.994   8.094  72.637  1.00  0.00    -0.353 C  
ENDBRANCH  27  28
ENDBRANCH   1  27
TORSDOF 12
ENDMDL
MODEL      348
REMARK 921   NORMALIZED FREE ENERGY PREDICTED BY IDOCK:   -2.64 KCAL/MOL
REMARK 922        TOTAL FREE ENERGY PREDICTED BY IDOCK:   -6.55 KCAL/MOL
REMARK 923 INTER-LIGAND FREE ENERGY PREDICTED BY IDOCK:   -6.32 KCAL/MOL
REMARK 924 INTRA-LIGAND FREE ENERGY PREDICTED BY IDOCK:   -0.23 KCAL/MOL
REMARK 927      BINDING AFFINITY PREDICTED BY RF-SCORE:    0.00 PKD
ROOT
HETATM    1  C   UNL     1     -10.569  15.367  67.431  1.00  0.00    -0.289 C  
ENDROOT
BRANCH   1   2
HETATM    2  C   UNL     1     -10.325  15.821  68.908  1.00  0.00    -0.224 C  
HETATM    3  O   UNL     1     -11.350  16.717  69.358  1.00  0.00    -0.272 OA 
HETATM    4  H   UNL     1     -11.202  16.993  70.256  1.00  0.00     0.000 HD 
BRANCH   2   5
HETATM    5  C   UNL     1      -8.932  16.413  69.137  1.00  0.00    -0.197 A  
HETATM    6  C   UNL     1      -6.490  20.138  70.475  1.00  0.00    -0.167 C  
HETATM    7  C   UNL     1      -7.536  18.386  69.447  1.00  0.00     0.165 A  
HETATM    8  C   UNL     1      -7.812  15.619  69.450  1.00  0.00    -0.222 A  
HETATM    9  C   UNL     1      -6.432  17.587  69.744  1.00  0.00    -0.064 A  
HETATM   10  C   UNL     1      -5.155  19.519  70.097  1.00  0.00    -0.191 C  
HETATM   11  C   UNL     1      -8.763  17.812  69.103  1.00  0.00     0.136 A  
HETATM   12  O   UNL     1      -5.208  18.086  70.110  1.00  0.00    -0.201 OA 
HETATM   13  O   UNL     1      -7.493  19.756  69.526  1.00  0.00    -0.255 OA 
HETATM   14  C   UNL     1      -6.567  16.201  69.726  1.00  0.00    -0.137 A  
ENDBRANCH   2   5
ENDBRANCH   1   2
BRANCH   1  15
HETATM   15  N   UNL     1     -10.394  13.906  67.364  1.00  0.00    -0.251 NA 
HETATM   16  H   UNL     1      -9.466  13.547  67.591  1.00  0.00     0.000 HD 
BRANCH  15  17
HETATM   17  C   UNL     1     -11.276  13.044  67.053  1.00  0.00    -0.289 C  
HETATM   18  H   UNL     1     -12.425  12.188  65.598  1.00  0.00     0.000 HD 
HETATM   19  O   UNL     1     -11.765  12.832  65.830  1.00  0.00    -0.368 OA 
BRANCH  17  20
HETATM   20  C   UNL     1     -11.874  12.156  68.115  1.00  0.00    -0.362 C  
BRANCH  20  21
HETATM   21  C   UNL     1     -11.091  10.862  68.310  1.00  0.00    -0.324 C  
BRANCH  21  22
HETATM   22  C   UNL     1      -9.870  10.751  67.394  1.00  0.00    -0.204 C  
BRANCH  22  23
HETATM   23  C   UNL     1     -10.151   9.808  66.223  1.00  0.00    -0.313 C  
BRANCH  23  24
HETATM   24  C   UNL     1      -9.852  10.469  64.878  1.00  0.00    -0.379 C  
BRANCH  24  25
HETATM   25  C   UNL     1      -8.571   9.906  64.261  1.00  0.00    -0.199 C  
HETATM   26  C   UNL     1      -8.586  10.015  62.745  1.00  0.00    -0.196 C  
ENDBRANCH  24  25
ENDBRANCH  23  24
ENDBRANCH  22  23
ENDBRANCH  21  22
ENDBRANCH  20  21
ENDBRANCH  17  20
ENDBRANCH  15  17
ENDBRANCH   1  15
BRANCH   1  27
HETATM   27  C   UNL     1      -9.574  15.910  66.346  1.00  0.00    -0.287 C  
BRANCH  27  28
HETATM   28  N   UNL     1      -9.741  17.238  65.708  1.00  0.00    -0.544 NA 
HETATM   29  C   UNL     1      -8.476  18.002  65.820  1.00  0.00     0.345 C  
HETATM   30  C   UNL     1     -10.764  18.048  66.372  1.00  0.00    -0.127 C  
HETATM   31  C   UNL     1      -8.827  19.446  66.149  1.00  0.00    -0.301 C  
HETATM   32  C   UNL     1     -10.337  19.493  66.208  1.00  0.00    -0.601 C  
ENDBRANCH  27  28
ENDBRANCH   1  27
TORSDOF 12
ENDMDL
MODEL      349
REMARK 921   NORMALIZED FREE ENERGY PREDICTED BY IDOCK:   -2.56 KCAL/MOL
REMARK 922        TOTAL FREE ENERGY PREDICTED BY IDOCK:   -6.41 KCAL/MOL
REMARK 923 INTER-LIGAND FREE ENERGY PREDICTED BY IDOCK:   -5.88 KCAL/MOL
REMARK 924 INTRA-LIGAND FREE ENERGY PREDICTED BY IDOCK:   -0.53 KCAL/MOL
REMARK 927      BINDING AFFINITY PREDICTED BY RF-SCORE:    0.00 PKD
ROOT
HETATM    1  C   UNL     1     -12.634  12.084  70.331  1.00  0.00    -0.049 C  
ENDROOT
BRANCH   1   2
HETATM    2  C   UNL     1     -12.915  10.844  71.241  1.00  0.00    -0.392 C  
HETATM    3  O   UNL     1     -12.927  11.203  72.629  1.00  0.00    -0.079 OA 
HETATM    4  H   UNL     1     -13.097  10.449  73.183  1.00  0.00     0.000 HD 
BRANCH   2   5
HETATM    5  C   UNL     1     -11.963   9.674  70.980  1.00  0.00    -0.427 A  
HETATM    6  C   UNL     1      -8.934   7.744  68.025  1.00  0.00    -0.126 C  
HETATM    7  C   UNL     1     -10.658   8.370  69.388  1.00  0.00    -0.197 A  
HETATM    8  C   UNL     1     -11.344   8.953  72.019  1.00  0.00    -0.427 A  
HETATM    9  C   UNL     1     -10.061   7.655  70.428  1.00  0.00    -0.190 A  
HETATM   10  C   UNL     1      -8.781   6.480  68.857  1.00  0.00    -0.127 C  
HETATM   11  C   UNL     1     -11.630   9.338  69.653  1.00  0.00     0.234 A  
HETATM   12  O   UNL     1      -9.086   6.710  70.239  1.00  0.00    -0.154 OA 
HETATM   13  O   UNL     1     -10.290   8.202  68.076  1.00  0.00    -0.208 OA 
HETATM   14  C   UNL     1     -10.420   7.935  71.744  1.00  0.00    -0.272 A  
ENDBRANCH   2   5
ENDBRANCH   1   2
BRANCH   1  15
HETATM   15  N   UNL     1     -11.444  11.795  69.513  1.00  0.00    -0.331 NA 
HETATM   16  H   UNL     1     -10.795  11.100  69.882  1.00  0.00     0.000 HD 
BRANCH  15  17
HETATM   17  C   UNL     1     -11.140  12.320  68.394  1.00  0.00    -0.243 C  
HETATM   18  H   UNL     1     -11.757  12.970  66.560  1.00  0.00     0.000 HD 
HETATM   19  O   UNL     1     -11.985  12.578  67.396  1.00  0.00    -0.456 OA 
BRANCH  17  20
HETATM   20  C   UNL     1      -9.710  12.700  68.101  1.00  0.00    -0.219 C  
BRANCH  20  21
HETATM   21  C   UNL     1      -8.931  11.580  67.418  1.00  0.00    -0.156 C  
BRANCH  21  22
HETATM   22  C   UNL     1      -7.418  11.808  67.422  1.00  0.00    -0.143 C  
BRANCH  22  23
HETATM   23  C   UNL     1      -6.688  10.608  68.029  1.00  0.00    -0.064 C  
BRANCH  23  24
HETATM   24  C   UNL     1      -6.488  10.770  69.536  1.00  0.00    -0.089 C  
BRANCH  24  25
HETATM   25  C   UNL     1      -6.485   9.412  70.239  1.00  0.00    -0.064 C  
HETATM   26  C   UNL     1      -7.228   9.466  71.563  1.00  0.00     0.231 C  
ENDBRANCH  24  25
ENDBRANCH  23  24
ENDBRANCH  22  23
ENDBRANCH  21  22
ENDBRANCH  20  21
ENDBRANCH  17  20
ENDBRANCH  15  17
ENDBRANCH   1  15
BRANCH   1  27
HETATM   27  C   UNL     1     -12.271  13.429  71.052  1.00  0.00    -0.224 C  
BRANCH  27  28
HETATM   28  N   UNL     1     -13.105  13.999  72.138  1.00  0.00    -0.387 NA 
HETATM   29  C   UNL     1     -14.225  14.768  71.547  1.00  0.00    -0.493 C  
HETATM   30  C   UNL     1     -12.360  14.942  72.973  1.00  0.00    -0.342 C  
HETATM   31  C   UNL     1     -14.407  16.037  72.368  1.00  0.00     0.028 C  
HETATM   32  C   UNL     1     -13.366  15.965  73.461  1.00  0.00    -0.516 C  
ENDBRANCH  27  28
ENDBRANCH   1  27
TORSDOF 12
ENDMDL
MODEL      350
REMARK 921   NORMALIZED FREE ENERGY PREDICTED BY IDOCK:   -2.48 KCAL/MOL
REMARK 922        TOTAL FREE ENERGY PREDICTED BY IDOCK:   -6.28 KCAL/MOL
REMARK 923 INTER-LIGAND FREE ENERGY PREDICTED BY IDOCK:   -6.07 KCAL/MOL
REMARK 924 INTRA-LIGAND FREE ENERGY PREDICTED BY IDOCK:   -0.21 KCAL/MOL
REMARK 927      BINDING AFFINITY PREDICTED BY RF-SCORE:    0.00 PKD
ROOT
HETATM    1  C   UNL     1     -10.473  12.946  65.909  1.00  0.00    -0.279 C  
ENDROOT
BRANCH   1   2
HETATM    2  C   UNL     1     -10.943  12.018  64.741  1.00  0.00    -0.311 C  
HETATM    3  O   UNL     1     -12.133  11.297  65.089  1.00  0.00     0.283 OA 
HETATM    4  H   UNL     1     -12.419  10.733  64.379  1.00  0.00     0.000 HD 
BRANCH   2   5
HETATM    5  C   UNL     1      -9.848  11.072  64.241  1.00  0.00    -0.355 A  
HETATM    6  C   UNL     1      -7.943   6.844  64.584  1.00  0.00    -0.112 C  
HETATM    7  C   UNL     1      -8.529   9.052  64.582  1.00  0.00    -0.177 A  
HETATM    8  C   UNL     1      -9.287  11.174  62.953  1.00  0.00    -0.385 A  
HETATM    9  C   UNL     1      -7.973   9.172  63.308  1.00  0.00    -0.147 A  
HETATM   10  C   UNL     1      -6.782   7.187  63.665  1.00  0.00    -0.044 C  
HETATM   11  C   UNL     1      -9.423  10.012  65.065  1.00  0.00    -0.339 A  
HETATM   12  O   UNL     1      -7.109   8.256  62.767  1.00  0.00    -0.089 OA 
HETATM   13  O   UNL     1      -8.275   7.976  65.396  1.00  0.00    -0.136 OA 
HETATM   14  C   UNL     1      -8.338  10.246  62.501  1.00  0.00    -0.185 A  
ENDBRANCH   2   5
ENDBRANCH   1   2
BRANCH   1  15
HETATM   15  N   UNL     1     -10.334  12.124  67.123  1.00  0.00    -0.213 NA 
HETATM   16  H   UNL     1      -9.382  11.936  67.440  1.00  0.00     0.000 HD 
BRANCH  15  17
HETATM   17  C   UNL     1     -11.274  11.622  67.818  1.00  0.00    -0.268 C  
HETATM   18  H   UNL     1     -12.947  11.929  68.947  1.00  0.00     0.000 HD 
HETATM   19  O   UNL     1     -12.245  12.303  68.427  1.00  0.00    -0.282 OA 
BRANCH  17  20
HETATM   20  C   UNL     1     -11.353  10.129  68.020  1.00  0.00    -0.152 C  
BRANCH  20  21
HETATM   21  C   UNL     1     -11.369   9.734  69.493  1.00  0.00    -0.127 C  
BRANCH  21  22
HETATM   22  C   UNL     1     -10.335   8.662  69.842  1.00  0.00    -0.213 C  
BRANCH  22  23
HETATM   23  C   UNL     1      -9.377   9.162  70.926  1.00  0.00    -0.335 C  
BRANCH  23  24
HETATM   24  C   UNL     1      -7.983   9.442  70.366  1.00  0.00    -0.190 C  
BRANCH  24  25
HETATM   25  C   UNL     1      -8.065  10.201  69.041  1.00  0.00    -0.125 C  
HETATM   26  C   UNL     1      -6.860  11.104  68.839  1.00  0.00    -0.086 C  
ENDBRANCH  24  25
ENDBRANCH  23  24
ENDBRANCH  22  23
ENDBRANCH  21  22
ENDBRANCH  20  21
ENDBRANCH  17  20
ENDBRANCH  15  17
ENDBRANCH   1  15
BRANCH   1  27
HETATM   27  C   UNL     1     -11.453  14.090  66.347  1.00  0.00    -0.352 C  
BRANCH  27  28
HETATM   28  N   UNL     1     -10.989  15.472  66.620  1.00  0.00    -0.289 NA 
HETATM   29  C   UNL     1      -9.918  15.832  65.661  1.00  0.00    -0.345 C  
HETATM   30  C   UNL     1     -10.401  15.607  67.954  1.00  0.00    -0.259 C  
HETATM   31  C   UNL     1      -8.846  16.601  66.420  1.00  0.00    -0.337 C  
HETATM   32  C   UNL     1      -9.341  16.685  67.845  1.00  0.00    -0.221 C  
ENDBRANCH  27  28
ENDBRANCH   1  27
TORSDOF 12
ENDMDL
MODEL      351
REMARK 921   NORMALIZED FREE ENERGY PREDICTED BY IDOCK:   -2.36 KCAL/MOL
REMARK 922        TOTAL FREE ENERGY PREDICTED BY IDOCK:   -6.08 KCAL/MOL
REMARK 923 INTER-LIGAND FREE ENERGY PREDICTED BY IDOCK:   -5.18 KCAL/MOL
REMARK 924 INTRA-LIGAND FREE ENERGY PREDICTED BY IDOCK:   -0.90 KCAL/MOL
REMARK 927      BINDING AFFINITY PREDICTED BY RF-SCORE:    0.00 PKD
ROOT
HETATM    1  C   UNL     1      -9.972  12.221  66.288  1.00  0.00    -0.232 C  
ENDROOT
BRANCH   1   2
HETATM    2  C   UNL     1      -9.857  11.579  64.866  1.00  0.00    -0.252 C  
HETATM    3  O   UNL     1     -11.136  11.156  64.376  1.00  0.00    -0.279 OA 
HETATM    4  H   UNL     1     -11.067  10.766  63.511  1.00  0.00     0.000 HD 
BRANCH   2   5
HETATM    5  C   UNL     1      -8.833  10.443  64.795  1.00  0.00    -0.211 A  
HETATM    6  C   UNL     1      -5.645   7.967  67.105  1.00  0.00    -0.037 C  
HETATM    7  C   UNL     1      -6.893   9.330  65.760  1.00  0.00    -0.084 A  
HETATM    8  C   UNL     1      -8.954   9.368  63.894  1.00  0.00    -0.166 A  
HETATM    9  C   UNL     1      -7.017   8.277  64.853  1.00  0.00    -0.074 A  
HETATM   10  C   UNL     1      -5.188   7.218  65.864  1.00  0.00    -0.024 C  
HETATM   11  C   UNL     1      -7.761  10.424  65.708  1.00  0.00    -0.146 A  
HETATM   12  O   UNL     1      -6.214   7.165  64.864  1.00  0.00    -0.036 OA 
HETATM   13  O   UNL     1      -5.962   9.324  66.769  1.00  0.00    -0.057 OA 
HETATM   14  C   UNL     1      -8.037   8.307  63.907  1.00  0.00    -0.124 A  
ENDBRANCH   2   5
ENDBRANCH   1   2
BRANCH   1  15
HETATM   15  N   UNL     1      -9.953  11.137  67.285  1.00  0.00    -0.182 NA 
HETATM   16  H   UNL     1      -9.062  10.960  67.749  1.00  0.00     0.000 HD 
BRANCH  15  17
HETATM   17  C   UNL     1     -10.930  10.398  67.629  1.00  0.00    -0.312 C  
HETATM   18  H   UNL     1     -12.651  10.192  68.707  1.00  0.00     0.000 HD 
HETATM   19  O   UNL     1     -11.921  10.744  68.450  1.00  0.00    -0.508 OA 
BRANCH  17  20
HETATM   20  C   UNL     1     -11.033   8.987  67.105  1.00  0.00     0.096 C  
BRANCH  20  21
HETATM   21  C   UNL     1     -10.608   7.944  68.133  1.00  0.00    -0.179 C  
BRANCH  21  22
HETATM   22  C   UNL     1      -9.298   7.241  67.775  1.00  0.00    -0.134 C  
BRANCH  22  23
HETATM   23  C   UNL     1      -9.150   5.934  68.556  1.00  0.00    -0.111 C  
BRANCH  23  24
HETATM   24  C   UNL     1      -9.546   4.722  67.714  1.00  0.00    -0.194 C  
BRANCH  24  25
HETATM   25  C   UNL     1      -8.311   4.002  67.170  1.00  0.00    -0.099 C  
HETATM   26  C   UNL     1      -7.987   4.440  65.752  1.00  0.00    -0.095 C  
ENDBRANCH  24  25
ENDBRANCH  23  24
ENDBRANCH  22  23
ENDBRANCH  21  22
ENDBRANCH  20  21
ENDBRANCH  17  20
ENDBRANCH  15  17
ENDBRANCH   1  15
BRANCH   1  27
HETATM   27  C   UNL     1     -11.294  13.000  66.612  1.00  0.00    -0.325 C  
BRANCH  27  28
HETATM   28  N   UNL     1     -11.300  14.275  67.369  1.00  0.00    -0.316 NA 
HETATM   29  C   UNL     1      -9.906  14.670  67.681  1.00  0.00    -0.218 C  
HETATM   30  C   UNL     1     -11.986  14.154  68.656  1.00  0.00    -0.338 C  
HETATM   31  C   UNL     1      -9.879  15.212  69.103  1.00  0.00    -0.237 C  
HETATM   32  C   UNL     1     -11.305  15.131  69.594  1.00  0.00    -0.302 C  
ENDBRANCH  27  28
ENDBRANCH   1  27
TORSDOF 12
ENDMDL
MODEL      352
REMARK 921   NORMALIZED FREE ENERGY PREDICTED BY IDOCK:   -2.36 KCAL/MOL
REMARK 922        TOTAL FREE ENERGY PREDICTED BY IDOCK:   -6.07 KCAL/MOL
REMARK 923 INTER-LIGAND FREE ENERGY PREDICTED BY IDOCK:   -5.47 KCAL/MOL
REMARK 924 INTRA-LIGAND FREE ENERGY PREDICTED BY IDOCK:   -0.60 KCAL/MOL
REMARK 927      BINDING AFFINITY PREDICTED BY RF-SCORE:    0.00 PKD
ROOT
HETATM    1  C   UNL     1      -9.871  12.098  67.175  1.00  0.00    -0.197 C  
ENDROOT
BRANCH   1   2
HETATM    2  C   UNL     1      -9.435  11.445  65.822  1.00  0.00    -0.233 C  
HETATM    3  O   UNL     1     -10.567  11.149  64.992  1.00  0.00    -0.299 OA 
HETATM    4  H   UNL     1     -10.302  10.752  64.170  1.00  0.00     0.000 HD 
BRANCH   2   5
HETATM    5  C   UNL     1      -8.544  10.214  66.004  1.00  0.00    -0.150 A  
HETATM    6  C   UNL     1      -5.648   7.924  68.833  1.00  0.00    -0.030 C  
HETATM    7  C   UNL     1      -6.738   9.114  67.214  1.00  0.00    -0.069 A  
HETATM    8  C   UNL     1      -8.784   8.998  65.335  1.00  0.00    -0.221 A  
HETATM    9  C   UNL     1      -6.979   7.919  66.535  1.00  0.00    -0.071 A  
HETATM   10  C   UNL     1      -5.279   6.894  67.778  1.00  0.00    -0.012 C  
HETATM   11  C   UNL     1      -7.479  10.263  66.925  1.00  0.00    -0.101 A  
HETATM   12  O   UNL     1      -6.305   6.752  66.787  1.00  0.00    -0.039 OA 
HETATM   13  O   UNL     1      -5.812   9.211  68.224  1.00  0.00    -0.038 OA 
HETATM   14  C   UNL     1      -7.992   7.868  65.581  1.00  0.00    -0.116 A  
ENDBRANCH   2   5
ENDBRANCH   1   2
BRANCH   1  15
HETATM   15  N   UNL     1      -9.960  11.035  68.191  1.00  0.00    -0.172 NA 
HETATM   16  H   UNL     1      -9.141  10.903  68.785  1.00  0.00     0.000 HD 
BRANCH  15  17
HETATM   17  C   UNL     1     -10.950  10.265  68.406  1.00  0.00    -0.260 C  
HETATM   18  H   UNL     1     -12.778   9.995  69.275  1.00  0.00     0.000 HD 
HETATM   19  O   UNL     1     -12.038  10.570  69.114  1.00  0.00    -0.226 OA 
BRANCH  17  20
HETATM   20  C   UNL     1     -10.953   8.863  67.849  1.00  0.00     0.031 C  
BRANCH  20  21
HETATM   21  C   UNL     1     -10.765   7.801  68.927  1.00  0.00    -0.108 C  
BRANCH  21  22
HETATM   22  C   UNL     1      -9.358   7.795  69.530  1.00  0.00    -0.149 C  
BRANCH  22  23
HETATM   23  C   UNL     1      -9.341   7.051  70.866  1.00  0.00    -0.157 C  
BRANCH  23  24
HETATM   24  C   UNL     1     -10.433   5.985  70.936  1.00  0.00    -0.293 C  
BRANCH  24  25
HETATM   25  C   UNL     1      -9.956   4.668  70.323  1.00  0.00    -0.309 C  
HETATM   26  C   UNL     1      -8.932   3.978  71.207  1.00  0.00    -0.159 C  
ENDBRANCH  24  25
ENDBRANCH  23  24
ENDBRANCH  22  23
ENDBRANCH  21  22
ENDBRANCH  20  21
ENDBRANCH  17  20
ENDBRANCH  15  17
ENDBRANCH   1  15
BRANCH   1  27
HETATM   27  C   UNL     1     -11.288  12.770  67.216  1.00  0.00    -0.314 C  
BRANCH  27  28
HETATM   28  N   UNL     1     -11.592  14.028  66.492  1.00  0.00    -0.357 NA 
HETATM   29  C   UNL     1     -12.674  13.782  65.509  1.00  0.00    -0.488 C  
HETATM   30  C   UNL     1     -10.447  14.516  65.722  1.00  0.00    -0.323 C  
HETATM   31  C   UNL     1     -12.328  14.535  64.232  1.00  0.00    -0.396 C  
HETATM   32  C   UNL     1     -11.020  15.236  64.517  1.00  0.00    -0.212 C  
ENDBRANCH  27  28
ENDBRANCH   1  27
TORSDOF 12
ENDMDL
MODEL      353
REMARK 921   NORMALIZED FREE ENERGY PREDICTED BY IDOCK:   -2.22 KCAL/MOL
REMARK 922        TOTAL FREE ENERGY PREDICTED BY IDOCK:   -5.83 KCAL/MOL
REMARK 923 INTER-LIGAND FREE ENERGY PREDICTED BY IDOCK:   -5.90 KCAL/MOL
REMARK 924 INTRA-LIGAND FREE ENERGY PREDICTED BY IDOCK:    0.07 KCAL/MOL
REMARK 927      BINDING AFFINITY PREDICTED BY RF-SCORE:    0.00 PKD
ROOT
HETATM    1  C   UNL     1     -12.614  12.134  70.417  1.00  0.00    -0.032 C  
ENDROOT
BRANCH   1   2
HETATM    2  C   UNL     1     -12.810  10.940  71.409  1.00  0.00    -0.449 C  
HETATM    3  O   UNL     1     -12.808  11.385  72.772  1.00  0.00     0.420 OA 
HETATM    4  H   UNL     1     -12.927  10.660  73.376  1.00  0.00     0.000 HD 
BRANCH   2   5
HETATM    5  C   UNL     1     -11.806   9.804  71.195  1.00  0.00    -0.466 A  
HETATM    6  C   UNL     1      -8.667   7.910  68.334  1.00  0.00    -0.131 C  
HETATM    7  C   UNL     1     -10.431   8.506  69.660  1.00  0.00    -0.221 A  
HETATM    8  C   UNL     1     -11.169   9.144  72.263  1.00  0.00    -0.017 A  
HETATM    9  C   UNL     1      -9.815   7.851  70.728  1.00  0.00    -0.180 A  
HETATM   10  C   UNL     1      -8.470   6.682  69.208  1.00  0.00    -0.124 C  
HETATM   11  C   UNL     1     -11.446   9.440  69.883  1.00  0.00    -0.054 A  
HETATM   12  O   UNL     1      -8.799   6.943  70.579  1.00  0.00    -0.152 OA 
HETATM   13  O   UNL     1     -10.042   8.311  68.357  1.00  0.00    -0.189 OA 
HETATM   14  C   UNL     1     -10.200   8.158  72.030  1.00  0.00    -0.316 A  
ENDBRANCH   2   5
ENDBRANCH   1   2
BRANCH   1  15
HETATM   15  N   UNL     1     -11.480  11.815  69.532  1.00  0.00    -0.331 NA 
HETATM   16  H   UNL     1     -10.842  11.085  69.854  1.00  0.00     0.000 HD 
BRANCH  15  17
HETATM   17  C   UNL     1     -11.211  12.352  68.411  1.00  0.00    -0.273 C  
HETATM   18  H   UNL     1     -11.900  13.165  66.670  1.00  0.00     0.000 HD 
HETATM   19  O   UNL     1     -12.101  12.764  67.508  1.00  0.00    -0.359 OA 
BRANCH  17  20
HETATM   20  C   UNL     1      -9.775  12.561  67.997  1.00  0.00    -0.215 C  
BRANCH  20  21
HETATM   21  C   UNL     1      -9.084  13.657  68.802  1.00  0.00     0.058 C  
BRANCH  21  22
HETATM   22  C   UNL     1      -7.856  14.239  68.100  1.00  0.00    -0.139 C  
BRANCH  22  23
HETATM   23  C   UNL     1      -7.967  15.760  67.979  1.00  0.00    -0.141 C  
BRANCH  23  24
HETATM   24  C   UNL     1      -8.685  16.176  66.695  1.00  0.00    -0.300 C  
BRANCH  24  25
HETATM   25  C   UNL     1      -9.494  17.455  66.907  1.00  0.00    -0.275 C  
HETATM   26  C   UNL     1      -8.599  18.683  66.950  1.00  0.00    -0.284 C  
ENDBRANCH  24  25
ENDBRANCH  23  24
ENDBRANCH  22  23
ENDBRANCH  21  22
ENDBRANCH  20  21
ENDBRANCH  17  20
ENDBRANCH  15  17
ENDBRANCH   1  15
BRANCH   1  27
HETATM   27  C   UNL     1     -12.221  13.519  71.038  1.00  0.00    -0.262 C  
BRANCH  27  28
HETATM   28  N   UNL     1     -12.999  14.148  72.133  1.00  0.00    -0.365 NA 
HETATM   29  C   UNL     1     -14.135  14.908  71.558  1.00  0.00    -0.505 C  
HETATM   30  C   UNL     1     -12.207  15.116  72.893  1.00  0.00    -0.386 C  
HETATM   31  C   UNL     1     -14.264  16.213  72.329  1.00  0.00     0.346 C  
HETATM   32  C   UNL     1     -13.177  16.174  73.378  1.00  0.00    -0.563 C  
ENDBRANCH  27  28
ENDBRANCH   1  27
TORSDOF 12
ENDMDL
MODEL      354
REMARK 921   NORMALIZED FREE ENERGY PREDICTED BY IDOCK:   -2.20 KCAL/MOL
REMARK 922        TOTAL FREE ENERGY PREDICTED BY IDOCK:   -5.80 KCAL/MOL
REMARK 923 INTER-LIGAND FREE ENERGY PREDICTED BY IDOCK:   -5.12 KCAL/MOL
REMARK 924 INTRA-LIGAND FREE ENERGY PREDICTED BY IDOCK:   -0.68 KCAL/MOL
REMARK 927      BINDING AFFINITY PREDICTED BY RF-SCORE:    0.00 PKD
ROOT
HETATM    1  C   UNL     1     -10.237  12.693  65.726  1.00  0.00    -0.272 C  
ENDROOT
BRANCH   1   2
HETATM    2  C   UNL     1     -10.115  11.992  64.333  1.00  0.00    -0.271 C  
HETATM    3  O   UNL     1     -11.386  11.516  63.871  1.00  0.00    -0.386 OA 
HETATM    4  H   UNL     1     -11.312  11.090  63.025  1.00  0.00     0.000 HD 
BRANCH   2   5
HETATM    5  C   UNL     1      -9.064  10.879  64.306  1.00  0.00    -0.168 A  
HETATM    6  C   UNL     1      -5.803   8.586  66.701  1.00  0.00    -0.048 C  
HETATM    7  C   UNL     1      -7.091   9.857  65.306  1.00  0.00    -0.130 A  
HETATM    8  C   UNL     1      -9.162   9.763  63.453  1.00  0.00    -0.217 A  
HETATM    9  C   UNL     1      -7.194   8.762  64.447  1.00  0.00    -0.094 A  
HETATM   10  C   UNL     1      -5.334   7.794  65.491  1.00  0.00    -0.029 C  
HETATM   11  C   UNL     1      -7.986  10.926  65.212  1.00  0.00     0.094 A  
HETATM   12  O   UNL     1      -6.364   7.673  64.501  1.00  0.00    -0.044 OA 
HETATM   13  O   UNL     1      -6.154   9.918  66.308  1.00  0.00    -0.061 OA 
HETATM   14  C   UNL     1      -8.220   8.726  63.506  1.00  0.00    -0.164 A  
ENDBRANCH   2   5
ENDBRANCH   1   2
BRANCH   1  15
HETATM   15  N   UNL     1     -10.169  11.657  66.771  1.00  0.00    -0.213 NA 
HETATM   16  H   UNL     1      -9.273  11.547  67.247  1.00  0.00     0.000 HD 
BRANCH  15  17
HETATM   17  C   UNL     1     -11.108  10.883  67.143  1.00  0.00    -0.240 C  
HETATM   18  H   UNL     1     -12.825  10.637  68.219  1.00  0.00     0.000 HD 
HETATM   19  O   UNL     1     -12.123  11.214  67.941  1.00  0.00    -0.627 OA 
BRANCH  17  20
HETATM   20  C   UNL     1     -11.132   9.447  66.684  1.00  0.00     0.526 C  
BRANCH  20  21
HETATM   21  C   UNL     1     -10.755   8.469  67.792  1.00  0.00    -0.170 C  
BRANCH  21  22
HETATM   22  C   UNL     1      -9.395   7.803  67.573  1.00  0.00    -0.161 C  
BRANCH  22  23
HETATM   23  C   UNL     1      -9.062   6.851  68.723  1.00  0.00    -0.133 C  
BRANCH  23  24
HETATM   24  C   UNL     1      -8.919   7.594  70.051  1.00  0.00    -0.143 C  
BRANCH  24  25
HETATM   25  C   UNL     1     -10.181   7.448  70.902  1.00  0.00    -0.195 C  
HETATM   26  C   UNL     1     -10.446   8.696  71.727  1.00  0.00    -0.394 C  
ENDBRANCH  24  25
ENDBRANCH  23  24
ENDBRANCH  22  23
ENDBRANCH  21  22
ENDBRANCH  20  21
ENDBRANCH  17  20
ENDBRANCH  15  17
ENDBRANCH   1  15
BRANCH   1  27
HETATM   27  C   UNL     1     -11.583  13.439  66.032  1.00  0.00    -0.344 C  
BRANCH  27  28
HETATM   28  N   UNL     1     -11.622  14.783  66.656  1.00  0.00    -0.345 NA 
HETATM   29  C   UNL     1     -10.240  15.291  66.821  1.00  0.00    -0.272 C  
HETATM   30  C   UNL     1     -12.208  14.756  67.997  1.00  0.00     0.007 C  
HETATM   31  C   UNL     1     -10.151  15.979  68.176  1.00  0.00    -0.234 C  
HETATM   32  C   UNL     1     -11.532  15.864  68.779  1.00  0.00    -0.393 C  
ENDBRANCH  27  28
ENDBRANCH   1  27
TORSDOF 12
ENDMDL
MODEL      355
REMARK 921   NORMALIZED FREE ENERGY PREDICTED BY IDOCK:   -2.07 KCAL/MOL
REMARK 922        TOTAL FREE ENERGY PREDICTED BY IDOCK:   -5.57 KCAL/MOL
REMARK 923 INTER-LIGAND FREE ENERGY PREDICTED BY IDOCK:   -4.63 KCAL/MOL
REMARK 924 INTRA-LIGAND FREE ENERGY PREDICTED BY IDOCK:   -0.94 KCAL/MOL
REMARK 927      BINDING AFFINITY PREDICTED BY RF-SCORE:    0.00 PKD
ROOT
HETATM    1  C   UNL     1      -8.271   6.282  67.403  1.00  0.00    -0.109 C  
ENDROOT
BRANCH   1   2
HETATM    2  C   UNL     1      -7.603   7.323  68.361  1.00  0.00    -0.118 C  
HETATM    3  O   UNL     1      -6.569   6.721  69.151  1.00  0.00    -0.044 OA 
HETATM    4  H   UNL     1      -6.163   7.353  69.734  1.00  0.00     0.000 HD 
BRANCH   2   5
HETATM    5  C   UNL     1      -8.609   8.070  69.239  1.00  0.00    -0.137 A  
HETATM    6  C   UNL     1     -12.248  10.964  69.341  1.00  0.00    -0.222 C  
HETATM    7  C   UNL     1     -10.255   9.852  69.461  1.00  0.00    -0.225 A  
HETATM    8  C   UNL     1      -8.996   7.607  70.512  1.00  0.00    -0.151 A  
HETATM    9  C   UNL     1     -10.620   9.389  70.726  1.00  0.00    -0.303 A  
HETATM   10  C   UNL     1     -12.236  11.081  70.856  1.00  0.00    -0.367 C  
HETATM   11  C   UNL     1      -9.232   9.231  68.741  1.00  0.00    -0.136 A  
HETATM   12  O   UNL     1     -11.629   9.938  71.475  1.00  0.00    -0.373 OA 
HETATM   13  O   UNL     1     -10.906  10.892  68.844  1.00  0.00    -0.189 OA 
HETATM   14  C   UNL     1      -9.975   8.276  71.259  1.00  0.00    -0.243 A  
ENDBRANCH   2   5
ENDBRANCH   1   2
BRANCH   1  15
HETATM   15  N   UNL     1      -9.036   5.327  68.223  1.00  0.00    -0.109 NA 
HETATM   16  H   UNL     1      -9.627   5.725  68.954  1.00  0.00     0.000 HD 
BRANCH  15  17
HETATM   17  C   UNL     1      -9.040   4.059  68.116  1.00  0.00    -0.137 C  
HETATM   18  H   UNL     1      -9.433   2.419  66.966  1.00  0.00     0.000 HD 
HETATM   19  O   UNL     1      -9.430   3.366  67.046  1.00  0.00    -0.199 OA 
BRANCH  17  20
HETATM   20  C   UNL     1      -8.583   3.202  69.269  1.00  0.00    -0.112 C  
BRANCH  20  21
HETATM   21  C   UNL     1      -9.501   3.308  70.482  1.00  0.00    -0.242 C  
BRANCH  21  22
HETATM   22  C   UNL     1      -8.902   2.694  71.749  1.00  0.00    -0.120 C  
BRANCH  22  23
HETATM   23  C   UNL     1      -8.166   3.752  72.573  1.00  0.00    -0.089 C  
BRANCH  23  24
HETATM   24  C   UNL     1      -9.097   4.448  73.564  1.00  0.00    -0.107 C  
BRANCH  24  25
HETATM   25  C   UNL     1     -10.429   3.706  73.682  1.00  0.00    -0.262 C  
HETATM   26  C   UNL     1     -11.601   4.598  73.310  1.00  0.00    -0.274 C  
ENDBRANCH  24  25
ENDBRANCH  23  24
ENDBRANCH  22  23
ENDBRANCH  21  22
ENDBRANCH  20  21
ENDBRANCH  17  20
ENDBRANCH  15  17
ENDBRANCH   1  15
BRANCH   1  27
HETATM   27  C   UNL     1      -7.311   5.366  66.566  1.00  0.00    -0.086 C  
BRANCH  27  28
HETATM   28  N   UNL     1      -6.955   5.665  65.158  1.00  0.00    -0.061 NA 
HETATM   29  C   UNL     1      -7.883   6.689  64.621  1.00  0.00    -0.116 C  
HETATM   30  C   UNL     1      -7.094   4.495  64.289  1.00  0.00    -0.050 C  
HETATM   31  C   UNL     1      -8.238   6.298  63.193  1.00  0.00     0.002 C  
HETATM   32  C   UNL     1      -7.472   5.024  62.920  1.00  0.00    -0.049 C  
ENDBRANCH  27  28
ENDBRANCH   1  27
TORSDOF 12
ENDMDL
MODEL      356
REMARK 921   NORMALIZED FREE ENERGY PREDICTED BY IDOCK:   -1.70 KCAL/MOL
REMARK 922        TOTAL FREE ENERGY PREDICTED BY IDOCK:   -4.95 KCAL/MOL
REMARK 923 INTER-LIGAND FREE ENERGY PREDICTED BY IDOCK:   -3.96 KCAL/MOL
REMARK 924 INTRA-LIGAND FREE ENERGY PREDICTED BY IDOCK:   -0.99 KCAL/MOL
REMARK 927      BINDING AFFINITY PREDICTED BY RF-SCORE:    0.00 PKD
ROOT
HETATM    1  C   UNL     1      -8.316   6.400  67.454  1.00  0.00    -0.112 C  
ENDROOT
BRANCH   1   2
HETATM    2  C   UNL     1      -7.750   7.418  68.497  1.00  0.00    -0.120 C  
HETATM    3  O   UNL     1      -8.284   7.181  69.806  1.00  0.00    -0.127 OA 
HETATM    4  H   UNL     1      -7.941   7.800  70.441  1.00  0.00     0.000 HD 
BRANCH   2   5
HETATM    5  C   UNL     1      -7.936   8.879  68.079  1.00  0.00    -0.102 A  
HETATM    6  C   UNL     1     -10.828  12.042  66.272  1.00  0.00    -0.279 C  
HETATM    7  C   UNL     1      -9.197  10.535  66.813  1.00  0.00    -0.155 A  
HETATM    8  C   UNL     1      -7.221   9.936  68.674  1.00  0.00    -0.072 A  
HETATM    9  C   UNL     1      -8.472  11.572  67.402  1.00  0.00    -0.147 A  
HETATM   10  C   UNL     1      -9.762  13.123  66.211  1.00  0.00    -0.265 C  
HETATM   11  C   UNL     1      -8.908   9.201  67.111  1.00  0.00    -0.130 A  
HETATM   12  O   UNL     1      -8.719  12.900  67.170  1.00  0.00    -0.195 OA 
HETATM   13  O   UNL     1     -10.251  10.767  65.964  1.00  0.00    -0.239 OA 
HETATM   14  C   UNL     1      -7.469  11.269  68.319  1.00  0.00    -0.099 A  
ENDBRANCH   2   5
ENDBRANCH   1   2
BRANCH   1  15
HETATM   15  N   UNL     1      -9.308   5.549  68.133  1.00  0.00    -0.109 NA 
HETATM   16  H   UNL     1     -10.031   6.031  68.669  1.00  0.00     0.000 HD 
BRANCH  15  17
HETATM   17  C   UNL     1      -9.361   4.278  68.121  1.00  0.00    -0.152 C  
HETATM   18  H   UNL     1      -9.689   2.567  67.055  1.00  0.00     0.000 HD 
HETATM   19  O   UNL     1      -9.649   3.517  67.064  1.00  0.00    -0.204 OA 
BRANCH  17  20
HETATM   20  C   UNL     1      -9.094   3.498  69.384  1.00  0.00    -0.200 C  
BRANCH  20  21
HETATM   21  C   UNL     1     -10.033   3.882  70.523  1.00  0.00    -0.070 C  
BRANCH  21  22
HETATM   22  C   UNL     1      -9.723   3.154  71.832  1.00  0.00    -0.234 C  
BRANCH  22  23
HETATM   23  C   UNL     1      -8.841   4.013  72.739  1.00  0.00    -0.111 C  
BRANCH  23  24
HETATM   24  C   UNL     1      -9.669   4.810  73.746  1.00  0.00    -0.151 C  
BRANCH  24  25
HETATM   25  C   UNL     1      -8.819   5.880  74.433  1.00  0.00    -0.127 C  
HETATM   26  C   UNL     1      -7.968   6.645  73.433  1.00  0.00    -0.103 C  
ENDBRANCH  24  25
ENDBRANCH  23  24
ENDBRANCH  22  23
ENDBRANCH  21  22
ENDBRANCH  20  21
ENDBRANCH  17  20
ENDBRANCH  15  17
ENDBRANCH   1  15
BRANCH   1  27
HETATM   27  C   UNL     1      -7.302   5.370  66.842  1.00  0.00    -0.083 C  
BRANCH  27  28
HETATM   28  N   UNL     1      -6.995   5.323  65.392  1.00  0.00    -0.063 NA 
HETATM   29  C   UNL     1      -7.690   6.437  64.704  1.00  0.00    -0.107 C  
HETATM   30  C   UNL     1      -7.478   4.093  64.762  1.00  0.00    -0.073 C  
HETATM   31  C   UNL     1      -8.239   5.906  63.387  1.00  0.00    -0.052 C  
HETATM   32  C   UNL     1      -7.824   4.454  63.332  1.00  0.00    -0.076 C  
ENDBRANCH  27  28
ENDBRANCH   1  27
TORSDOF 12
ENDMDL
MODEL      357
REMARK 921   NORMALIZED FREE ENERGY PREDICTED BY IDOCK:   -0.92 KCAL/MOL
REMARK 922        TOTAL FREE ENERGY PREDICTED BY IDOCK:   -3.62 KCAL/MOL
REMARK 923 INTER-LIGAND FREE ENERGY PREDICTED BY IDOCK:   -3.12 KCAL/MOL
REMARK 924 INTRA-LIGAND FREE ENERGY PREDICTED BY IDOCK:   -0.50 KCAL/MOL
REMARK 927      BINDING AFFINITY PREDICTED BY RF-SCORE:    0.00 PKD
ROOT
HETATM    1  C   UNL     1      -8.784   3.814  70.823  1.00  0.00    -0.074 C  
ENDROOT
BRANCH   1   2
HETATM    2  C   UNL     1      -7.338   4.320  70.504  1.00  0.00    -0.048 C  
HETATM    3  O   UNL     1      -6.385   3.250  70.550  1.00  0.00    -0.025 OA 
HETATM    4  H   UNL     1      -5.507   3.557  70.356  1.00  0.00     0.000 HD 
BRANCH   2   5
HETATM    5  C   UNL     1      -6.899   5.492  71.386  1.00  0.00    -0.061 A  
HETATM    6  C   UNL     1      -5.675   9.977  71.523  1.00  0.00     0.041 C  
HETATM    7  C   UNL     1      -5.886   7.701  71.556  1.00  0.00    -0.035 A  
HETATM    8  C   UNL     1      -7.245   5.588  72.747  1.00  0.00    -0.090 A  
HETATM    9  C   UNL     1      -6.226   7.779  72.907  1.00  0.00    -0.063 A  
HETATM   10  C   UNL     1      -5.299   9.928  72.996  1.00  0.00     0.140 C  
HETATM   11  C   UNL     1      -6.178   6.556  70.810  1.00  0.00    -0.035 A  
HETATM   12  O   UNL     1      -5.989   8.880  73.689  1.00  0.00    -0.159 OA 
HETATM   13  O   UNL     1      -5.306   8.749  70.884  1.00  0.00    -0.027 OA 
HETATM   14  C   UNL     1      -6.889   6.711  73.507  1.00  0.00    -0.076 A  
ENDBRANCH   2   5
ENDBRANCH   1   2
BRANCH   1  15
HETATM   15  N   UNL     1      -8.989   2.535  70.121  1.00  0.00    -0.084 NA 
HETATM   16  H   UNL     1      -8.979   1.692  70.697  1.00  0.00     0.000 HD 
BRANCH  15  17
HETATM   17  C   UNL     1      -9.178   2.370  68.874  1.00  0.00    -0.152 C  
HETATM   18  H   UNL     1     -10.159   1.372  67.388  1.00  0.00     0.000 HD 
HETATM   19  O   UNL     1     -10.018   1.496  68.319  1.00  0.00    -0.013 OA 
BRANCH  17  20
HETATM   20  C   UNL     1      -8.408   3.198  67.876  1.00  0.00    -0.093 C  
BRANCH  20  21
HETATM   21  C   UNL     1      -8.780   2.878  66.432  1.00  0.00    -0.135 C  
BRANCH  21  22
HETATM   22  C   UNL     1      -9.725   3.907  65.809  1.00  0.00    -0.169 C  
BRANCH  22  23
HETATM   23  C   UNL     1      -8.984   5.209  65.498  1.00  0.00    -0.156 C  
BRANCH  23  24
HETATM   24  C   UNL     1      -7.635   4.948  64.830  1.00  0.00    -0.077 C  
BRANCH  24  25
HETATM   25  C   UNL     1      -7.596   5.538  63.420  1.00  0.00    -0.070 C  
HETATM   26  C   UNL     1      -8.767   5.055  62.580  1.00  0.00    -0.115 C  
ENDBRANCH  24  25
ENDBRANCH  23  24
ENDBRANCH  22  23
ENDBRANCH  21  22
ENDBRANCH  20  21
ENDBRANCH  17  20
ENDBRANCH  15  17
ENDBRANCH   1  15
BRANCH   1  27
HETATM   27  C   UNL     1      -9.975   4.705  70.327  1.00  0.00    -0.239 C  
BRANCH  27  28
HETATM   28  N   UNL     1     -10.197   6.084  70.825  1.00  0.00    -0.196 NA 
HETATM   29  C   UNL     1     -10.788   6.030  72.183  1.00  0.00    -0.251 C  
HETATM   30  C   UNL     1     -11.149   6.827  69.997  1.00  0.00    -0.315 C  
HETATM   31  C   UNL     1     -11.861   7.106  72.272  1.00  0.00    -0.278 C  
HETATM   32  C   UNL     1     -11.858   7.793  70.926  1.00  0.00    -0.257 C  
ENDBRANCH  27  28
ENDBRANCH   1  27
TORSDOF 12
ENDMDL
MODEL      358
REMARK 921   NORMALIZED FREE ENERGY PREDICTED BY IDOCK:   -0.64 KCAL/MOL
REMARK 922        TOTAL FREE ENERGY PREDICTED BY IDOCK:   -3.14 KCAL/MOL
REMARK 923 INTER-LIGAND FREE ENERGY PREDICTED BY IDOCK:   -2.64 KCAL/MOL
REMARK 924 INTRA-LIGAND FREE ENERGY PREDICTED BY IDOCK:   -0.50 KCAL/MOL
REMARK 927      BINDING AFFINITY PREDICTED BY RF-SCORE:    0.00 PKD
ROOT
HETATM    1  C   UNL     1      -8.750   4.170  70.971  1.00  0.00    -0.088 C  
ENDROOT
BRANCH   1   2
HETATM    2  C   UNL     1      -7.431   4.974  70.720  1.00  0.00    -0.069 C  
HETATM    3  O   UNL     1      -6.303   4.101  70.581  1.00  0.00    -0.021 OA 
HETATM    4  H   UNL     1      -5.501   4.589  70.429  1.00  0.00     0.000 HD 
BRANCH   2   5
HETATM    5  C   UNL     1      -7.170   6.052  71.775  1.00  0.00    -0.088 A  
HETATM    6  C   UNL     1      -5.535  10.326  72.609  1.00  0.00     0.398 C  
HETATM    7  C   UNL     1      -6.015   8.100  72.414  1.00  0.00    -0.049 A  
HETATM    8  C   UNL     1      -7.931   6.159  72.955  1.00  0.00    -0.108 A  
HETATM    9  C   UNL     1      -6.768   8.187  73.586  1.00  0.00    -0.120 A  
HETATM   10  C   UNL     1      -5.673  10.189  74.116  1.00  0.00     0.529 C  
HETATM   11  C   UNL     1      -6.179   7.024  71.537  1.00  0.00    -0.037 A  
HETATM   12  O   UNL     1      -6.673   9.225  74.476  1.00  0.00    -0.376 OA 
HETATM   13  O   UNL     1      -5.126   9.076  72.039  1.00  0.00    -0.039 OA 
HETATM   14  C   UNL     1      -7.713   7.203  73.865  1.00  0.00    -0.124 A  
ENDBRANCH   2   5
ENDBRANCH   1   2
BRANCH   1  15
HETATM   15  N   UNL     1      -8.772   3.023  70.048  1.00  0.00    -0.065 NA 
HETATM   16  H   UNL     1      -8.629   2.101  70.463  1.00  0.00     0.000 HD 
BRANCH  15  17
HETATM   17  C   UNL     1      -8.949   3.058  68.788  1.00  0.00    -0.135 C  
HETATM   18  H   UNL     1      -9.943   2.335  67.158  1.00  0.00     0.000 HD 
HETATM   19  O   UNL     1      -9.810   2.309  68.099  1.00  0.00    -0.006 OA 
BRANCH  17  20
HETATM   20  C   UNL     1      -8.138   4.002  67.936  1.00  0.00    -0.089 C  
BRANCH  20  21
HETATM   21  C   UNL     1      -9.004   4.850  67.010  1.00  0.00    -0.109 C  
BRANCH  21  22
HETATM   22  C   UNL     1      -8.616   6.331  67.009  1.00  0.00    -0.104 C  
BRANCH  22  23
HETATM   23  C   UNL     1      -9.363   7.089  65.910  1.00  0.00     0.067 C  
BRANCH  23  24
HETATM   24  C   UNL     1      -8.873   8.530  65.782  1.00  0.00    -0.229 C  
BRANCH  24  25
HETATM   25  C   UNL     1      -8.480   9.100  67.145  1.00  0.00    -0.120 C  
HETATM   26  C   UNL     1      -9.513  10.091  67.656  1.00  0.00    -0.163 C  
ENDBRANCH  24  25
ENDBRANCH  23  24
ENDBRANCH  22  23
ENDBRANCH  21  22
ENDBRANCH  20  21
ENDBRANCH  17  20
ENDBRANCH  15  17
ENDBRANCH   1  15
BRANCH   1  27
HETATM   27  C   UNL     1     -10.101   4.910  70.674  1.00  0.00    -0.236 C  
BRANCH  27  28
HETATM   28  N   UNL     1     -10.350   6.310  71.096  1.00  0.00    -0.204 NA 
HETATM   29  C   UNL     1     -11.518   6.350  72.008  1.00  0.00    -0.305 C  
HETATM   30  C   UNL     1     -10.686   7.179  69.967  1.00  0.00    -0.248 C  
HETATM   31  C   UNL     1     -12.351   7.572  71.650  1.00  0.00    -0.362 C  
HETATM   32  C   UNL     1     -11.617   8.243  70.512  1.00  0.00    -0.133 C  
ENDBRANCH  27  28
ENDBRANCH   1  27
TORSDOF 12
ENDMDL
MODEL      359
REMARK 921   NORMALIZED FREE ENERGY PREDICTED BY IDOCK:    0.61 KCAL/MOL
REMARK 922        TOTAL FREE ENERGY PREDICTED BY IDOCK:   -1.01 KCAL/MOL
REMARK 923 INTER-LIGAND FREE ENERGY PREDICTED BY IDOCK:   -3.14 KCAL/MOL
REMARK 924 INTRA-LIGAND FREE ENERGY PREDICTED BY IDOCK:    2.13 KCAL/MOL
REMARK 927      BINDING AFFINITY PREDICTED BY RF-SCORE:    0.00 PKD
ROOT
HETATM    1  C   UNL     1      -9.724   2.833  69.132  1.00  0.00     0.186 C  
ENDROOT
BRANCH   1   2
HETATM    2  C   UNL     1      -9.868   4.236  68.455  1.00  0.00    -0.044 C  
HETATM    3  O   UNL     1     -10.344   4.122  67.107  1.00  0.00    -0.131 OA 
HETATM    4  H   UNL     1     -10.432   4.975  66.696  1.00  0.00     0.000 HD 
BRANCH   2   5
HETATM    5  C   UNL     1      -8.589   5.075  68.523  1.00  0.00    -0.097 A  
HETATM    6  C   UNL     1      -6.605   9.175  67.586  1.00  0.00    -0.064 C  
HETATM    7  C   UNL     1      -7.332   7.016  67.755  1.00  0.00    -0.097 A  
HETATM    8  C   UNL     1      -7.594   4.863  69.495  1.00  0.00    -0.056 A  
HETATM    9  C   UNL     1      -6.347   6.787  68.716  1.00  0.00    -0.031 A  
HETATM   10  C   UNL     1      -5.216   8.703  67.982  1.00  0.00    -0.035 C  
HETATM   11  C   UNL     1      -8.420   6.148  67.626  1.00  0.00    -0.108 A  
HETATM   12  O   UNL     1      -5.268   7.610  68.910  1.00  0.00    -0.018 OA 
HETATM   13  O   UNL     1      -7.315   8.116  66.933  1.00  0.00    -0.084 OA 
HETATM   14  C   UNL     1      -6.470   5.697  69.574  1.00  0.00    -0.041 A  
ENDBRANCH   2   5
ENDBRANCH   1   2
BRANCH   1  15
HETATM   15  N   UNL     1      -9.822   3.014  70.591  1.00  0.00    -0.032 NA 
HETATM   16  H   UNL     1      -9.861   2.164  71.154  1.00  0.00     0.000 HD 
BRANCH  15  17
HETATM   17  C   UNL     1      -9.862   4.117  71.223  1.00  0.00    -0.179 C  
HETATM   18  H   UNL     1     -10.773   5.923  71.500  1.00  0.00     0.000 HD 
HETATM   19  O   UNL     1     -10.743   5.099  71.028  1.00  0.00    -0.179 OA 
BRANCH  17  20
HETATM   20  C   UNL     1      -8.844   4.412  72.296  1.00  0.00    -0.126 C  
BRANCH  20  21
HETATM   21  C   UNL     1      -9.294   5.515  73.248  1.00  0.00    -0.131 C  
BRANCH  21  22
HETATM   22  C   UNL     1      -8.291   6.666  73.356  1.00  0.00    -0.127 C  
BRANCH  22  23
HETATM   23  C   UNL     1      -8.980   8.012  73.129  1.00  0.00    -0.333 C  
BRANCH  23  24
HETATM   24  C   UNL     1     -10.363   7.843  72.502  1.00  0.00    -0.349 C  
BRANCH  24  25
HETATM   25  C   UNL     1     -10.784   9.105  71.749  1.00  0.00    -0.405 C  
HETATM   26  C   UNL     1     -11.987   8.848  70.856  1.00  0.00    -0.254 C  
ENDBRANCH  24  25
ENDBRANCH  23  24
ENDBRANCH  22  23
ENDBRANCH  21  22
ENDBRANCH  20  21
ENDBRANCH  17  20
ENDBRANCH  15  17
ENDBRANCH   1  15
BRANCH   1  27
HETATM   27  C   UNL     1      -8.357   2.089  68.942  1.00  0.00    -0.056 C  
BRANCH  27  28
HETATM   28  N   UNL     1      -7.785   1.806  67.603  1.00  0.00    -0.058 NA 
HETATM   29  C   UNL     1      -6.830   2.878  67.237  1.00  0.00    -0.045 C  
HETATM   30  C   UNL     1      -8.807   1.797  66.554  1.00  0.00    -0.117 C  
HETATM   31  C   UNL     1      -7.030   3.203  65.764  1.00  0.00    -0.053 C  
HETATM   32  C   UNL     1      -8.121   2.272  65.288  1.00  0.00    -0.080 C  
ENDBRANCH  27  28
ENDBRANCH   1  27
TORSDOF 12
ENDMDL
MODEL      360
REMARK 921   NORMALIZED FREE ENERGY PREDICTED BY IDOCK:    6.40 KCAL/MOL
REMARK 922        TOTAL FREE ENERGY PREDICTED BY IDOCK:    8.84 KCAL/MOL
REMARK 923 INTER-LIGAND FREE ENERGY PREDICTED BY IDOCK:    8.33 KCAL/MOL
REMARK 924 INTRA-LIGAND FREE ENERGY PREDICTED BY IDOCK:    0.51 KCAL/MOL
REMARK 927      BINDING AFFINITY PREDICTED BY RF-SCORE:    0.00 PKD
ROOT
HETATM    1  C   UNL     1      -9.178   8.561  69.945  1.00  0.00    -0.154 C  
ENDROOT
BRANCH   1   2
HETATM    2  C   UNL     1      -9.622   9.160  71.321  1.00  0.00    -0.261 C  
HETATM    3  O   UNL     1      -9.813   8.133  72.304  1.00  0.00    -0.209 OA 
HETATM    4  H   UNL     1     -10.082   8.497  73.140  1.00  0.00     0.000 HD 
BRANCH   2   5
HETATM    5  C   UNL     1     -10.853  10.064  71.218  1.00  0.00     0.043 A  
HETATM    6  C   UNL     1     -12.517  14.386  71.647  1.00  0.00    -0.352 C  
HETATM    7  C   UNL     1     -11.930  12.181  71.764  1.00  0.00     1.516 A  
HETATM    8  C   UNL     1     -11.937   9.776  70.367  1.00  0.00    -0.218 A  
HETATM    9  C   UNL     1     -13.004  11.877  70.926  1.00  0.00    -0.010 A  
HETATM   10  C   UNL     1     -13.959  13.955  71.433  1.00  0.00    -0.065 C  
HETATM   11  C   UNL     1     -10.885  11.270  71.946  1.00  0.00     6.060 A  
HETATM   12  O   UNL     1     -14.047  12.733  70.687  1.00  0.00     2.131 OA 
HETATM   13  O   UNL     1     -11.816  13.391  72.402  1.00  0.00     1.270 OA 
HETATM   14  C   UNL     1     -13.015  10.664  70.243  1.00  0.00    -0.128 A  
ENDBRANCH   2   5
ENDBRANCH   1   2
BRANCH   1  15
HETATM   15  N   UNL     1      -9.978   7.350  69.691  1.00  0.00    -0.179 NA 
HETATM   16  H   UNL     1     -10.828   7.241  70.245  1.00  0.00     0.000 HD 
BRANCH  15  17
HETATM   17  C   UNL     1      -9.723   6.427  68.853  1.00  0.00    -0.126 C  
HETATM   18  H   UNL     1     -10.251   4.631  68.040  1.00  0.00     0.000 HD 
HETATM   19  O   UNL     1     -10.443   5.321  68.665  1.00  0.00    -0.158 OA 
BRANCH  17  20
HETATM   20  C   UNL     1      -8.505   6.525  67.969  1.00  0.00    -0.119 C  
BRANCH  20  21
HETATM   21  C   UNL     1      -7.656   5.258  67.994  1.00  0.00    -0.080 C  
BRANCH  21  22
HETATM   22  C   UNL     1      -7.434   4.652  66.606  1.00  0.00    -0.086 C  
BRANCH  22  23
HETATM   23  C   UNL     1      -7.598   5.713  65.516  1.00  0.00    -0.083 C  
BRANCH  23  24
HETATM   24  C   UNL     1      -6.250   6.164  64.956  1.00  0.00    -0.030 C  
BRANCH  24  25
HETATM   25  C   UNL     1      -6.435   7.060  63.731  1.00  0.00    -0.043 C  
HETATM   26  C   UNL     1      -6.905   6.266  62.524  1.00  0.00    -0.038 C  
ENDBRANCH  24  25
ENDBRANCH  23  24
ENDBRANCH  22  23
ENDBRANCH  21  22
ENDBRANCH  20  21
ENDBRANCH  17  20
ENDBRANCH  15  17
ENDBRANCH   1  15
BRANCH   1  27
HETATM   27  C   UNL     1      -7.697   8.056  69.834  1.00  0.00    -0.099 C  
BRANCH  27  28
HETATM   28  N   UNL     1      -6.581   8.949  69.437  1.00  0.00    -0.044 NA 
HETATM   29  C   UNL     1      -7.129  10.161  68.783  1.00  0.00    -0.075 C  
HETATM   30  C   UNL     1      -5.692   8.325  68.457  1.00  0.00    -0.037 C  
HETATM   31  C   UNL     1      -6.236  10.498  67.597  1.00  0.00    -0.056 C  
HETATM   32  C   UNL     1      -5.148   9.449  67.599  1.00  0.00    -0.037 C  
ENDBRANCH  27  28
ENDBRANCH   1  27
TORSDOF 12
ENDMDL
MODEL      361
REMARK 921   NORMALIZED FREE ENERGY PREDICTED BY IDOCK:    7.54 KCAL/MOL
REMARK 922        TOTAL FREE ENERGY PREDICTED BY IDOCK:   10.78 KCAL/MOL
REMARK 923 INTER-LIGAND FREE ENERGY PREDICTED BY IDOCK:   10.68 KCAL/MOL
REMARK 924 INTRA-LIGAND FREE ENERGY PREDICTED BY IDOCK:    0.09 KCAL/MOL
REMARK 927      BINDING AFFINITY PREDICTED BY RF-SCORE:    0.00 PKD
ROOT
HETATM    1  C   UNL     1      -9.106   8.599  69.998  1.00  0.00    -0.156 C  
ENDROOT
BRANCH   1   2
HETATM    2  C   UNL     1      -9.296   9.207  71.426  1.00  0.00    -0.176 C  
HETATM    3  O   UNL     1      -9.018   8.241  72.449  1.00  0.00    -0.186 OA 
HETATM    4  H   UNL     1      -9.134   8.610  73.318  1.00  0.00     0.000 HD 
BRANCH   2   5
HETATM    5  C   UNL     1     -10.669   9.852  71.632  1.00  0.00     0.496 A  
HETATM    6  C   UNL     1     -13.007  13.800  72.392  1.00  0.00    -0.345 C  
HETATM    7  C   UNL     1     -11.976  11.760  72.397  1.00  0.00     3.462 A  
HETATM    8  C   UNL     1     -11.852   9.303  71.102  1.00  0.00    -0.396 A  
HETATM    9  C   UNL     1     -13.143  11.199  71.877  1.00  0.00    -0.408 A  
HETATM   10  C   UNL     1     -14.338  13.089  72.574  1.00  0.00     0.179 C  
HETATM   11  C   UNL     1     -10.758  11.080  72.317  1.00  0.00     7.867 A  
HETATM   12  O   UNL     1     -14.364  11.823  71.902  1.00  0.00     1.000 OA 
HETATM   13  O   UNL     1     -11.951  13.013  72.957  1.00  0.00     2.113 OA 
HETATM   14  C   UNL     1     -13.082   9.959  71.246  1.00  0.00    -0.487 A  
ENDBRANCH   2   5
ENDBRANCH   1   2
BRANCH   1  15
HETATM   15  N   UNL     1     -10.033   7.464  69.853  1.00  0.00    -0.186 NA 
HETATM   16  H   UNL     1     -10.844   7.456  70.473  1.00  0.00     0.000 HD 
BRANCH  15  17
HETATM   17  C   UNL     1      -9.932   6.494  69.036  1.00  0.00    -0.145 C  
HETATM   18  H   UNL     1      -8.855   4.890  68.376  1.00  0.00     0.000 HD 
HETATM   19  O   UNL     1      -8.930   5.615  68.986  1.00  0.00    -0.111 OA 
BRANCH  17  20
HETATM   20  C   UNL     1     -11.001   6.265  67.998  1.00  0.00    -0.418 C  
BRANCH  20  21
HETATM   21  C   UNL     1     -10.434   6.122  66.589  1.00  0.00    -0.267 C  
BRANCH  21  22
HETATM   22  C   UNL     1     -10.393   4.674  66.098  1.00  0.00    -0.310 C  
BRANCH  22  23
HETATM   23  C   UNL     1      -9.340   4.499  65.002  1.00  0.00    -0.157 C  
BRANCH  23  24
HETATM   24  C   UNL     1      -9.977   4.172  63.651  1.00  0.00    -0.087 C  
BRANCH  24  25
HETATM   25  C   UNL     1     -10.805   2.889  63.730  1.00  0.00    -0.093 C  
HETATM   26  C   UNL     1     -11.177   2.378  62.348  1.00  0.00    -0.159 C  
ENDBRANCH  24  25
ENDBRANCH  23  24
ENDBRANCH  22  23
ENDBRANCH  21  22
ENDBRANCH  20  21
ENDBRANCH  17  20
ENDBRANCH  15  17
ENDBRANCH   1  15
BRANCH   1  27
HETATM   27  C   UNL     1      -7.704   7.976  69.670  1.00  0.00    -0.102 C  
BRANCH  27  28
HETATM   28  N   UNL     1      -6.611   8.761  69.048  1.00  0.00    -0.047 NA 
HETATM   29  C   UNL     1      -5.790   9.392  70.109  1.00  0.00    -0.033 C  
HETATM   30  C   UNL     1      -7.116   9.857  68.220  1.00  0.00    -0.076 C  
HETATM   31  C   UNL     1      -5.446  10.805  69.658  1.00  0.00    -0.039 C  
HETATM   32  C   UNL     1      -6.081  10.961  68.296  1.00  0.00    -0.049 C  
ENDBRANCH  27  28
ENDBRANCH   1  27
TORSDOF 12
ENDMDL
MODEL      362
REMARK 921   NORMALIZED FREE ENERGY PREDICTED BY IDOCK:   37.72 KCAL/MOL
REMARK 922        TOTAL FREE ENERGY PREDICTED BY IDOCK:   62.12 KCAL/MOL
REMARK 923 INTER-LIGAND FREE ENERGY PREDICTED BY IDOCK:   61.47 KCAL/MOL
REMARK 924 INTRA-LIGAND FREE ENERGY PREDICTED BY IDOCK:    0.65 KCAL/MOL
REMARK 927      BINDING AFFINITY PREDICTED BY RF-SCORE:    0.00 PKD
ROOT
HETATM    1  C   UNL     1      -9.052   8.607  70.040  1.00  0.00    -0.156 C  
ENDROOT
BRANCH   1   2
HETATM    2  C   UNL     1      -8.853   9.023  71.535  1.00  0.00    -0.097 C  
HETATM    3  O   UNL     1      -8.676   7.878  72.380  1.00  0.00    -0.125 OA 
HETATM    4  H   UNL     1      -8.555   8.130  73.289  1.00  0.00     0.000 HD 
BRANCH   2   5
HETATM    5  C   UNL     1      -9.963   9.935  72.063  1.00  0.00     2.554 A  
HETATM    6  C   UNL     1     -11.040  14.135  73.745  1.00  0.00     3.383 C  
HETATM    7  C   UNL     1     -10.600  11.938  73.295  1.00  0.00    19.402 A  
HETATM    8  C   UNL     1     -11.310   9.790  71.679  1.00  0.00    -0.230 A  
HETATM    9  C   UNL     1     -11.933  11.776  72.916  1.00  0.00     6.238 A  
HETATM   10  C   UNL     1     -12.476  13.747  74.060  1.00  0.00     3.044 C  
HETATM   11  C   UNL     1      -9.629  11.008  72.912  1.00  0.00    16.451 A  
HETATM   12  O   UNL     1     -12.928  12.662  73.238  1.00  0.00     1.241 OA 
HETATM   13  O   UNL     1     -10.166  13.030  74.006  1.00  0.00    11.369 OA 
HETATM   14  C   UNL     1     -12.290  10.689  72.123  1.00  0.00     0.411 A  
ENDBRANCH   2   5
ENDBRANCH   1   2
BRANCH   1  15
HETATM   15  N   UNL     1     -10.180   7.662  69.972  1.00  0.00    -0.208 NA 
HETATM   16  H   UNL     1     -10.969   7.849  70.592  1.00  0.00     0.000 HD 
BRANCH  15  17
HETATM   17  C   UNL     1     -10.275   6.639  69.222  1.00  0.00    -0.183 C  
HETATM   18  H   UNL     1      -9.872   4.658  68.935  1.00  0.00     0.000 HD 
HETATM   19  O   UNL     1      -9.801   5.423  69.496  1.00  0.00    -0.162 OA 
BRANCH  17  20
HETATM   20  C   UNL     1     -10.965   6.742  67.885  1.00  0.00    -0.309 C  
BRANCH  20  21
HETATM   21  C   UNL     1     -10.123   6.183  66.743  1.00  0.00    -0.234 C  
BRANCH  21  22
HETATM   22  C   UNL     1      -9.434   4.862  67.091  1.00  0.00    -0.154 C  
BRANCH  22  23
HETATM   23  C   UNL     1      -8.891   4.183  65.832  1.00  0.00    -0.121 C  
BRANCH  23  24
HETATM   24  C   UNL     1      -8.767   2.670  66.013  1.00  0.00    -0.128 C  
BRANCH  24  25
HETATM   25  C   UNL     1      -7.550   2.125  65.265  1.00  0.00    -0.071 C  
HETATM   26  C   UNL     1      -6.679   3.246  64.722  1.00  0.00    -0.040 C  
ENDBRANCH  24  25
ENDBRANCH  23  24
ENDBRANCH  22  23
ENDBRANCH  21  22
ENDBRANCH  20  21
ENDBRANCH  17  20
ENDBRANCH  15  17
ENDBRANCH   1  15
BRANCH   1  27
HETATM   27  C   UNL     1      -7.875   7.829  69.356  1.00  0.00    -0.115 C  
BRANCH  27  28
HETATM   28  N   UNL     1      -7.045   8.427  68.281  1.00  0.00    -0.083 NA 
HETATM   29  C   UNL     1      -7.720   8.239  66.975  1.00  0.00    -0.096 C  
HETATM   30  C   UNL     1      -5.739   7.777  68.161  1.00  0.00    -0.032 C  
HETATM   31  C   UNL     1      -6.658   7.874  65.947  1.00  0.00    -0.049 C  
HETATM   32  C   UNL     1      -5.348   7.874  66.700  1.00  0.00    -0.028 C  
ENDBRANCH  27  28
ENDBRANCH   1  27
TORSDOF 12
ENDMDL
