MODEL        1
REMARK 921   NORMALIZED FREE ENERGY PREDICTED BY IDOCK:   -8.92 KCAL/MOL
REMARK 922        TOTAL FREE ENERGY PREDICTED BY IDOCK:  -12.83 KCAL/MOL
REMARK 923 INTER-LIGAND FREE ENERGY PREDICTED BY IDOCK:  -11.53 KCAL/MOL
REMARK 924 INTRA-LIGAND FREE ENERGY PREDICTED BY IDOCK:   -1.30 KCAL/MOL
REMARK 927      BINDING AFFINITY PREDICTED BY RF-SCORE:    0.00 PKD
ROOT
HETATM    1  C   UNL     1     -12.044  14.440  64.451  1.00  0.00    -0.491 C  
HETATM    2  C   UNL     1     -11.335  15.288  65.441  1.00  0.00    -0.253 C  
HETATM    3  N   UNL     1     -10.537  16.288  65.203  1.00  0.00    -0.638 NA 
HETATM    4  N   UNL     1     -10.123  16.794  66.452  1.00  0.00    -0.304 N  
HETATM    5  O   UNL     1     -10.563  16.249  68.754  1.00  0.00    -0.261 OA 
HETATM    6  C   UNL     1     -10.657  16.132  67.548  1.00  0.00    -0.314 C  
HETATM    7  C   UNL     1     -11.470  15.066  66.901  1.00  0.00    -0.263 C  
ENDROOT
BRANCH   4   8
HETATM    8  C   UNL     1      -9.199  17.864  66.491  1.00  0.00    -0.273 A  
HETATM    9  C   UNL     1      -9.595  19.138  66.903  1.00  0.00    -0.379 A  
HETATM   10  C   UNL     1      -8.684  20.192  66.970  1.00  0.00    -0.420 A  
HETATM   11  C   UNL     1      -7.857  17.675  66.133  1.00  0.00    -0.269 A  
HETATM   12  C   UNL     1      -5.499  18.428  65.798  1.00  0.00    -0.214 C  
HETATM   13  C   UNL     1      -6.921  18.729  66.191  1.00  0.00    -0.285 A  
HETATM   14  C   UNL     1      -7.341  20.001  66.620  1.00  0.00    -0.287 A  
HETATM   15  C   UNL     1      -6.408  21.176  66.707  1.00  0.00    -0.385 C  
ENDBRANCH   4   8
BRANCH   7  16
HETATM   16  N   UNL     1     -12.154  14.107  67.442  1.00  0.00    -0.538 NA 
HETATM   17  H   UNL     1     -13.154  14.001  67.273  1.00  0.00     0.000 HD 
BRANCH  16  18
HETATM   18  N   UNL     1     -11.466  13.246  68.248  1.00  0.00    -0.294 NA 
HETATM   19  H   UNL     1     -10.546  12.911  67.964  1.00  0.00     0.000 HD 
BRANCH  18  20
HETATM   20  C   UNL     1     -12.023  12.817  69.473  1.00  0.00    -0.276 A  
HETATM   21  C   UNL     1     -12.303  11.460  69.727  1.00  0.00    -0.184 A  
HETATM   22  C   UNL     1     -12.774  10.991  70.970  1.00  0.00    -0.485 A  
HETATM   23  O   UNL     1     -12.098  10.557  68.704  1.00  0.00    -0.775 OA 
HETATM   24  C   UNL     1     -12.314  13.742  70.478  1.00  0.00    -0.429 A  
HETATM   25  C   UNL     1     -13.083  11.959  71.937  1.00  0.00    -0.474 A  
HETATM   26  H   UNL     1     -12.288   9.642  68.875  1.00  0.00     0.000 HD 
HETATM   27  C   UNL     1     -12.862  13.319  71.693  1.00  0.00    -0.397 A  
BRANCH  22  28
HETATM   28  C   UNL     1     -12.811   9.548  71.284  1.00  0.00    -0.414 A  
HETATM   29  C   UNL     1     -13.940   8.741  71.084  1.00  0.00    -0.120 A  
HETATM   30  C   UNL     1     -13.933   7.391  71.460  1.00  0.00    -0.517 A  
HETATM   31  C   UNL     1     -12.784   6.814  72.006  1.00  0.00    -0.230 A  
HETATM   32  C   UNL     1     -11.641   7.592  72.181  1.00  0.00    -0.340 A  
HETATM   33  C   UNL     1     -11.679   8.949  71.869  1.00  0.00    -0.439 A  
HETATM   34  C   UNL     1     -10.410   6.979  72.732  1.00  0.00    -0.222 C  
HETATM   35  O   UNL     1      -9.271   7.498  72.215  1.00  0.00    -0.132 OA 
HETATM   36  O   UNL     1     -10.426   6.075  73.540  1.00  0.00    -0.228 OA 
ENDBRANCH  22  28
ENDBRANCH  18  20
ENDBRANCH  16  18
ENDBRANCH   7  16
TORSDOF 5
ENDMDL
MODEL        2
REMARK 921   NORMALIZED FREE ENERGY PREDICTED BY IDOCK:   -8.60 KCAL/MOL
REMARK 922        TOTAL FREE ENERGY PREDICTED BY IDOCK:  -12.42 KCAL/MOL
REMARK 923 INTER-LIGAND FREE ENERGY PREDICTED BY IDOCK:  -10.65 KCAL/MOL
REMARK 924 INTRA-LIGAND FREE ENERGY PREDICTED BY IDOCK:   -1.77 KCAL/MOL
REMARK 927      BINDING AFFINITY PREDICTED BY RF-SCORE:    0.00 PKD
ROOT
HETATM    1  C   UNL     1     -14.330   7.346  71.670  1.00  0.00    -0.614 C  
HETATM    2  C   UNL     1     -12.862   7.550  71.624  1.00  0.00    -0.358 C  
HETATM    3  N   UNL     1     -11.930   6.680  71.886  1.00  0.00    -0.331 NA 
HETATM    4  N   UNL     1     -10.693   7.324  71.687  1.00  0.00    -0.215 N  
HETATM    5  O   UNL     1      -9.995   9.522  71.001  1.00  0.00    -0.278 OA 
HETATM    6  C   UNL     1     -10.791   8.645  71.276  1.00  0.00    -0.260 C  
HETATM    7  C   UNL     1     -12.264   8.855  71.251  1.00  0.00    -0.299 C  
ENDROOT
BRANCH   4   8
HETATM    8  C   UNL     1      -9.496   6.619  71.954  1.00  0.00    -0.150 A  
HETATM    9  C   UNL     1      -9.060   6.419  73.266  1.00  0.00    -0.135 A  
HETATM   10  C   UNL     1      -7.895   5.703  73.539  1.00  0.00    -0.106 A  
HETATM   11  C   UNL     1      -8.720   6.089  70.914  1.00  0.00    -0.135 A  
HETATM   12  C   UNL     1      -6.777   4.821  69.989  1.00  0.00    -0.037 C  
HETATM   13  C   UNL     1      -7.538   5.364  71.170  1.00  0.00    -0.097 A  
HETATM   14  C   UNL     1      -7.124   5.165  72.500  1.00  0.00    -0.086 A  
HETATM   15  C   UNL     1      -5.877   4.408  72.856  1.00  0.00    -0.012 C  
ENDBRANCH   4   8
BRANCH   7  16
HETATM   16  N   UNL     1     -12.940   9.929  70.991  1.00  0.00    -0.474 NA 
HETATM   17  H   UNL     1     -13.529  10.004  70.162  1.00  0.00     0.000 HD 
BRANCH  16  18
HETATM   18  N   UNL     1     -12.824  10.955  71.885  1.00  0.00    -0.396 NA 
HETATM   19  H   UNL     1     -12.719  10.753  72.878  1.00  0.00     0.000 HD 
BRANCH  18  20
HETATM   20  C   UNL     1     -12.850  12.295  71.439  1.00  0.00    -0.271 A  
HETATM   21  C   UNL     1     -12.080  12.730  70.343  1.00  0.00    -0.302 A  
HETATM   22  C   UNL     1     -12.153  14.036  69.821  1.00  0.00    -0.405 A  
HETATM   23  O   UNL     1     -11.220  11.821  69.759  1.00  0.00    -0.440 OA 
HETATM   24  C   UNL     1     -13.653  13.238  72.086  1.00  0.00    -0.655 A  
HETATM   25  C   UNL     1     -12.946  14.957  70.522  1.00  0.00    -0.339 A  
HETATM   26  H   UNL     1     -10.701  12.114  69.020  1.00  0.00     0.000 HD 
HETATM   27  C   UNL     1     -13.683  14.564  71.645  1.00  0.00    -0.486 A  
BRANCH  22  28
HETATM   28  C   UNL     1     -11.534  14.383  68.524  1.00  0.00    -0.326 A  
HETATM   29  C   UNL     1     -10.295  15.030  68.407  1.00  0.00    -0.231 A  
HETATM   30  C   UNL     1      -9.788  15.388  67.150  1.00  0.00    -0.221 A  
HETATM   31  C   UNL     1     -10.493  15.070  65.987  1.00  0.00    -0.326 A  
HETATM   32  C   UNL     1     -11.709  14.397  66.082  1.00  0.00    -0.384 A  
HETATM   33  C   UNL     1     -12.238  14.107  67.338  1.00  0.00    -0.278 A  
HETATM   34  C   UNL     1     -12.447  14.030  64.850  1.00  0.00    -0.396 C  
HETATM   35  O   UNL     1     -13.119  12.859  64.952  1.00  0.00    -0.799 OA 
HETATM   36  O   UNL     1     -12.420  14.700  63.839  1.00  0.00    -0.813 OA 
ENDBRANCH  22  28
ENDBRANCH  18  20
ENDBRANCH  16  18
ENDBRANCH   7  16
TORSDOF 5
ENDMDL
MODEL        3
REMARK 921   NORMALIZED FREE ENERGY PREDICTED BY IDOCK:   -8.56 KCAL/MOL
REMARK 922        TOTAL FREE ENERGY PREDICTED BY IDOCK:  -12.36 KCAL/MOL
REMARK 923 INTER-LIGAND FREE ENERGY PREDICTED BY IDOCK:  -10.91 KCAL/MOL
REMARK 924 INTRA-LIGAND FREE ENERGY PREDICTED BY IDOCK:   -1.45 KCAL/MOL
REMARK 927      BINDING AFFINITY PREDICTED BY RF-SCORE:    0.00 PKD
ROOT
HETATM    1  C   UNL     1     -13.642  13.546  71.974  1.00  0.00    -0.589 C  
HETATM    2  C   UNL     1     -12.902  12.343  71.523  1.00  0.00    -0.274 C  
HETATM    3  N   UNL     1     -12.914  11.156  72.057  1.00  0.00    -0.394 NA 
HETATM    4  N   UNL     1     -12.076  10.339  71.271  1.00  0.00    -0.377 N  
HETATM    5  O   UNL     1     -10.742  10.651  69.293  1.00  0.00    -0.209 OA 
HETATM    6  C   UNL     1     -11.497  10.982  70.187  1.00  0.00    -0.296 C  
HETATM    7  C   UNL     1     -12.009  12.371  70.339  1.00  0.00    -0.257 C  
ENDROOT
BRANCH   4   8
HETATM    8  C   UNL     1     -11.862   8.995  71.658  1.00  0.00    -0.360 A  
HETATM    9  C   UNL     1     -12.848   8.027  71.460  1.00  0.00    -0.331 A  
HETATM   10  C   UNL     1     -12.635   6.695  71.815  1.00  0.00    -0.323 A  
HETATM   11  C   UNL     1     -10.650   8.593  72.237  1.00  0.00    -0.375 A  
HETATM   12  C   UNL     1      -9.080   6.911  73.209  1.00  0.00    -0.158 C  
HETATM   13  C   UNL     1     -10.417   7.252  72.605  1.00  0.00    -0.285 A  
HETATM   14  C   UNL     1     -11.421   6.291  72.386  1.00  0.00    -0.335 A  
HETATM   15  C   UNL     1     -11.252   4.844  72.751  1.00  0.00    -0.260 C  
ENDBRANCH   4   8
BRANCH   7  16
HETATM   16  N   UNL     1     -11.750  13.428  69.635  1.00  0.00    -0.341 NA 
HETATM   17  H   UNL     1     -11.272  14.234  70.036  1.00  0.00     0.000 HD 
BRANCH  16  18
HETATM   18  N   UNL     1     -12.150  13.405  68.330  1.00  0.00    -0.307 NA 
HETATM   19  H   UNL     1     -12.975  12.870  68.061  1.00  0.00     0.000 HD 
BRANCH  18  20
HETATM   20  C   UNL     1     -11.426  14.119  67.349  1.00  0.00    -0.345 A  
HETATM   21  C   UNL     1     -11.178  15.500  67.467  1.00  0.00    -0.272 A  
HETATM   22  C   UNL     1     -10.384  16.221  66.553  1.00  0.00    -0.310 A  
HETATM   23  O   UNL     1     -11.740  16.167  68.538  1.00  0.00    -0.348 OA 
HETATM   24  C   UNL     1     -10.932  13.462  66.220  1.00  0.00    -0.296 A  
HETATM   25  C   UNL     1      -9.938  15.528  65.418  1.00  0.00    -0.339 A  
HETATM   26  H   UNL     1     -11.573  17.099  68.617  1.00  0.00     0.000 HD 
HETATM   27  C   UNL     1     -10.212  14.166  65.250  1.00  0.00    -0.400 A  
BRANCH  22  28
HETATM   28  C   UNL     1      -9.933  17.598  66.843  1.00  0.00    -0.323 A  
HETATM   29  C   UNL     1     -10.647  18.743  66.460  1.00  0.00    -0.436 A  
HETATM   30  C   UNL     1     -10.136  20.024  66.710  1.00  0.00    -0.607 A  
HETATM   31  C   UNL     1      -8.922  20.183  67.381  1.00  0.00    -0.453 A  
HETATM   32  C   UNL     1      -8.215  19.058  67.800  1.00  0.00    -0.305 A  
HETATM   33  C   UNL     1      -8.696  17.788  67.486  1.00  0.00    -0.239 A  
HETATM   34  C   UNL     1      -6.941  19.220  68.539  1.00  0.00    -0.294 C  
HETATM   35  O   UNL     1      -6.734  18.262  69.474  1.00  0.00    -0.216 OA 
HETATM   36  O   UNL     1      -6.178  20.143  68.347  1.00  0.00    -0.258 OA 
ENDBRANCH  22  28
ENDBRANCH  18  20
ENDBRANCH  16  18
ENDBRANCH   7  16
TORSDOF 5
ENDMDL
MODEL        4
REMARK 921   NORMALIZED FREE ENERGY PREDICTED BY IDOCK:   -8.55 KCAL/MOL
REMARK 922        TOTAL FREE ENERGY PREDICTED BY IDOCK:  -12.35 KCAL/MOL
REMARK 923 INTER-LIGAND FREE ENERGY PREDICTED BY IDOCK:  -10.64 KCAL/MOL
REMARK 924 INTRA-LIGAND FREE ENERGY PREDICTED BY IDOCK:   -1.71 KCAL/MOL
REMARK 927      BINDING AFFINITY PREDICTED BY RF-SCORE:    0.00 PKD
ROOT
HETATM    1  C   UNL     1     -11.988  13.723  69.663  1.00  0.00    -0.399 C  
HETATM    2  C   UNL     1     -11.378  14.428  68.508  1.00  0.00    -0.282 C  
HETATM    3  N   UNL     1     -10.593  15.466  68.535  1.00  0.00    -0.235 NA 
HETATM    4  N   UNL     1     -10.254  15.764  67.201  1.00  0.00    -0.273 N  
HETATM    5  O   UNL     1     -10.767  14.818  65.048  1.00  0.00    -0.380 OA 
HETATM    6  C   UNL     1     -10.810  14.910  66.260  1.00  0.00    -0.331 C  
HETATM    7  C   UNL     1     -11.618  13.995  67.110  1.00  0.00    -0.372 C  
ENDROOT
BRANCH   4   8
HETATM    8  C   UNL     1      -9.443  16.891  66.929  1.00  0.00    -0.251 A  
HETATM    9  C   UNL     1      -8.184  16.744  66.343  1.00  0.00    -0.349 A  
HETATM   10  C   UNL     1      -7.390  17.852  66.049  1.00  0.00    -0.306 A  
HETATM   11  C   UNL     1      -9.883  18.188  67.228  1.00  0.00    -0.316 A  
HETATM   12  C   UNL     1      -9.655  20.675  67.285  1.00  0.00    -0.558 C  
HETATM   13  C   UNL     1      -9.094  19.321  66.940  1.00  0.00    -0.358 A  
HETATM   14  C   UNL     1      -7.834  19.149  66.338  1.00  0.00    -0.296 A  
HETATM   15  C   UNL     1      -6.932  20.302  66.003  1.00  0.00    -0.295 C  
ENDBRANCH   4   8
BRANCH   7  16
HETATM   16  N   UNL     1     -12.403  13.024  66.763  1.00  0.00    -0.354 NA 
HETATM   17  H   UNL     1     -13.337  12.922  67.160  1.00  0.00     0.000 HD 
BRANCH  16  18
HETATM   18  N   UNL     1     -11.915  12.145  65.840  1.00  0.00    -0.571 NA 
HETATM   19  H   UNL     1     -12.284  12.152  64.889  1.00  0.00     0.000 HD 
BRANCH  18  20
HETATM   20  C   UNL     1     -10.904  11.225  66.194  1.00  0.00    -0.222 A  
HETATM   21  C   UNL     1     -11.033  10.369  67.306  1.00  0.00    -0.240 A  
HETATM   22  C   UNL     1     -10.083   9.381  67.632  1.00  0.00    -0.262 A  
HETATM   23  O   UNL     1     -12.151  10.513  68.104  1.00  0.00    -0.756 OA 
HETATM   24  C   UNL     1      -9.732  11.140  65.440  1.00  0.00    -0.275 A  
HETATM   25  C   UNL     1      -8.908   9.355  66.867  1.00  0.00    -0.141 A  
HETATM   26  H   UNL     1     -12.238   9.937  68.853  1.00  0.00     0.000 HD 
HETATM   27  C   UNL     1      -8.731  10.228  65.787  1.00  0.00    -0.169 A  
BRANCH  22  28
HETATM   28  C   UNL     1     -10.370   8.339  68.640  1.00  0.00    -0.225 A  
HETATM   29  C   UNL     1     -10.867   7.068  68.317  1.00  0.00    -0.198 A  
HETATM   30  C   UNL     1     -11.179   6.143  69.323  1.00  0.00    -0.438 A  
HETATM   31  C   UNL     1     -10.961   6.459  70.666  1.00  0.00    -0.355 A  
HETATM   32  C   UNL     1     -10.436   7.704  71.004  1.00  0.00    -0.218 A  
HETATM   33  C   UNL     1     -10.194   8.643  70.002  1.00  0.00    -0.201 A  
HETATM   34  C   UNL     1     -10.175   8.034  72.425  1.00  0.00    -0.280 C  
HETATM   35  O   UNL     1      -9.091   8.825  72.605  1.00  0.00    -0.354 OA 
HETATM   36  O   UNL     1     -10.849   7.606  73.338  1.00  0.00    -0.380 OA 
ENDBRANCH  22  28
ENDBRANCH  18  20
ENDBRANCH  16  18
ENDBRANCH   7  16
TORSDOF 5
ENDMDL
MODEL        5
REMARK 921   NORMALIZED FREE ENERGY PREDICTED BY IDOCK:   -8.54 KCAL/MOL
REMARK 922        TOTAL FREE ENERGY PREDICTED BY IDOCK:  -12.34 KCAL/MOL
REMARK 923 INTER-LIGAND FREE ENERGY PREDICTED BY IDOCK:  -11.35 KCAL/MOL
REMARK 924 INTRA-LIGAND FREE ENERGY PREDICTED BY IDOCK:   -0.98 KCAL/MOL
REMARK 927      BINDING AFFINITY PREDICTED BY RF-SCORE:    0.00 PKD
ROOT
HETATM    1  C   UNL     1     -14.014  15.126  72.424  1.00  0.00    -0.616 C  
HETATM    2  C   UNL     1     -13.394  13.952  71.763  1.00  0.00    -0.381 C  
HETATM    3  N   UNL     1     -13.398  12.716  72.172  1.00  0.00    -0.523 NA 
HETATM    4  N   UNL     1     -12.704  11.958  71.208  1.00  0.00    -0.356 N  
HETATM    5  O   UNL     1     -11.610  12.429  69.118  1.00  0.00    -0.274 OA 
HETATM    6  C   UNL     1     -12.232  12.690  70.129  1.00  0.00    -0.238 C  
HETATM    7  C   UNL     1     -12.653  14.073  70.484  1.00  0.00    -0.329 C  
ENDROOT
BRANCH   4   8
HETATM    8  C   UNL     1     -12.509  10.574  71.428  1.00  0.00    -0.411 A  
HETATM    9  C   UNL     1     -13.513   9.792  72.004  1.00  0.00    -0.498 A  
HETATM   10  C   UNL     1     -13.338   8.422  72.200  1.00  0.00    -0.341 A  
HETATM   11  C   UNL     1     -11.312   9.944  71.061  1.00  0.00    -0.460 A  
HETATM   12  C   UNL     1      -9.801   7.970  70.817  1.00  0.00    -0.197 C  
HETATM   13  C   UNL     1     -11.115   8.560  71.253  1.00  0.00    -0.320 A  
HETATM   14  C   UNL     1     -12.145   7.791  71.826  1.00  0.00    -0.332 A  
HETATM   15  C   UNL     1     -12.014   6.314  72.066  1.00  0.00    -0.353 C  
ENDBRANCH   4   8
BRANCH   7  16
HETATM   16  N   UNL     1     -12.432  15.188  69.862  1.00  0.00    -0.552 NA 
HETATM   17  H   UNL     1     -12.284  16.062  70.366  1.00  0.00     0.000 HD 
BRANCH  16  18
HETATM   18  N   UNL     1     -12.407  15.133  68.498  1.00  0.00    -0.544 NA 
HETATM   19  H   UNL     1     -13.248  14.869  67.986  1.00  0.00     0.000 HD 
BRANCH  18  20
HETATM   20  C   UNL     1     -11.222  15.438  67.793  1.00  0.00    -0.321 A  
HETATM   21  C   UNL     1     -10.184  16.192  68.375  1.00  0.00    -0.240 A  
HETATM   22  C   UNL     1      -8.955  16.437  67.730  1.00  0.00    -0.198 A  
HETATM   23  O   UNL     1     -10.392  16.707  69.640  1.00  0.00    -0.270 OA 
HETATM   24  C   UNL     1     -11.048  14.993  66.481  1.00  0.00    -0.329 A  
HETATM   25  C   UNL     1      -8.838  16.000  66.402  1.00  0.00    -0.363 A  
HETATM   26  H   UNL     1      -9.692  17.215  70.031  1.00  0.00     0.000 HD 
HETATM   27  C   UNL     1      -9.874  15.292  65.782  1.00  0.00    -0.395 A  
BRANCH  22  28
HETATM   28  C   UNL     1      -7.802  17.003  68.460  1.00  0.00    -0.251 A  
HETATM   29  C   UNL     1      -6.908  16.228  69.214  1.00  0.00    -0.211 A  
HETATM   30  C   UNL     1      -5.868  16.831  69.935  1.00  0.00    -0.220 A  
HETATM   31  C   UNL     1      -5.680  18.214  69.883  1.00  0.00    -0.249 A  
HETATM   32  C   UNL     1      -6.537  18.996  69.112  1.00  0.00    -0.322 A  
HETATM   33  C   UNL     1      -7.610  18.397  68.454  1.00  0.00    -0.307 A  
HETATM   34  C   UNL     1      -6.325  20.461  69.029  1.00  0.00    -0.282 C  
HETATM   35  O   UNL     1      -6.646  20.985  67.823  1.00  0.00    -0.337 OA 
HETATM   36  O   UNL     1      -5.874  21.116  69.944  1.00  0.00    -0.333 OA 
ENDBRANCH  22  28
ENDBRANCH  18  20
ENDBRANCH  16  18
ENDBRANCH   7  16
TORSDOF 5
ENDMDL
MODEL        6
REMARK 921   NORMALIZED FREE ENERGY PREDICTED BY IDOCK:   -8.46 KCAL/MOL
REMARK 922        TOTAL FREE ENERGY PREDICTED BY IDOCK:  -12.24 KCAL/MOL
REMARK 923 INTER-LIGAND FREE ENERGY PREDICTED BY IDOCK:  -10.77 KCAL/MOL
REMARK 924 INTRA-LIGAND FREE ENERGY PREDICTED BY IDOCK:   -1.47 KCAL/MOL
REMARK 927      BINDING AFFINITY PREDICTED BY RF-SCORE:    0.00 PKD
ROOT
HETATM    1  C   UNL     1      -7.392  14.042  67.385  1.00  0.00    -0.135 C  
HETATM    2  C   UNL     1      -8.445  13.021  67.162  1.00  0.00    -0.174 C  
HETATM    3  N   UNL     1      -8.547  11.850  67.721  1.00  0.00    -0.147 NA 
HETATM    4  N   UNL     1      -9.716  11.249  67.213  1.00  0.00    -0.173 N  
HETATM    5  O   UNL     1     -11.439  11.891  65.662  1.00  0.00    -0.322 OA 
HETATM    6  C   UNL     1     -10.417  12.028  66.306  1.00  0.00    -0.238 C  
HETATM    7  C   UNL     1      -9.563  13.243  66.213  1.00  0.00    -0.235 C  
ENDROOT
BRANCH   4   8
HETATM    8  C   UNL     1     -10.047   9.933  67.616  1.00  0.00    -0.197 A  
HETATM    9  C   UNL     1     -10.215   8.917  66.673  1.00  0.00    -0.338 A  
HETATM   10  C   UNL     1     -10.516   7.612  67.063  1.00  0.00    -0.419 A  
HETATM   11  C   UNL     1     -10.202   9.608  68.970  1.00  0.00    -0.209 A  
HETATM   12  C   UNL     1     -10.643   8.038  70.862  1.00  0.00    -0.233 C  
HETATM   13  C   UNL     1     -10.508   8.295  69.385  1.00  0.00    -0.224 A  
HETATM   14  C   UNL     1     -10.662   7.285  68.417  1.00  0.00    -0.165 A  
HETATM   15  C   UNL     1     -10.992   5.864  68.776  1.00  0.00    -0.311 C  
ENDBRANCH   4   8
BRANCH   7  16
HETATM   16  N   UNL     1      -9.699  14.293  65.467  1.00  0.00    -0.542 NA 
HETATM   17  H   UNL     1      -9.097  14.459  64.660  1.00  0.00     0.000 HD 
BRANCH  16  18
HETATM   18  N   UNL     1     -10.690  15.166  65.814  1.00  0.00    -0.333 NA 
HETATM   19  H   UNL     1     -11.384  15.447  65.123  1.00  0.00     0.000 HD 
BRANCH  18  20
HETATM   20  C   UNL     1     -10.758  15.681  67.127  1.00  0.00    -0.314 A  
HETATM   21  C   UNL     1     -11.641  15.152  68.089  1.00  0.00    -0.341 A  
HETATM   22  C   UNL     1     -11.668  15.585  69.430  1.00  0.00    -0.382 A  
HETATM   23  O   UNL     1     -12.512  14.159  67.687  1.00  0.00    -0.540 OA 
HETATM   24  C   UNL     1      -9.939  16.746  67.510  1.00  0.00    -0.266 A  
HETATM   25  C   UNL     1     -10.853  16.678  69.760  1.00  0.00    -0.238 A  
HETATM   26  H   UNL     1     -13.107  13.803  68.336  1.00  0.00     0.000 HD 
HETATM   27  C   UNL     1     -10.002  17.256  68.811  1.00  0.00    -0.325 A  
BRANCH  22  28
HETATM   28  C   UNL     1     -12.415  14.840  70.465  1.00  0.00    -0.411 A  
HETATM   29  C   UNL     1     -13.192  15.459  71.454  1.00  0.00    -0.578 A  
HETATM   30  C   UNL     1     -13.827  14.700  72.447  1.00  0.00    -0.580 A  
HETATM   31  C   UNL     1     -13.728  13.307  72.444  1.00  0.00    -0.678 A  
HETATM   32  C   UNL     1     -12.989  12.672  71.449  1.00  0.00    -0.353 A  
HETATM   33  C   UNL     1     -12.304  13.438  70.507  1.00  0.00    -0.401 A  
HETATM   34  C   UNL     1     -12.905  11.193  71.423  1.00  0.00    -0.439 C  
HETATM   35  O   UNL     1     -12.846  10.678  70.172  1.00  0.00    -0.276 OA 
HETATM   36  O   UNL     1     -12.923  10.512  72.426  1.00  0.00    -0.252 OA 
ENDBRANCH  22  28
ENDBRANCH  18  20
ENDBRANCH  16  18
ENDBRANCH   7  16
TORSDOF 5
ENDMDL
MODEL        7
REMARK 921   NORMALIZED FREE ENERGY PREDICTED BY IDOCK:   -8.43 KCAL/MOL
REMARK 922        TOTAL FREE ENERGY PREDICTED BY IDOCK:  -12.20 KCAL/MOL
REMARK 923 INTER-LIGAND FREE ENERGY PREDICTED BY IDOCK:  -10.67 KCAL/MOL
REMARK 924 INTRA-LIGAND FREE ENERGY PREDICTED BY IDOCK:   -1.53 KCAL/MOL
REMARK 927      BINDING AFFINITY PREDICTED BY RF-SCORE:    0.00 PKD
ROOT
HETATM    1  C   UNL     1      -8.188  12.239  68.030  1.00  0.00    -0.163 C  
HETATM    2  C   UNL     1      -8.514  13.540  67.395  1.00  0.00    -0.200 C  
HETATM    3  N   UNL     1      -7.876  14.668  67.522  1.00  0.00    -0.178 NA 
HETATM    4  N   UNL     1      -8.541  15.613  66.717  1.00  0.00    -0.250 N  
HETATM    5  O   UNL     1     -10.452  15.580  65.256  1.00  0.00    -0.370 OA 
HETATM    6  C   UNL     1      -9.638  15.116  66.030  1.00  0.00    -0.330 C  
HETATM    7  C   UNL     1      -9.678  13.701  66.491  1.00  0.00    -0.292 C  
ENDROOT
BRANCH   4   8
HETATM    8  C   UNL     1      -8.087  16.953  66.707  1.00  0.00    -0.241 A  
HETATM    9  C   UNL     1      -6.787  17.266  66.305  1.00  0.00    -0.283 A  
HETATM   10  C   UNL     1      -6.340  18.587  66.267  1.00  0.00    -0.228 A  
HETATM   11  C   UNL     1      -8.931  18.007  67.087  1.00  0.00    -0.255 A  
HETATM   12  C   UNL     1      -9.477  20.413  67.472  1.00  0.00    -0.532 C  
HETATM   13  C   UNL     1      -8.496  19.348  67.059  1.00  0.00    -0.313 A  
HETATM   14  C   UNL     1      -7.186  19.640  66.638  1.00  0.00    -0.244 A  
HETATM   15  C   UNL     1      -6.646  21.041  66.583  1.00  0.00    -0.356 C  
ENDBRANCH   4   8
BRANCH   7  16
HETATM   16  N   UNL     1     -10.534  12.768  66.217  1.00  0.00    -0.253 NA 
HETATM   17  H   UNL     1     -10.282  11.961  65.646  1.00  0.00     0.000 HD 
BRANCH  16  18
HETATM   18  N   UNL     1     -11.789  12.919  66.732  1.00  0.00    -0.387 NA 
HETATM   19  H   UNL     1     -12.583  13.043  66.105  1.00  0.00     0.000 HD 
BRANCH  18  20
HETATM   20  C   UNL     1     -11.994  12.905  68.129  1.00  0.00    -0.261 A  
HETATM   21  C   UNL     1     -12.071  11.702  68.858  1.00  0.00    -0.190 A  
HETATM   22  C   UNL     1     -12.185  11.657  70.261  1.00  0.00    -0.401 A  
HETATM   23  O   UNL     1     -12.028  10.517  68.150  1.00  0.00    -0.788 OA 
HETATM   24  C   UNL     1     -12.126  14.103  68.835  1.00  0.00    -0.339 A  
HETATM   25  C   UNL     1     -12.348  12.883  70.923  1.00  0.00    -0.365 A  
HETATM   26  H   UNL     1     -12.081   9.705  68.642  1.00  0.00     0.000 HD 
HETATM   27  C   UNL     1     -12.325  14.092  70.219  1.00  0.00    -0.425 A  
BRANCH  22  28
HETATM   28  C   UNL     1     -12.004  10.395  71.009  1.00  0.00    -0.481 A  
HETATM   29  C   UNL     1     -13.036   9.758  71.712  1.00  0.00    -0.528 A  
HETATM   30  C   UNL     1     -12.788   8.595  72.453  1.00  0.00    -0.413 A  
HETATM   31  C   UNL     1     -11.512   8.027  72.473  1.00  0.00    -0.471 A  
HETATM   32  C   UNL     1     -10.482   8.627  71.753  1.00  0.00    -0.394 A  
HETATM   33  C   UNL     1     -10.721   9.821  71.075  1.00  0.00    -0.342 A  
HETATM   34  C   UNL     1      -9.133   8.013  71.745  1.00  0.00    -0.158 C  
HETATM   35  O   UNL     1      -8.476   8.168  70.571  1.00  0.00    -0.119 OA 
HETATM   36  O   UNL     1      -8.679   7.401  72.689  1.00  0.00    -0.118 OA 
ENDBRANCH  22  28
ENDBRANCH  18  20
ENDBRANCH  16  18
ENDBRANCH   7  16
TORSDOF 5
ENDMDL
MODEL        8
REMARK 921   NORMALIZED FREE ENERGY PREDICTED BY IDOCK:   -8.37 KCAL/MOL
REMARK 922        TOTAL FREE ENERGY PREDICTED BY IDOCK:  -12.12 KCAL/MOL
REMARK 923 INTER-LIGAND FREE ENERGY PREDICTED BY IDOCK:  -10.99 KCAL/MOL
REMARK 924 INTRA-LIGAND FREE ENERGY PREDICTED BY IDOCK:   -1.12 KCAL/MOL
REMARK 927      BINDING AFFINITY PREDICTED BY RF-SCORE:    0.00 PKD
ROOT
HETATM    1  C   UNL     1     -13.984   8.351  72.309  1.00  0.00    -0.370 C  
HETATM    2  C   UNL     1     -12.828   8.072  71.423  1.00  0.00    -0.269 C  
HETATM    3  N   UNL     1     -12.525   6.947  70.842  1.00  0.00    -0.337 NA 
HETATM    4  N   UNL     1     -11.356   7.171  70.088  1.00  0.00    -0.266 N  
HETATM    5  O   UNL     1      -9.921   9.056  69.668  1.00  0.00    -0.181 OA 
HETATM    6  C   UNL     1     -10.867   8.467  70.154  1.00  0.00    -0.233 C  
HETATM    7  C   UNL     1     -11.828   9.115  71.088  1.00  0.00    -0.307 C  
ENDROOT
BRANCH   4   8
HETATM    8  C   UNL     1     -10.769   6.091  69.388  1.00  0.00    -0.334 A  
HETATM    9  C   UNL     1     -10.048   5.105  70.065  1.00  0.00    -0.345 A  
HETATM   10  C   UNL     1      -9.488   4.024  69.386  1.00  0.00    -0.259 A  
HETATM   11  C   UNL     1     -10.903   5.971  67.998  1.00  0.00    -0.374 A  
HETATM   12  C   UNL     1     -10.549   4.835  65.802  1.00  0.00    -0.262 C  
HETATM   13  C   UNL     1     -10.342   4.886  67.292  1.00  0.00    -0.154 A  
HETATM   14  C   UNL     1      -9.630   3.899  67.997  1.00  0.00    -0.189 A  
HETATM   15  C   UNL     1      -8.999   2.715  67.320  1.00  0.00    -0.183 C  
ENDBRANCH   4   8
BRANCH   7  16
HETATM   16  N   UNL     1     -11.832  10.321  71.563  1.00  0.00    -0.291 NA 
HETATM   17  H   UNL     1     -11.084  10.661  72.166  1.00  0.00     0.000 HD 
BRANCH  16  18
HETATM   18  N   UNL     1     -12.889  11.111  71.214  1.00  0.00    -0.415 NA 
HETATM   19  H   UNL     1     -13.836  10.733  71.242  1.00  0.00     0.000 HD 
BRANCH  18  20
HETATM   20  C   UNL     1     -12.678  12.449  70.814  1.00  0.00    -0.123 A  
HETATM   21  C   UNL     1     -12.005  12.771  69.619  1.00  0.00    -0.288 A  
HETATM   22  C   UNL     1     -11.859  14.091  69.150  1.00  0.00    -0.391 A  
HETATM   23  O   UNL     1     -11.473  11.733  68.880  1.00  0.00    -0.244 OA 
HETATM   24  C   UNL     1     -13.139  13.502  71.607  1.00  0.00    -0.459 A  
HETATM   25  C   UNL     1     -12.307  15.118  69.994  1.00  0.00    -0.356 A  
HETATM   26  H   UNL     1     -11.019  11.951  68.074  1.00  0.00     0.000 HD 
HETATM   27  C   UNL     1     -12.935  14.828  71.211  1.00  0.00    -0.413 A  
BRANCH  22  28
HETATM   28  C   UNL     1     -11.382  14.373  67.780  1.00  0.00    -0.331 A  
HETATM   29  C   UNL     1     -10.232  15.127  67.501  1.00  0.00    -0.238 A  
HETATM   30  C   UNL     1      -9.865  15.412  66.179  1.00  0.00    -0.337 A  
HETATM   31  C   UNL     1     -10.618  14.917  65.113  1.00  0.00    -0.450 A  
HETATM   32  C   UNL     1     -11.744  14.137  65.370  1.00  0.00    -0.347 A  
HETATM   33  C   UNL     1     -12.141  13.916  66.687  1.00  0.00    -0.485 A  
HETATM   34  C   UNL     1     -12.530  13.583  64.242  1.00  0.00    -0.252 C  
HETATM   35  O   UNL     1     -13.063  12.366  64.503  1.00  0.00    -0.823 OA 
HETATM   36  O   UNL     1     -12.653  14.152  63.178  1.00  0.00    -0.686 OA 
ENDBRANCH  22  28
ENDBRANCH  18  20
ENDBRANCH  16  18
ENDBRANCH   7  16
TORSDOF 5
ENDMDL
MODEL        9
REMARK 921   NORMALIZED FREE ENERGY PREDICTED BY IDOCK:   -8.31 KCAL/MOL
REMARK 922        TOTAL FREE ENERGY PREDICTED BY IDOCK:  -12.04 KCAL/MOL
REMARK 923 INTER-LIGAND FREE ENERGY PREDICTED BY IDOCK:  -10.61 KCAL/MOL
REMARK 924 INTRA-LIGAND FREE ENERGY PREDICTED BY IDOCK:   -1.44 KCAL/MOL
REMARK 927      BINDING AFFINITY PREDICTED BY RF-SCORE:    0.00 PKD
ROOT
HETATM    1  C   UNL     1     -12.362  15.586  70.335  1.00  0.00    -0.451 C  
HETATM    2  C   UNL     1     -12.198  14.151  69.993  1.00  0.00    -0.357 C  
HETATM    3  N   UNL     1     -12.070  13.149  70.813  1.00  0.00    -0.292 NA 
HETATM    4  N   UNL     1     -11.965  11.983  70.029  1.00  0.00    -0.339 N  
HETATM    5  O   UNL     1     -11.987  11.492  67.673  1.00  0.00    -0.630 OA 
HETATM    6  C   UNL     1     -12.032  12.200  68.661  1.00  0.00    -0.237 C  
HETATM    7  C   UNL     1     -12.158  13.681  68.587  1.00  0.00    -0.290 C  
ENDROOT
BRANCH   4   8
HETATM    8  C   UNL     1     -11.761  10.737  70.668  1.00  0.00    -0.342 A  
HETATM    9  C   UNL     1     -12.746  10.184  71.489  1.00  0.00    -0.541 A  
HETATM   10  C   UNL     1     -12.564   8.945  72.102  1.00  0.00    -0.467 A  
HETATM   11  C   UNL     1     -10.574  10.015  70.485  1.00  0.00    -0.313 A  
HETATM   12  C   UNL     1      -9.068   8.053  70.833  1.00  0.00    -0.161 C  
HETATM   13  C   UNL     1     -10.370   8.761  71.097  1.00  0.00    -0.315 A  
HETATM   14  C   UNL     1     -11.381   8.219  71.912  1.00  0.00    -0.372 A  
HETATM   15  C   UNL     1     -11.240   6.892  72.602  1.00  0.00    -0.297 C  
ENDBRANCH   4   8
BRANCH   7  16
HETATM   16  N   UNL     1     -12.205  14.455  67.548  1.00  0.00    -0.619 NA 
HETATM   17  H   UNL     1     -13.010  15.052  67.361  1.00  0.00     0.000 HD 
BRANCH  16  18
HETATM   18  N   UNL     1     -11.121  14.430  66.719  1.00  0.00    -0.315 NA 
HETATM   19  H   UNL     1     -10.307  15.007  66.930  1.00  0.00     0.000 HD 
BRANCH  18  20
HETATM   20  C   UNL     1     -11.121  13.609  65.570  1.00  0.00    -0.295 A  
HETATM   21  C   UNL     1     -10.147  12.612  65.368  1.00  0.00    -0.261 A  
HETATM   22  C   UNL     1     -10.172  11.720  64.278  1.00  0.00    -0.344 A  
HETATM   23  O   UNL     1      -9.126  12.511  66.293  1.00  0.00    -0.371 OA 
HETATM   24  C   UNL     1     -12.102  13.769  64.589  1.00  0.00    -0.452 A  
HETATM   25  C   UNL     1     -11.155  11.940  63.302  1.00  0.00    -0.390 A  
HETATM   26  H   UNL     1      -8.469  11.839  66.157  1.00  0.00     0.000 HD 
HETATM   27  C   UNL     1     -12.106  12.956  63.451  1.00  0.00    -0.610 A  
BRANCH  22  28
HETATM   28  C   UNL     1      -9.294  10.532  64.234  1.00  0.00    -0.310 A  
HETATM   29  C   UNL     1      -8.275  10.357  63.287  1.00  0.00    -0.148 A  
HETATM   30  C   UNL     1      -7.515   9.180  63.258  1.00  0.00    -0.097 A  
HETATM   31  C   UNL     1      -7.736   8.173  64.201  1.00  0.00    -0.136 A  
HETATM   32  C   UNL     1      -8.721   8.343  65.171  1.00  0.00    -0.118 A  
HETATM   33  C   UNL     1      -9.517   9.486  65.149  1.00  0.00    -0.305 A  
HETATM   34  C   UNL     1      -8.939   7.291  66.192  1.00  0.00    -0.149 C  
HETATM   35  O   UNL     1      -9.304   7.781  67.401  1.00  0.00    -0.137 OA 
HETATM   36  O   UNL     1      -8.772   6.111  65.972  1.00  0.00    -0.145 OA 
ENDBRANCH  22  28
ENDBRANCH  18  20
ENDBRANCH  16  18
ENDBRANCH   7  16
TORSDOF 5
ENDMDL
MODEL       10
REMARK 921   NORMALIZED FREE ENERGY PREDICTED BY IDOCK:   -8.23 KCAL/MOL
REMARK 922        TOTAL FREE ENERGY PREDICTED BY IDOCK:  -11.93 KCAL/MOL
REMARK 923 INTER-LIGAND FREE ENERGY PREDICTED BY IDOCK:  -10.78 KCAL/MOL
REMARK 924 INTRA-LIGAND FREE ENERGY PREDICTED BY IDOCK:   -1.15 KCAL/MOL
REMARK 927      BINDING AFFINITY PREDICTED BY RF-SCORE:    0.00 PKD
ROOT
HETATM    1  C   UNL     1     -13.274  12.294  71.800  1.00  0.00    -0.428 C  
HETATM    2  C   UNL     1     -12.508  11.155  71.239  1.00  0.00    -0.360 C  
HETATM    3  N   UNL     1     -12.342   9.974  71.762  1.00  0.00    -0.384 NA 
HETATM    4  N   UNL     1     -11.561   9.227  70.859  1.00  0.00    -0.286 N  
HETATM    5  O   UNL     1     -10.559   9.637  68.710  1.00  0.00    -0.209 OA 
HETATM    6  C   UNL     1     -11.201   9.909  69.706  1.00  0.00    -0.235 C  
HETATM    7  C   UNL     1     -11.801  11.250  69.938  1.00  0.00    -0.360 C  
ENDROOT
BRANCH   4   8
HETATM    8  C   UNL     1     -11.180   7.908  71.202  1.00  0.00    -0.261 A  
HETATM    9  C   UNL     1     -11.145   6.898  70.238  1.00  0.00    -0.342 A  
HETATM   10  C   UNL     1     -10.746   5.602  70.564  1.00  0.00    -0.344 A  
HETATM   11  C   UNL     1     -10.813   7.579  72.515  1.00  0.00    -0.349 A  
HETATM   12  C   UNL     1     -10.021   6.018  74.296  1.00  0.00    -0.275 C  
HETATM   13  C   UNL     1     -10.409   6.274  72.864  1.00  0.00    -0.226 A  
HETATM   14  C   UNL     1     -10.371   5.275  71.873  1.00  0.00    -0.275 A  
HETATM   15  C   UNL     1      -9.955   3.861  72.164  1.00  0.00    -0.243 C  
ENDBRANCH   4   8
BRANCH   7  16
HETATM   16  N   UNL     1     -11.737  12.320  69.210  1.00  0.00    -0.315 NA 
HETATM   17  H   UNL     1     -11.316  13.181  69.559  1.00  0.00     0.000 HD 
BRANCH  16  18
HETATM   18  N   UNL     1     -12.263  12.236  67.953  1.00  0.00    -0.318 NA 
HETATM   19  H   UNL     1     -13.120  11.707  67.796  1.00  0.00     0.000 HD 
BRANCH  18  20
HETATM   20  C   UNL     1     -11.625  12.879  66.869  1.00  0.00    -0.368 A  
HETATM   21  C   UNL     1     -11.049  14.158  66.997  1.00  0.00    -0.307 A  
HETATM   22  C   UNL     1     -10.330  14.786  65.961  1.00  0.00    -0.318 A  
HETATM   23  O   UNL     1     -11.201  14.816  68.201  1.00  0.00    -0.270 OA 
HETATM   24  C   UNL     1     -11.549  12.251  65.624  1.00  0.00    -0.433 A  
HETATM   25  C   UNL     1     -10.308  14.134  64.719  1.00  0.00    -0.387 A  
HETATM   26  H   UNL     1     -10.813  15.678  68.287  1.00  0.00     0.000 HD 
HETATM   27  C   UNL     1     -10.915  12.884  64.549  1.00  0.00    -0.377 A  
BRANCH  22  28
HETATM   28  C   UNL     1      -9.526  16.001  66.207  1.00  0.00    -0.347 A  
HETATM   29  C   UNL     1      -8.166  15.972  66.552  1.00  0.00    -0.334 A  
HETATM   30  C   UNL     1      -7.472  17.156  66.834  1.00  0.00    -0.239 A  
HETATM   31  C   UNL     1      -8.115  18.392  66.739  1.00  0.00    -0.266 A  
HETATM   32  C   UNL     1      -9.456  18.443  66.365  1.00  0.00    -0.297 A  
HETATM   33  C   UNL     1     -10.156  17.257  66.153  1.00  0.00    -0.312 A  
HETATM   34  C   UNL     1     -10.135  19.754  66.233  1.00  0.00    -0.496 C  
HETATM   35  O   UNL     1     -11.064  19.783  65.248  1.00  0.00    -0.395 OA 
HETATM   36  O   UNL     1      -9.858  20.715  66.920  1.00  0.00    -0.423 OA 
ENDBRANCH  22  28
ENDBRANCH  18  20
ENDBRANCH  16  18
ENDBRANCH   7  16
TORSDOF 5
ENDMDL
MODEL       11
REMARK 921   NORMALIZED FREE ENERGY PREDICTED BY IDOCK:   -8.21 KCAL/MOL
REMARK 922        TOTAL FREE ENERGY PREDICTED BY IDOCK:  -11.91 KCAL/MOL
REMARK 923 INTER-LIGAND FREE ENERGY PREDICTED BY IDOCK:  -10.31 KCAL/MOL
REMARK 924 INTRA-LIGAND FREE ENERGY PREDICTED BY IDOCK:   -1.59 KCAL/MOL
REMARK 927      BINDING AFFINITY PREDICTED BY RF-SCORE:    0.00 PKD
ROOT
HETATM    1  C   UNL     1      -7.749  12.037  67.271  1.00  0.00    -0.168 C  
HETATM    2  C   UNL     1      -8.913  11.366  67.902  1.00  0.00    -0.153 C  
HETATM    3  N   UNL     1      -8.896  10.390  68.763  1.00  0.00    -0.148 NA 
HETATM    4  N   UNL     1     -10.236  10.103  69.091  1.00  0.00    -0.201 N  
HETATM    5  O   UNL     1     -12.383  10.981  68.453  1.00  0.00    -0.528 OA 
HETATM    6  C   UNL     1     -11.170  10.901  68.448  1.00  0.00    -0.285 C  
HETATM    7  C   UNL     1     -10.308  11.763  67.595  1.00  0.00    -0.200 C  
ENDROOT
BRANCH   4   8
HETATM    8  C   UNL     1     -10.517   9.036  69.977  1.00  0.00    -0.214 A  
HETATM    9  C   UNL     1     -10.960   9.284  71.278  1.00  0.00    -0.421 A  
HETATM   10  C   UNL     1     -11.263   8.238  72.149  1.00  0.00    -0.413 A  
HETATM   11  C   UNL     1     -10.373   7.702  69.572  1.00  0.00    -0.217 A  
HETATM   12  C   UNL     1     -10.500   5.231  69.912  1.00  0.00    -0.351 C  
HETATM   13  C   UNL     1     -10.673   6.630  70.439  1.00  0.00    -0.297 A  
HETATM   14  C   UNL     1     -11.128   6.904  71.742  1.00  0.00    -0.275 A  
HETATM   15  C   UNL     1     -11.466   5.821  72.726  1.00  0.00    -0.304 C  
ENDBRANCH   4   8
BRANCH   7  16
HETATM   16  N   UNL     1     -10.644  12.668  66.730  1.00  0.00    -0.236 NA 
HETATM   17  H   UNL     1     -10.167  12.755  65.833  1.00  0.00     0.000 HD 
BRANCH  16  18
HETATM   18  N   UNL     1     -11.669  13.499  67.082  1.00  0.00    -0.356 NA 
HETATM   19  H   UNL     1     -12.586  13.382  66.654  1.00  0.00     0.000 HD 
BRANCH  18  20
HETATM   20  C   UNL     1     -11.464  14.519  68.037  1.00  0.00    -0.321 A  
HETATM   21  C   UNL     1     -10.708  15.671  67.744  1.00  0.00    -0.297 A  
HETATM   22  C   UNL     1     -10.562  16.745  68.644  1.00  0.00    -0.353 A  
HETATM   23  O   UNL     1     -10.091  15.740  66.511  1.00  0.00    -0.260 OA 
HETATM   24  C   UNL     1     -12.015  14.409  69.316  1.00  0.00    -0.362 A  
HETATM   25  C   UNL     1     -11.104  16.576  69.927  1.00  0.00    -0.241 A  
HETATM   26  H   UNL     1      -9.581  16.517  66.314  1.00  0.00     0.000 HD 
HETATM   27  C   UNL     1     -11.817  15.420  70.262  1.00  0.00    -0.368 A  
BRANCH  22  28
HETATM   28  C   UNL     1      -9.986  18.037  68.214  1.00  0.00    -0.374 A  
HETATM   29  C   UNL     1     -10.698  18.993  67.474  1.00  0.00    -0.532 A  
HETATM   30  C   UNL     1     -10.078  20.173  67.043  1.00  0.00    -0.599 A  
HETATM   31  C   UNL     1      -8.748  20.436  67.378  1.00  0.00    -0.415 A  
HETATM   32  C   UNL     1      -8.035  19.514  68.141  1.00  0.00    -0.353 A  
HETATM   33  C   UNL     1      -8.638  18.313  68.507  1.00  0.00    -0.323 A  
HETATM   34  C   UNL     1      -6.633  19.802  68.525  1.00  0.00    -0.280 C  
HETATM   35  O   UNL     1      -6.297  19.319  69.745  1.00  0.00    -0.272 OA 
HETATM   36  O   UNL     1      -5.873  20.438  67.826  1.00  0.00    -0.200 OA 
ENDBRANCH  22  28
ENDBRANCH  18  20
ENDBRANCH  16  18
ENDBRANCH   7  16
TORSDOF 5
ENDMDL
MODEL       12
REMARK 921   NORMALIZED FREE ENERGY PREDICTED BY IDOCK:   -8.20 KCAL/MOL
REMARK 922        TOTAL FREE ENERGY PREDICTED BY IDOCK:  -11.90 KCAL/MOL
REMARK 923 INTER-LIGAND FREE ENERGY PREDICTED BY IDOCK:  -10.38 KCAL/MOL
REMARK 924 INTRA-LIGAND FREE ENERGY PREDICTED BY IDOCK:   -1.52 KCAL/MOL
REMARK 927      BINDING AFFINITY PREDICTED BY RF-SCORE:    0.00 PKD
ROOT
HETATM    1  C   UNL     1     -12.770  15.497  70.669  1.00  0.00    -0.487 C  
HETATM    2  C   UNL     1     -12.529  14.098  70.238  1.00  0.00    -0.353 C  
HETATM    3  N   UNL     1     -12.507  13.031  70.983  1.00  0.00    -0.353 NA 
HETATM    4  N   UNL     1     -12.263  11.935  70.131  1.00  0.00    -0.272 N  
HETATM    5  O   UNL     1     -11.922  11.645  67.767  1.00  0.00    -0.608 OA 
HETATM    6  C   UNL     1     -12.128  12.267  68.791  1.00  0.00    -0.112 C  
HETATM    7  C   UNL     1     -12.270  13.748  68.821  1.00  0.00    -0.186 C  
ENDROOT
BRANCH   4   8
HETATM    8  C   UNL     1     -12.134  10.641  70.689  1.00  0.00    -0.365 A  
HETATM    9  C   UNL     1     -10.878  10.051  70.845  1.00  0.00    -0.276 A  
HETATM   10  C   UNL     1     -10.741   8.786  71.418  1.00  0.00    -0.356 A  
HETATM   11  C   UNL     1     -13.259   9.921  71.113  1.00  0.00    -0.424 A  
HETATM   12  C   UNL     1     -14.404   7.947  72.128  1.00  0.00    -0.417 C  
HETATM   13  C   UNL     1     -13.141   8.640  71.692  1.00  0.00    -0.381 A  
HETATM   14  C   UNL     1     -11.865   8.069  71.850  1.00  0.00    -0.353 A  
HETATM   15  C   UNL     1     -11.654   6.710  72.454  1.00  0.00    -0.281 C  
ENDBRANCH   4   8
BRANCH   7  16
HETATM   16  N   UNL     1     -12.174  14.606  67.855  1.00  0.00    -0.603 NA 
HETATM   17  H   UNL     1     -12.724  15.465  67.845  1.00  0.00     0.000 HD 
BRANCH  16  18
HETATM   18  N   UNL     1     -11.301  14.301  66.851  1.00  0.00    -0.329 NA 
HETATM   19  H   UNL     1     -11.636  13.830  66.012  1.00  0.00     0.000 HD 
BRANCH  18  20
HETATM   20  C   UNL     1      -9.933  14.635  66.970  1.00  0.00    -0.246 A  
HETATM   21  C   UNL     1      -9.463  15.941  66.729  1.00  0.00    -0.235 A  
HETATM   22  C   UNL     1      -8.122  16.324  66.925  1.00  0.00    -0.270 A  
HETATM   23  O   UNL     1     -10.371  16.881  66.283  1.00  0.00    -0.315 OA 
HETATM   24  C   UNL     1      -8.999  13.663  67.334  1.00  0.00    -0.218 A  
HETATM   25  C   UNL     1      -7.214  15.308  67.259  1.00  0.00    -0.213 A  
HETATM   26  H   UNL     1     -10.053  17.761  66.121  1.00  0.00     0.000 HD 
HETATM   27  C   UNL     1      -7.645  13.992  67.456  1.00  0.00    -0.195 A  
BRANCH  22  28
HETATM   28  C   UNL     1      -7.718  17.746  66.914  1.00  0.00    -0.242 A  
HETATM   29  C   UNL     1      -7.859  18.599  68.018  1.00  0.00    -0.292 A  
HETATM   30  C   UNL     1      -7.515  19.954  67.927  1.00  0.00    -0.328 A  
HETATM   31  C   UNL     1      -6.986  20.471  66.743  1.00  0.00    -0.330 A  
HETATM   32  C   UNL     1      -6.806  19.631  65.646  1.00  0.00    -0.313 A  
HETATM   33  C   UNL     1      -7.215  18.302  65.723  1.00  0.00    -0.218 A  
HETATM   34  C   UNL     1      -6.217  20.167  64.395  1.00  0.00    -0.255 C  
HETATM   35  O   UNL     1      -5.446  19.271  63.735  1.00  0.00    -0.264 OA 
HETATM   36  O   UNL     1      -6.385  21.309  64.022  1.00  0.00    -0.293 OA 
ENDBRANCH  22  28
ENDBRANCH  18  20
ENDBRANCH  16  18
ENDBRANCH   7  16
TORSDOF 5
ENDMDL
MODEL       13
REMARK 921   NORMALIZED FREE ENERGY PREDICTED BY IDOCK:   -8.20 KCAL/MOL
REMARK 922        TOTAL FREE ENERGY PREDICTED BY IDOCK:  -11.89 KCAL/MOL
REMARK 923 INTER-LIGAND FREE ENERGY PREDICTED BY IDOCK:  -10.34 KCAL/MOL
REMARK 924 INTRA-LIGAND FREE ENERGY PREDICTED BY IDOCK:   -1.55 KCAL/MOL
REMARK 927      BINDING AFFINITY PREDICTED BY RF-SCORE:    0.00 PKD
ROOT
HETATM    1  C   UNL     1     -14.411   6.713  71.605  1.00  0.00    -0.168 C  
HETATM    2  C   UNL     1     -13.521   7.898  71.530  1.00  0.00    -0.306 C  
HETATM    3  N   UNL     1     -13.868   9.153  71.521  1.00  0.00    -0.350 NA 
HETATM    4  N   UNL     1     -12.682   9.910  71.460  1.00  0.00    -0.380 N  
HETATM    5  O   UNL     1     -10.329   9.411  71.392  1.00  0.00    -0.324 OA 
HETATM    6  C   UNL     1     -11.517   9.157  71.437  1.00  0.00    -0.350 C  
HETATM    7  C   UNL     1     -12.046   7.766  71.449  1.00  0.00    -0.311 C  
ENDROOT
BRANCH   4   8
HETATM    8  C   UNL     1     -12.766  11.321  71.384  1.00  0.00    -0.396 A  
HETATM    9  C   UNL     1     -13.537  12.042  72.297  1.00  0.00    -0.164 A  
HETATM   10  C   UNL     1     -13.605  13.434  72.245  1.00  0.00    -0.703 A  
HETATM   11  C   UNL     1     -12.069  12.036  70.400  1.00  0.00    -0.407 A  
HETATM   12  C   UNL     1     -11.334  14.125  69.246  1.00  0.00    -0.324 C  
HETATM   13  C   UNL     1     -12.126  13.443  70.329  1.00  0.00    -0.419 A  
HETATM   14  C   UNL     1     -12.901  14.150  71.267  1.00  0.00    -0.429 A  
HETATM   15  C   UNL     1     -13.017  15.648  71.258  1.00  0.00    -0.556 C  
ENDBRANCH   4   8
BRANCH   7  16
HETATM   16  N   UNL     1     -11.408   6.640  71.383  1.00  0.00    -0.275 NA 
HETATM   17  H   UNL     1     -11.170   6.109  72.220  1.00  0.00     0.000 HD 
BRANCH  16  18
HETATM   18  N   UNL     1     -11.073   6.201  70.134  1.00  0.00    -0.355 NA 
HETATM   19  H   UNL     1     -11.620   5.463  69.692  1.00  0.00     0.000 HD 
BRANCH  18  20
HETATM   20  C   UNL     1      -9.972   6.764  69.452  1.00  0.00    -0.157 A  
HETATM   21  C   UNL     1     -10.115   7.389  68.197  1.00  0.00    -0.179 A  
HETATM   22  C   UNL     1      -9.054   8.037  67.534  1.00  0.00    -0.146 A  
HETATM   23  O   UNL     1     -11.361   7.361  67.602  1.00  0.00    -0.454 OA 
HETATM   24  C   UNL     1      -8.694   6.714  70.013  1.00  0.00    -0.141 A  
HETATM   25  C   UNL     1      -7.783   7.932  68.118  1.00  0.00    -0.125 A  
HETATM   26  H   UNL     1     -11.457   7.782  66.756  1.00  0.00     0.000 HD 
HETATM   27  C   UNL     1      -7.603   7.273  69.340  1.00  0.00    -0.097 A  
BRANCH  22  28
HETATM   28  C   UNL     1      -9.293   8.897  66.357  1.00  0.00    -0.262 A  
HETATM   29  C   UNL     1      -8.811   8.602  65.073  1.00  0.00    -0.114 A  
HETATM   30  C   UNL     1      -9.018   9.489  64.008  1.00  0.00    -0.228 A  
HETATM   31  C   UNL     1      -9.743  10.667  64.199  1.00  0.00    -0.378 A  
HETATM   32  C   UNL     1     -10.259  10.960  65.459  1.00  0.00    -0.332 A  
HETATM   33  C   UNL     1      -9.990  10.108  66.528  1.00  0.00    -0.283 A  
HETATM   34  C   UNL     1     -11.055  12.194  65.661  1.00  0.00    -0.316 C  
HETATM   35  O   UNL     1     -12.049  12.052  66.569  1.00  0.00    -0.617 OA 
HETATM   36  O   UNL     1     -10.854  13.219  65.045  1.00  0.00    -0.297 OA 
ENDBRANCH  22  28
ENDBRANCH  18  20
ENDBRANCH  16  18
ENDBRANCH   7  16
TORSDOF 5
ENDMDL
MODEL       14
REMARK 921   NORMALIZED FREE ENERGY PREDICTED BY IDOCK:   -8.19 KCAL/MOL
REMARK 922        TOTAL FREE ENERGY PREDICTED BY IDOCK:  -11.88 KCAL/MOL
REMARK 923 INTER-LIGAND FREE ENERGY PREDICTED BY IDOCK:  -10.60 KCAL/MOL
REMARK 924 INTRA-LIGAND FREE ENERGY PREDICTED BY IDOCK:   -1.28 KCAL/MOL
REMARK 927      BINDING AFFINITY PREDICTED BY RF-SCORE:    0.00 PKD
ROOT
HETATM    1  C   UNL     1     -11.328   7.034  70.896  1.00  0.00    -0.334 C  
HETATM    2  C   UNL     1     -11.278   8.490  70.617  1.00  0.00    -0.252 C  
HETATM    3  N   UNL     1     -12.026   9.423  71.131  1.00  0.00    -0.317 NA 
HETATM    4  N   UNL     1     -11.597  10.647  70.582  1.00  0.00    -0.342 N  
HETATM    5  O   UNL     1      -9.893  11.325  69.025  1.00  0.00    -0.178 OA 
HETATM    6  C   UNL     1     -10.540  10.541  69.691  1.00  0.00    -0.242 C  
HETATM    7  C   UNL     1     -10.308   9.071  69.658  1.00  0.00    -0.212 C  
ENDROOT
BRANCH   4   8
HETATM    8  C   UNL     1     -12.279  11.837  70.930  1.00  0.00    -0.276 A  
HETATM    9  C   UNL     1     -13.250  11.839  71.934  1.00  0.00    -0.468 A  
HETATM   10  C   UNL     1     -13.909  13.012  72.300  1.00  0.00    -0.529 A  
HETATM   11  C   UNL     1     -11.992  13.050  70.290  1.00  0.00    -0.360 A  
HETATM   12  C   UNL     1     -12.264  15.504  69.910  1.00  0.00    -0.351 C  
HETATM   13  C   UNL     1     -12.648  14.247  70.645  1.00  0.00    -0.424 A  
HETATM   14  C   UNL     1     -13.615  14.227  71.667  1.00  0.00    -0.461 A  
HETATM   15  C   UNL     1     -14.360  15.456  72.101  1.00  0.00    -0.642 C  
ENDBRANCH   4   8
BRANCH   7  16
HETATM   16  N   UNL     1      -9.470   8.383  68.948  1.00  0.00    -0.147 NA 
HETATM   17  H   UNL     1      -8.518   8.204  69.267  1.00  0.00     0.000 HD 
BRANCH  16  18
HETATM   18  N   UNL     1      -9.928   7.910  67.752  1.00  0.00    -0.163 NA 
HETATM   19  H   UNL     1     -10.484   7.056  67.724  1.00  0.00     0.000 HD 
BRANCH  18  20
HETATM   20  C   UNL     1      -9.635   8.597  66.554  1.00  0.00    -0.237 A  
HETATM   21  C   UNL     1     -10.399   9.699  66.122  1.00  0.00    -0.132 A  
HETATM   22  C   UNL     1     -10.078  10.458  64.980  1.00  0.00    -0.379 A  
HETATM   23  O   UNL     1     -11.511  10.043  66.866  1.00  0.00    -0.018 OA 
HETATM   24  C   UNL     1      -8.563   8.194  65.754  1.00  0.00    -0.175 A  
HETATM   25  C   UNL     1      -9.015   9.997  64.190  1.00  0.00    -0.268 A  
HETATM   26  H   UNL     1     -12.026  10.785  66.574  1.00  0.00     0.000 HD 
HETATM   27  C   UNL     1      -8.269   8.875  64.568  1.00  0.00    -0.166 A  
BRANCH  22  28
HETATM   28  C   UNL     1     -10.740  11.750  64.703  1.00  0.00    -0.363 A  
HETATM   29  C   UNL     1     -11.789  11.901  63.784  1.00  0.00    -0.558 A  
HETATM   30  C   UNL     1     -12.335  13.164  63.519  1.00  0.00    -0.478 A  
HETATM   31  C   UNL     1     -11.869  14.292  64.198  1.00  0.00    -0.338 A  
HETATM   32  C   UNL     1     -10.852  14.157  65.140  1.00  0.00    -0.380 A  
HETATM   33  C   UNL     1     -10.267  12.909  65.346  1.00  0.00    -0.301 A  
HETATM   34  C   UNL     1     -10.374  15.346  65.884  1.00  0.00    -0.341 C  
HETATM   35  O   UNL     1     -10.000  15.071  67.157  1.00  0.00    -0.234 OA 
HETATM   36  O   UNL     1     -10.354  16.461  65.408  1.00  0.00    -0.535 OA 
ENDBRANCH  22  28
ENDBRANCH  18  20
ENDBRANCH  16  18
ENDBRANCH   7  16
TORSDOF 5
ENDMDL
MODEL       15
REMARK 921   NORMALIZED FREE ENERGY PREDICTED BY IDOCK:   -8.18 KCAL/MOL
REMARK 922        TOTAL FREE ENERGY PREDICTED BY IDOCK:  -11.88 KCAL/MOL
REMARK 923 INTER-LIGAND FREE ENERGY PREDICTED BY IDOCK:  -10.29 KCAL/MOL
REMARK 924 INTRA-LIGAND FREE ENERGY PREDICTED BY IDOCK:   -1.58 KCAL/MOL
REMARK 927      BINDING AFFINITY PREDICTED BY RF-SCORE:    0.00 PKD
ROOT
HETATM    1  C   UNL     1     -11.361   6.052  72.550  1.00  0.00    -0.344 C  
HETATM    2  C   UNL     1     -10.984   6.258  71.130  1.00  0.00    -0.280 C  
HETATM    3  N   UNL     1     -10.630   5.353  70.263  1.00  0.00    -0.283 NA 
HETATM    4  N   UNL     1     -10.387   6.019  69.045  1.00  0.00    -0.201 N  
HETATM    5  O   UNL     1     -10.495   8.300  68.286  1.00  0.00    -0.205 OA 
HETATM    6  C   UNL     1     -10.587   7.391  69.088  1.00  0.00    -0.204 C  
HETATM    7  C   UNL     1     -10.966   7.606  70.511  1.00  0.00    -0.249 C  
ENDROOT
BRANCH   4   8
HETATM    8  C   UNL     1      -9.932   5.276  67.931  1.00  0.00    -0.160 A  
HETATM    9  C   UNL     1     -10.657   5.259  66.737  1.00  0.00    -0.309 A  
HETATM   10  C   UNL     1     -10.202   4.549  65.626  1.00  0.00    -0.275 A  
HETATM   11  C   UNL     1      -8.736   4.547  67.986  1.00  0.00    -0.115 A  
HETATM   12  C   UNL     1      -6.959   3.079  67.023  1.00  0.00    -0.049 C  
HETATM   13  C   UNL     1      -8.260   3.822  66.874  1.00  0.00    -0.096 A  
HETATM   14  C   UNL     1      -9.001   3.828  65.678  1.00  0.00    -0.136 A  
HETATM   15  C   UNL     1      -8.566   3.079  64.451  1.00  0.00    -0.094 C  
ENDBRANCH   4   8
BRANCH   7  16
HETATM   16  N   UNL     1     -11.216   8.710  71.141  1.00  0.00    -0.259 NA 
HETATM   17  H   UNL     1     -10.602   9.057  71.879  1.00  0.00     0.000 HD 
BRANCH  16  18
HETATM   18  N   UNL     1     -12.341   9.386  70.766  1.00  0.00    -0.472 NA 
HETATM   19  H   UNL     1     -13.175   8.868  70.491  1.00  0.00     0.000 HD 
BRANCH  18  20
HETATM   20  C   UNL     1     -12.356  10.798  70.758  1.00  0.00    -0.383 A  
HETATM   21  C   UNL     1     -11.709  11.542  69.752  1.00  0.00    -0.353 A  
HETATM   22  C   UNL     1     -11.781  12.947  69.667  1.00  0.00    -0.367 A  
HETATM   23  O   UNL     1     -10.976  10.850  68.808  1.00  0.00    -0.202 OA 
HETATM   24  C   UNL     1     -13.023  11.502  71.763  1.00  0.00    -0.500 A  
HETATM   25  C   UNL     1     -12.433  13.613  70.716  1.00  0.00    -0.432 A  
HETATM   26  H   UNL     1     -10.540  11.353  68.131  1.00  0.00     0.000 HD 
HETATM   27  C   UNL     1     -13.042  12.900  71.755  1.00  0.00    -0.458 A  
BRANCH  22  28
HETATM   28  C   UNL     1     -11.314  13.671  68.466  1.00  0.00    -0.325 A  
HETATM   29  C   UNL     1     -10.176  14.490  68.451  1.00  0.00    -0.239 A  
HETATM   30  C   UNL     1      -9.818  15.200  67.297  1.00  0.00    -0.228 A  
HETATM   31  C   UNL     1     -10.569  15.072  66.127  1.00  0.00    -0.314 A  
HETATM   32  C   UNL     1     -11.683  14.236  66.113  1.00  0.00    -0.397 A  
HETATM   33  C   UNL     1     -12.072  13.588  67.283  1.00  0.00    -0.367 A  
HETATM   34  C   UNL     1     -12.467  14.073  64.865  1.00  0.00    -0.396 C  
HETATM   35  O   UNL     1     -12.982  12.830  64.710  1.00  0.00    -0.768 OA 
HETATM   36  O   UNL     1     -12.602  14.959  64.048  1.00  0.00    -0.832 OA 
ENDBRANCH  22  28
ENDBRANCH  18  20
ENDBRANCH  16  18
ENDBRANCH   7  16
TORSDOF 5
ENDMDL
MODEL       16
REMARK 921   NORMALIZED FREE ENERGY PREDICTED BY IDOCK:   -8.18 KCAL/MOL
REMARK 922        TOTAL FREE ENERGY PREDICTED BY IDOCK:  -11.87 KCAL/MOL
REMARK 923 INTER-LIGAND FREE ENERGY PREDICTED BY IDOCK:  -10.85 KCAL/MOL
REMARK 924 INTRA-LIGAND FREE ENERGY PREDICTED BY IDOCK:   -1.03 KCAL/MOL
REMARK 927      BINDING AFFINITY PREDICTED BY RF-SCORE:    0.00 PKD
ROOT
HETATM    1  C   UNL     1     -11.955  13.990  63.846  1.00  0.00    -0.322 C  
HETATM    2  C   UNL     1     -11.295  14.751  64.935  1.00  0.00    -0.410 C  
HETATM    3  N   UNL     1     -10.608  15.852  64.831  1.00  0.00    -0.580 NA 
HETATM    4  N   UNL     1     -10.198  16.209  66.131  1.00  0.00    -0.318 N  
HETATM    5  O   UNL     1     -10.494  15.291  68.335  1.00  0.00    -0.229 OA 
HETATM    6  C   UNL     1     -10.622  15.343  67.127  1.00  0.00    -0.305 C  
HETATM    7  C   UNL     1     -11.352  14.306  66.349  1.00  0.00    -0.343 C  
ENDROOT
BRANCH   4   8
HETATM    8  C   UNL     1      -9.382  17.351  66.308  1.00  0.00    -0.217 A  
HETATM    9  C   UNL     1      -8.018  17.309  66.011  1.00  0.00    -0.196 A  
HETATM   10  C   UNL     1      -7.211  18.437  66.159  1.00  0.00    -0.298 A  
HETATM   11  C   UNL     1      -9.918  18.560  66.773  1.00  0.00    -0.381 A  
HETATM   12  C   UNL     1      -9.785  20.967  67.424  1.00  0.00    -0.367 C  
HETATM   13  C   UNL     1      -9.119  19.711  66.931  1.00  0.00    -0.415 A  
HETATM   14  C   UNL     1      -7.749  19.648  66.615  1.00  0.00    -0.295 A  
HETATM   15  C   UNL     1      -6.830  20.827  66.758  1.00  0.00    -0.352 C  
ENDBRANCH   4   8
BRANCH   7  16
HETATM   16  N   UNL     1     -11.917  13.213  66.756  1.00  0.00    -0.388 NA 
HETATM   17  H   UNL     1     -12.850  12.943  66.442  1.00  0.00     0.000 HD 
BRANCH  16  18
HETATM   18  N   UNL     1     -11.201  12.442  67.625  1.00  0.00    -0.269 NA 
HETATM   19  H   UNL     1     -10.287  12.083  67.350  1.00  0.00     0.000 HD 
BRANCH  18  20
HETATM   20  C   UNL     1     -11.719  12.138  68.903  1.00  0.00    -0.327 A  
HETATM   21  C   UNL     1     -11.739  10.821  69.403  1.00  0.00    -0.306 A  
HETATM   22  C   UNL     1     -12.167  10.499  70.707  1.00  0.00    -0.468 A  
HETATM   23  O   UNL     1     -11.314   9.808  68.568  1.00  0.00    -0.498 OA 
HETATM   24  C   UNL     1     -12.232  13.151  69.715  1.00  0.00    -0.266 A  
HETATM   25  C   UNL     1     -12.705  11.543  71.474  1.00  0.00    -0.439 A  
HETATM   26  H   UNL     1     -11.328   8.920  68.905  1.00  0.00     0.000 HD 
HETATM   27  C   UNL     1     -12.743  12.853  70.982  1.00  0.00    -0.338 A  
BRANCH  22  28
HETATM   28  C   UNL     1     -11.934   9.159  71.285  1.00  0.00    -0.394 A  
HETATM   29  C   UNL     1     -12.801   8.073  71.094  1.00  0.00    -0.126 A  
HETATM   30  C   UNL     1     -12.558   6.843  71.719  1.00  0.00    -0.386 A  
HETATM   31  C   UNL     1     -11.424   6.665  72.514  1.00  0.00    -0.269 A  
HETATM   32  C   UNL     1     -10.533   7.722  72.687  1.00  0.00    -0.363 A  
HETATM   33  C   UNL     1     -10.818   8.961  72.118  1.00  0.00    -0.339 A  
HETATM   34  C   UNL     1      -9.311   7.530  73.505  1.00  0.00    -0.263 C  
HETATM   35  O   UNL     1      -8.245   8.234  73.055  1.00  0.00    -0.185 OA 
HETATM   36  O   UNL     1      -9.266   6.787  74.462  1.00  0.00    -0.196 OA 
ENDBRANCH  22  28
ENDBRANCH  18  20
ENDBRANCH  16  18
ENDBRANCH   7  16
TORSDOF 5
ENDMDL
MODEL       17
REMARK 921   NORMALIZED FREE ENERGY PREDICTED BY IDOCK:   -8.17 KCAL/MOL
REMARK 922        TOTAL FREE ENERGY PREDICTED BY IDOCK:  -11.86 KCAL/MOL
REMARK 923 INTER-LIGAND FREE ENERGY PREDICTED BY IDOCK:  -10.38 KCAL/MOL
REMARK 924 INTRA-LIGAND FREE ENERGY PREDICTED BY IDOCK:   -1.49 KCAL/MOL
REMARK 927      BINDING AFFINITY PREDICTED BY RF-SCORE:    0.00 PKD
ROOT
HETATM    1  C   UNL     1     -12.336  14.204  69.473  1.00  0.00    -0.275 C  
HETATM    2  C   UNL     1     -11.618  14.794  68.316  1.00  0.00    -0.323 C  
HETATM    3  N   UNL     1     -10.832  15.832  68.314  1.00  0.00    -0.291 NA 
HETATM    4  N   UNL     1     -10.369  15.998  66.994  1.00  0.00    -0.288 N  
HETATM    5  O   UNL     1     -10.687  14.846  64.906  1.00  0.00    -0.398 OA 
HETATM    6  C   UNL     1     -10.841  15.055  66.094  1.00  0.00    -0.329 C  
HETATM    7  C   UNL     1     -11.731  14.226  66.951  1.00  0.00    -0.408 C  
ENDROOT
BRANCH   4   8
HETATM    8  C   UNL     1      -9.529  17.096  66.690  1.00  0.00    -0.264 A  
HETATM    9  C   UNL     1     -10.044  18.392  66.612  1.00  0.00    -0.399 A  
HETATM   10  C   UNL     1      -9.219  19.482  66.338  1.00  0.00    -0.426 A  
HETATM   11  C   UNL     1      -8.156  16.919  66.473  1.00  0.00    -0.327 A  
HETATM   12  C   UNL     1      -5.841  17.722  65.987  1.00  0.00    -0.241 C  
HETATM   13  C   UNL     1      -7.305  18.008  66.193  1.00  0.00    -0.317 A  
HETATM   14  C   UNL     1      -7.844  19.306  66.130  1.00  0.00    -0.313 A  
HETATM   15  C   UNL     1      -7.007  20.518  65.834  1.00  0.00    -0.223 C  
ENDBRANCH   4   8
BRANCH   7  16
HETATM   16  N   UNL     1     -12.487  13.223  66.629  1.00  0.00    -0.284 NA 
HETATM   17  H   UNL     1     -13.501  13.263  66.730  1.00  0.00     0.000 HD 
BRANCH  16  18
HETATM   18  N   UNL     1     -11.856  12.112  66.148  1.00  0.00    -0.582 NA 
HETATM   19  H   UNL     1     -12.085  11.761  65.219  1.00  0.00     0.000 HD 
BRANCH  18  20
HETATM   20  C   UNL     1     -10.888  11.446  66.932  1.00  0.00    -0.285 A  
HETATM   21  C   UNL     1     -11.222  10.803  68.139  1.00  0.00    -0.302 A  
HETATM   22  C   UNL     1     -10.298  10.056  68.895  1.00  0.00    -0.217 A  
HETATM   23  O   UNL     1     -12.523  10.914  68.590  1.00  0.00    -0.772 OA 
HETATM   24  C   UNL     1      -9.553  11.409  66.521  1.00  0.00    -0.220 A  
HETATM   25  C   UNL     1      -8.963  10.074  68.463  1.00  0.00    -0.124 A  
HETATM   26  H   UNL     1     -12.748  10.481  69.405  1.00  0.00     0.000 HD 
HETATM   27  C   UNL     1      -8.593  10.747  67.293  1.00  0.00    -0.130 A  
BRANCH  22  28
HETATM   28  C   UNL     1     -10.736   9.187  70.008  1.00  0.00    -0.254 A  
HETATM   29  C   UNL     1     -11.436   9.659  71.128  1.00  0.00    -0.456 A  
HETATM   30  C   UNL     1     -11.770   8.796  72.181  1.00  0.00    -0.433 A  
HETATM   31  C   UNL     1     -11.446   7.440  72.114  1.00  0.00    -0.322 A  
HETATM   32  C   UNL     1     -10.781   6.946  70.993  1.00  0.00    -0.258 A  
HETATM   33  C   UNL     1     -10.391   7.823  69.983  1.00  0.00    -0.221 A  
HETATM   34  C   UNL     1     -10.460   5.502  70.903  1.00  0.00    -0.249 C  
HETATM   35  O   UNL     1     -10.519   5.014  69.641  1.00  0.00    -0.255 OA 
HETATM   36  O   UNL     1     -10.205   4.819  71.872  1.00  0.00    -0.192 OA 
ENDBRANCH  22  28
ENDBRANCH  18  20
ENDBRANCH  16  18
ENDBRANCH   7  16
TORSDOF 5
ENDMDL
MODEL       18
REMARK 921   NORMALIZED FREE ENERGY PREDICTED BY IDOCK:   -8.15 KCAL/MOL
REMARK 922        TOTAL FREE ENERGY PREDICTED BY IDOCK:  -11.84 KCAL/MOL
REMARK 923 INTER-LIGAND FREE ENERGY PREDICTED BY IDOCK:  -10.67 KCAL/MOL
REMARK 924 INTRA-LIGAND FREE ENERGY PREDICTED BY IDOCK:   -1.16 KCAL/MOL
REMARK 927      BINDING AFFINITY PREDICTED BY RF-SCORE:    0.00 PKD
ROOT
HETATM    1  C   UNL     1     -12.582  15.527  70.490  1.00  0.00    -0.462 C  
HETATM    2  C   UNL     1     -12.375  14.119  70.069  1.00  0.00    -0.344 C  
HETATM    3  N   UNL     1     -12.380  13.057  70.821  1.00  0.00    -0.360 NA 
HETATM    4  N   UNL     1     -12.161  11.950  69.976  1.00  0.00    -0.309 N  
HETATM    5  O   UNL     1     -11.822  11.636  67.615  1.00  0.00    -0.575 OA 
HETATM    6  C   UNL     1     -12.014  12.269  68.635  1.00  0.00    -0.227 C  
HETATM    7  C   UNL     1     -12.120  13.754  68.654  1.00  0.00    -0.298 C  
ENDROOT
BRANCH   4   8
HETATM    8  C   UNL     1     -12.065  10.657  70.543  1.00  0.00    -0.355 A  
HETATM    9  C   UNL     1     -10.835  10.002  70.629  1.00  0.00    -0.367 A  
HETATM   10  C   UNL     1     -10.728   8.739  71.209  1.00  0.00    -0.339 A  
HETATM   11  C   UNL     1     -13.197  10.001  71.046  1.00  0.00    -0.399 A  
HETATM   12  C   UNL     1     -14.378   8.102  72.157  1.00  0.00    -0.469 C  
HETATM   13  C   UNL     1     -13.110   8.722  71.634  1.00  0.00    -0.394 A  
HETATM   14  C   UNL     1     -11.858   8.087  71.720  1.00  0.00    -0.339 A  
HETATM   15  C   UNL     1     -11.681   6.725  72.328  1.00  0.00    -0.300 C  
ENDBRANCH   4   8
BRANCH   7  16
HETATM   16  N   UNL     1     -12.002  14.603  67.683  1.00  0.00    -0.543 NA 
HETATM   17  H   UNL     1     -12.621  15.409  67.598  1.00  0.00     0.000 HD 
BRANCH  16  18
HETATM   18  N   UNL     1     -11.006  14.363  66.780  1.00  0.00    -0.308 NA 
HETATM   19  H   UNL     1     -11.218  13.877  65.909  1.00  0.00     0.000 HD 
BRANCH  18  20
HETATM   20  C   UNL     1      -9.685  14.783  67.047  1.00  0.00    -0.237 A  
HETATM   21  C   UNL     1      -9.294  16.131  66.926  1.00  0.00    -0.227 A  
HETATM   22  C   UNL     1      -8.009  16.595  67.270  1.00  0.00    -0.193 A  
HETATM   23  O   UNL     1     -10.226  17.032  66.450  1.00  0.00    -0.308 OA 
HETATM   24  C   UNL     1      -8.717  13.858  67.443  1.00  0.00    -0.208 A  
HETATM   25  C   UNL     1      -7.061  15.625  67.631  1.00  0.00    -0.192 A  
HETATM   26  H   UNL     1      -9.963  17.941  66.368  1.00  0.00     0.000 HD 
HETATM   27  C   UNL     1      -7.408  14.272  67.711  1.00  0.00    -0.185 A  
BRANCH  22  28
HETATM   28  C   UNL     1      -7.714  18.039  67.378  1.00  0.00    -0.216 A  
HETATM   29  C   UNL     1      -8.090  18.979  66.407  1.00  0.00    -0.308 A  
HETATM   30  C   UNL     1      -7.727  20.327  66.536  1.00  0.00    -0.283 A  
HETATM   31  C   UNL     1      -7.017  20.764  67.656  1.00  0.00    -0.375 A  
HETATM   32  C   UNL     1      -6.665  19.851  68.647  1.00  0.00    -0.348 A  
HETATM   33  C   UNL     1      -6.969  18.502  68.478  1.00  0.00    -0.284 A  
HETATM   34  C   UNL     1      -5.938  20.314  69.853  1.00  0.00    -0.355 C  
HETATM   35  O   UNL     1      -6.271  19.638  70.977  1.00  0.00    -0.120 OA 
HETATM   36  O   UNL     1      -5.147  21.234  69.835  1.00  0.00    -0.445 OA 
ENDBRANCH  22  28
ENDBRANCH  18  20
ENDBRANCH  16  18
ENDBRANCH   7  16
TORSDOF 5
ENDMDL
MODEL       19
REMARK 921   NORMALIZED FREE ENERGY PREDICTED BY IDOCK:   -8.15 KCAL/MOL
REMARK 922        TOTAL FREE ENERGY PREDICTED BY IDOCK:  -11.83 KCAL/MOL
REMARK 923 INTER-LIGAND FREE ENERGY PREDICTED BY IDOCK:  -10.84 KCAL/MOL
REMARK 924 INTRA-LIGAND FREE ENERGY PREDICTED BY IDOCK:   -0.99 KCAL/MOL
REMARK 927      BINDING AFFINITY PREDICTED BY RF-SCORE:    0.00 PKD
ROOT
HETATM    1  C   UNL     1     -10.417   9.660  68.361  1.00  0.00    -0.258 C  
HETATM    2  C   UNL     1     -10.861   8.858  69.527  1.00  0.00    -0.153 C  
HETATM    3  N   UNL     1     -10.437   7.682  69.890  1.00  0.00    -0.226 NA 
HETATM    4  N   UNL     1     -11.134   7.335  71.065  1.00  0.00    -0.252 N  
HETATM    5  O   UNL     1     -12.802   8.386  72.444  1.00  0.00    -0.335 OA 
HETATM    6  C   UNL     1     -12.034   8.293  71.506  1.00  0.00    -0.296 C  
HETATM    7  C   UNL     1     -11.906   9.345  70.461  1.00  0.00    -0.151 C  
ENDROOT
BRANCH   4   8
HETATM    8  C   UNL     1     -10.905   6.069  71.654  1.00  0.00    -0.260 A  
HETATM    9  C   UNL     1     -11.356   5.789  72.946  1.00  0.00    -0.298 A  
HETATM   10  C   UNL     1     -11.158   4.536  73.525  1.00  0.00    -0.398 A  
HETATM   11  C   UNL     1     -10.234   5.056  70.957  1.00  0.00    -0.283 A  
HETATM   12  C   UNL     1      -9.300   2.754  70.695  1.00  0.00    -0.218 C  
HETATM   13  C   UNL     1     -10.021   3.783  71.525  1.00  0.00    -0.195 A  
HETATM   14  C   UNL     1     -10.494   3.520  72.824  1.00  0.00    -0.216 A  
HETATM   15  C   UNL     1     -10.306   2.192  73.501  1.00  0.00    -0.200 C  
ENDBRANCH   4   8
BRANCH   7  16
HETATM   16  N   UNL     1     -12.555  10.458  70.326  1.00  0.00    -0.502 NA 
HETATM   17  H   UNL     1     -12.933  10.753  69.426  1.00  0.00     0.000 HD 
BRANCH  16  18
HETATM   18  N   UNL     1     -12.708  11.216  71.451  1.00  0.00    -0.421 NA 
HETATM   19  H   UNL     1     -12.701  10.770  72.368  1.00  0.00     0.000 HD 
BRANCH  18  20
HETATM   20  C   UNL     1     -12.877  12.614  71.352  1.00  0.00    -0.261 A  
HETATM   21  C   UNL     1     -12.060  13.405  70.521  1.00  0.00    -0.323 A  
HETATM   22  C   UNL     1     -12.261  14.787  70.333  1.00  0.00    -0.395 A  
HETATM   23  O   UNL     1     -11.018  12.784  69.862  1.00  0.00    -0.410 OA 
HETATM   24  C   UNL     1     -13.875  13.258  72.088  1.00  0.00    -0.555 A  
HETATM   25  C   UNL     1     -13.253  15.396  71.117  1.00  0.00    -0.583 A  
HETATM   26  H   UNL     1     -10.467  13.318  69.302  1.00  0.00     0.000 HD 
HETATM   27  C   UNL     1     -14.047  14.642  71.989  1.00  0.00    -0.603 A  
BRANCH  22  28
HETATM   28  C   UNL     1     -11.558  15.530  69.267  1.00  0.00    -0.369 A  
HETATM   29  C   UNL     1     -10.842  16.715  69.492  1.00  0.00    -0.285 A  
HETATM   30  C   UNL     1     -10.247  17.407  68.429  1.00  0.00    -0.362 A  
HETATM   31  C   UNL     1     -10.324  16.906  67.128  1.00  0.00    -0.304 A  
HETATM   32  C   UNL     1     -11.001  15.712  66.889  1.00  0.00    -0.243 A  
HETATM   33  C   UNL     1     -11.648  15.067  67.941  1.00  0.00    -0.350 A  
HETATM   34  C   UNL     1     -11.061  15.160  65.515  1.00  0.00    -0.345 C  
HETATM   35  O   UNL     1     -11.047  13.807  65.477  1.00  0.00    -0.293 OA 
HETATM   36  O   UNL     1     -11.084  15.857  64.522  1.00  0.00    -0.495 OA 
ENDBRANCH  22  28
ENDBRANCH  18  20
ENDBRANCH  16  18
ENDBRANCH   7  16
TORSDOF 5
ENDMDL
MODEL       20
REMARK 921   NORMALIZED FREE ENERGY PREDICTED BY IDOCK:   -8.12 KCAL/MOL
REMARK 922        TOTAL FREE ENERGY PREDICTED BY IDOCK:  -11.79 KCAL/MOL
REMARK 923 INTER-LIGAND FREE ENERGY PREDICTED BY IDOCK:  -10.34 KCAL/MOL
REMARK 924 INTRA-LIGAND FREE ENERGY PREDICTED BY IDOCK:   -1.46 KCAL/MOL
REMARK 927      BINDING AFFINITY PREDICTED BY RF-SCORE:    0.00 PKD
ROOT
HETATM    1  C   UNL     1     -12.143  13.330  66.572  1.00  0.00    -0.435 C  
HETATM    2  C   UNL     1     -11.622  14.488  67.340  1.00  0.00    -0.385 C  
HETATM    3  N   UNL     1     -10.847  15.442  66.911  1.00  0.00    -0.316 NA 
HETATM    4  N   UNL     1     -10.639  16.324  67.990  1.00  0.00    -0.296 N  
HETATM    5  O   UNL     1     -11.372  16.436  70.279  1.00  0.00    -0.338 OA 
HETATM    6  C   UNL     1     -11.289  15.965  69.161  1.00  0.00    -0.366 C  
HETATM    7  C   UNL     1     -11.951  14.691  68.772  1.00  0.00    -0.266 C  
ENDROOT
BRANCH   4   8
HETATM    8  C   UNL     1      -9.781  17.436  67.817  1.00  0.00    -0.268 A  
HETATM    9  C   UNL     1     -10.123  18.476  66.950  1.00  0.00    -0.396 A  
HETATM   10  C   UNL     1      -9.295  19.587  66.794  1.00  0.00    -0.431 A  
HETATM   11  C   UNL     1      -8.573  17.534  68.520  1.00  0.00    -0.276 A  
HETATM   12  C   UNL     1      -6.450  18.672  69.180  1.00  0.00    -0.287 C  
HETATM   13  C   UNL     1      -7.721  18.649  68.374  1.00  0.00    -0.331 A  
HETATM   14  C   UNL     1      -8.091  19.690  67.503  1.00  0.00    -0.333 A  
HETATM   15  C   UNL     1      -7.239  20.909  67.290  1.00  0.00    -0.408 C  
ENDBRANCH   4   8
BRANCH   7  16
HETATM   16  N   UNL     1     -12.658  13.875  69.489  1.00  0.00    -0.344 NA 
HETATM   17  H   UNL     1     -13.631  13.669  69.264  1.00  0.00     0.000 HD 
BRANCH  16  18
HETATM   18  N   UNL     1     -12.032  13.305  70.560  1.00  0.00    -0.523 NA 
HETATM   19  H   UNL     1     -11.462  13.880  71.179  1.00  0.00     0.000 HD 
BRANCH  18  20
HETATM   20  C   UNL     1     -12.171  11.923  70.815  1.00  0.00    -0.303 A  
HETATM   21  C   UNL     1     -11.351  10.965  70.187  1.00  0.00    -0.284 A  
HETATM   22  C   UNL     1     -11.405   9.589  70.487  1.00  0.00    -0.343 A  
HETATM   23  O   UNL     1     -10.453  11.409  69.237  1.00  0.00    -0.367 OA 
HETATM   24  C   UNL     1     -13.140  11.465  71.710  1.00  0.00    -0.523 A  
HETATM   25  C   UNL     1     -12.416   9.172  71.366  1.00  0.00    -0.396 A  
HETATM   26  H   UNL     1      -9.900  10.762  68.814  1.00  0.00     0.000 HD 
HETATM   27  C   UNL     1     -13.277  10.097  71.967  1.00  0.00    -0.534 A  
BRANCH  22  28
HETATM   28  C   UNL     1     -10.366   8.655  70.008  1.00  0.00    -0.213 A  
HETATM   29  C   UNL     1      -9.203   8.353  70.732  1.00  0.00    -0.186 A  
HETATM   30  C   UNL     1      -8.224   7.506  70.196  1.00  0.00    -0.132 A  
HETATM   31  C   UNL     1      -8.409   6.914  68.945  1.00  0.00    -0.121 A  
HETATM   32  C   UNL     1      -9.573   7.174  68.226  1.00  0.00    -0.136 A  
HETATM   33  C   UNL     1     -10.509   8.072  68.735  1.00  0.00    -0.196 A  
HETATM   34  C   UNL     1      -9.788   6.525  66.911  1.00  0.00    -0.164 C  
HETATM   35  O   UNL     1     -11.087   6.231  66.660  1.00  0.00    -0.292 OA 
HETATM   36  O   UNL     1      -8.883   6.253  66.151  1.00  0.00    -0.147 OA 
ENDBRANCH  22  28
ENDBRANCH  18  20
ENDBRANCH  16  18
ENDBRANCH   7  16
TORSDOF 5
ENDMDL
MODEL       21
REMARK 921   NORMALIZED FREE ENERGY PREDICTED BY IDOCK:   -8.11 KCAL/MOL
REMARK 922        TOTAL FREE ENERGY PREDICTED BY IDOCK:  -11.78 KCAL/MOL
REMARK 923 INTER-LIGAND FREE ENERGY PREDICTED BY IDOCK:  -10.61 KCAL/MOL
REMARK 924 INTRA-LIGAND FREE ENERGY PREDICTED BY IDOCK:   -1.17 KCAL/MOL
REMARK 927      BINDING AFFINITY PREDICTED BY RF-SCORE:    0.00 PKD
ROOT
HETATM    1  C   UNL     1     -12.246  13.885  63.636  1.00  0.00    -0.232 C  
HETATM    2  C   UNL     1     -11.625  14.621  64.765  1.00  0.00    -0.418 C  
HETATM    3  N   UNL     1     -10.957  15.737  64.714  1.00  0.00    -0.488 NA 
HETATM    4  N   UNL     1     -10.583  16.057  66.034  1.00  0.00    -0.328 N  
HETATM    5  O   UNL     1     -10.909  15.059  68.199  1.00  0.00    -0.249 OA 
HETATM    6  C   UNL     1     -11.012  15.149  66.991  1.00  0.00    -0.322 C  
HETATM    7  C   UNL     1     -11.704  14.126  66.161  1.00  0.00    -0.393 C  
ENDROOT
BRANCH   4   8
HETATM    8  C   UNL     1      -9.792  17.207  66.268  1.00  0.00    -0.291 A  
HETATM    9  C   UNL     1     -10.383  18.462  66.430  1.00  0.00    -0.430 A  
HETATM   10  C   UNL     1      -9.613  19.595  66.686  1.00  0.00    -0.479 A  
HETATM   11  C   UNL     1      -8.396  17.119  66.359  1.00  0.00    -0.315 A  
HETATM   12  C   UNL     1      -6.110  18.061  66.709  1.00  0.00    -0.190 C  
HETATM   13  C   UNL     1      -7.600  18.255  66.616  1.00  0.00    -0.259 A  
HETATM   14  C   UNL     1      -8.218  19.507  66.786  1.00  0.00    -0.318 A  
HETATM   15  C   UNL     1      -7.442  20.763  67.060  1.00  0.00    -0.328 C  
ENDBRANCH   4   8
BRANCH   7  16
HETATM   16  N   UNL     1     -12.258  13.010  66.518  1.00  0.00    -0.421 NA 
HETATM   17  H   UNL     1     -13.177  12.985  66.958  1.00  0.00     0.000 HD 
BRANCH  16  18
HETATM   18  N   UNL     1     -11.547  11.871  66.274  1.00  0.00    -0.491 NA 
HETATM   19  H   UNL     1     -11.655  11.386  65.384  1.00  0.00     0.000 HD 
BRANCH  18  20
HETATM   20  C   UNL     1     -10.662  11.359  67.250  1.00  0.00    -0.241 A  
HETATM   21  C   UNL     1     -11.128  10.695  68.401  1.00  0.00    -0.272 A  
HETATM   22  C   UNL     1     -10.271  10.097  69.345  1.00  0.00    -0.246 A  
HETATM   23  O   UNL     1     -12.493  10.631  68.600  1.00  0.00    -0.788 OA 
HETATM   24  C   UNL     1      -9.282  11.502  67.094  1.00  0.00    -0.171 A  
HETATM   25  C   UNL     1      -8.894  10.295  69.165  1.00  0.00    -0.182 A  
HETATM   26  H   UNL     1     -12.807  10.183  69.377  1.00  0.00     0.000 HD 
HETATM   27  C   UNL     1      -8.404  10.994  68.056  1.00  0.00    -0.125 A  
BRANCH  22  28
HETATM   28  C   UNL     1     -10.789   9.193  70.393  1.00  0.00    -0.285 A  
HETATM   29  C   UNL     1     -11.602   9.623  71.452  1.00  0.00    -0.472 A  
HETATM   30  C   UNL     1     -12.012   8.730  72.451  1.00  0.00    -0.369 A  
HETATM   31  C   UNL     1     -11.650   7.383  72.387  1.00  0.00    -0.327 A  
HETATM   32  C   UNL     1     -10.872   6.930  71.323  1.00  0.00    -0.263 A  
HETATM   33  C   UNL     1     -10.411   7.838  70.373  1.00  0.00    -0.212 A  
HETATM   34  C   UNL     1     -10.509   5.495  71.234  1.00  0.00    -0.239 C  
HETATM   35  O   UNL     1     -10.437   5.036  69.962  1.00  0.00    -0.276 OA 
HETATM   36  O   UNL     1     -10.328   4.797  72.208  1.00  0.00    -0.195 OA 
ENDBRANCH  22  28
ENDBRANCH  18  20
ENDBRANCH  16  18
ENDBRANCH   7  16
TORSDOF 5
ENDMDL
MODEL       22
REMARK 921   NORMALIZED FREE ENERGY PREDICTED BY IDOCK:   -8.11 KCAL/MOL
REMARK 922        TOTAL FREE ENERGY PREDICTED BY IDOCK:  -11.78 KCAL/MOL
REMARK 923 INTER-LIGAND FREE ENERGY PREDICTED BY IDOCK:  -10.55 KCAL/MOL
REMARK 924 INTRA-LIGAND FREE ENERGY PREDICTED BY IDOCK:   -1.23 KCAL/MOL
REMARK 927      BINDING AFFINITY PREDICTED BY RF-SCORE:    0.00 PKD
ROOT
HETATM    1  C   UNL     1     -10.430   9.976  66.541  1.00  0.00    -0.223 C  
HETATM    2  C   UNL     1     -10.778   9.884  67.980  1.00  0.00    -0.248 C  
HETATM    3  N   UNL     1     -10.437   8.952  68.822  1.00  0.00    -0.216 NA 
HETATM    4  N   UNL     1     -10.981   9.304  70.073  1.00  0.00    -0.234 N  
HETATM    5  O   UNL     1     -12.292  11.135  70.919  1.00  0.00    -0.360 OA 
HETATM    6  C   UNL     1     -11.691  10.495  70.078  1.00  0.00    -0.312 C  
HETATM    7  C   UNL     1     -11.607  10.914  68.653  1.00  0.00    -0.303 C  
ENDROOT
BRANCH   4   8
HETATM    8  C   UNL     1     -10.808   8.430  71.172  1.00  0.00    -0.237 A  
HETATM    9  C   UNL     1     -11.681   7.360  71.380  1.00  0.00    -0.316 A  
HETATM   10  C   UNL     1     -11.503   6.478  72.447  1.00  0.00    -0.306 A  
HETATM   11  C   UNL     1      -9.750   8.602  72.075  1.00  0.00    -0.391 A  
HETATM   12  C   UNL     1      -8.383   7.981  74.070  1.00  0.00    -0.323 C  
HETATM   13  C   UNL     1      -9.554   7.723  73.161  1.00  0.00    -0.337 A  
HETATM   14  C   UNL     1     -10.440   6.646  73.344  1.00  0.00    -0.313 A  
HETATM   15  C   UNL     1     -10.302   5.667  74.476  1.00  0.00    -0.254 C  
ENDBRANCH   4   8
BRANCH   7  16
HETATM   16  N   UNL     1     -12.141  11.934  68.059  1.00  0.00    -0.507 NA 
HETATM   17  H   UNL     1     -12.924  11.830  67.414  1.00  0.00     0.000 HD 
BRANCH  16  18
HETATM   18  N   UNL     1     -11.601  13.156  68.341  1.00  0.00    -0.314 NA 
HETATM   19  H   UNL     1     -11.531  13.468  69.309  1.00  0.00     0.000 HD 
BRANCH  18  20
HETATM   20  C   UNL     1     -11.139  13.990  67.299  1.00  0.00    -0.302 A  
HETATM   21  C   UNL     1     -10.901  15.364  67.497  1.00  0.00    -0.305 A  
HETATM   22  C   UNL     1     -10.356  16.202  66.504  1.00  0.00    -0.311 A  
HETATM   23  O   UNL     1     -11.215  15.902  68.729  1.00  0.00    -0.314 OA 
HETATM   24  C   UNL     1     -10.905  13.465  66.027  1.00  0.00    -0.281 A  
HETATM   25  C   UNL     1     -10.169  15.639  65.232  1.00  0.00    -0.358 A  
HETATM   26  H   UNL     1     -11.055  16.829  68.862  1.00  0.00     0.000 HD 
HETATM   27  C   UNL     1     -10.445  14.288  64.994  1.00  0.00    -0.458 A  
BRANCH  22  28
HETATM   28  C   UNL     1      -9.881  17.565  66.821  1.00  0.00    -0.306 A  
HETATM   29  C   UNL     1     -10.635  18.723  66.582  1.00  0.00    -0.446 A  
HETATM   30  C   UNL     1     -10.105  19.992  66.848  1.00  0.00    -0.601 A  
HETATM   31  C   UNL     1      -8.826  20.125  67.393  1.00  0.00    -0.440 A  
HETATM   32  C   UNL     1      -8.075  18.984  67.669  1.00  0.00    -0.296 A  
HETATM   33  C   UNL     1      -8.582  17.730  67.338  1.00  0.00    -0.233 A  
HETATM   34  C   UNL     1      -6.729  19.117  68.276  1.00  0.00    -0.250 C  
HETATM   35  O   UNL     1      -6.419  18.110  69.127  1.00  0.00    -0.240 OA 
HETATM   36  O   UNL     1      -5.994  20.056  68.056  1.00  0.00    -0.213 OA 
ENDBRANCH  22  28
ENDBRANCH  18  20
ENDBRANCH  16  18
ENDBRANCH   7  16
TORSDOF 5
ENDMDL
MODEL       23
REMARK 921   NORMALIZED FREE ENERGY PREDICTED BY IDOCK:   -7.99 KCAL/MOL
REMARK 922        TOTAL FREE ENERGY PREDICTED BY IDOCK:  -11.63 KCAL/MOL
REMARK 923 INTER-LIGAND FREE ENERGY PREDICTED BY IDOCK:  -10.19 KCAL/MOL
REMARK 924 INTRA-LIGAND FREE ENERGY PREDICTED BY IDOCK:   -1.44 KCAL/MOL
REMARK 927      BINDING AFFINITY PREDICTED BY RF-SCORE:    0.00 PKD
ROOT
HETATM    1  C   UNL     1      -7.580  13.102  66.868  1.00  0.00     0.296 C  
HETATM    2  C   UNL     1      -8.926  13.470  67.372  1.00  0.00    -0.219 C  
HETATM    3  N   UNL     1      -9.246  13.852  68.574  1.00  0.00    -0.185 NA 
HETATM    4  N   UNL     1     -10.631  14.111  68.572  1.00  0.00    -0.246 N  
HETATM    5  O   UNL     1     -12.390  14.017  66.933  1.00  0.00    -0.418 OA 
HETATM    6  C   UNL     1     -11.253  13.909  67.349  1.00  0.00    -0.312 C  
HETATM    7  C   UNL     1     -10.126  13.434  66.501  1.00  0.00    -0.280 C  
ENDROOT
BRANCH   4   8
HETATM    8  C   UNL     1     -11.264  14.497  69.777  1.00  0.00    -0.234 A  
HETATM    9  C   UNL     1     -11.035  15.757  70.334  1.00  0.00    -0.369 A  
HETATM   10  C   UNL     1     -11.674  16.155  71.508  1.00  0.00    -0.533 A  
HETATM   11  C   UNL     1     -12.148  13.634  70.439  1.00  0.00    -0.421 A  
HETATM   12  C   UNL     1     -13.745  13.028  72.261  1.00  0.00    -0.608 C  
HETATM   13  C   UNL     1     -12.803  14.017  71.628  1.00  0.00    -0.433 A  
HETATM   14  C   UNL     1     -12.565  15.296  72.165  1.00  0.00    -0.428 A  
HETATM   15  C   UNL     1     -13.220  15.778  73.428  1.00  0.00    -0.653 C  
ENDBRANCH   4   8
BRANCH   7  16
HETATM   16  N   UNL     1     -10.130  13.039  65.267  1.00  0.00    -0.415 NA 
HETATM   17  H   UNL     1      -9.739  13.611  64.519  1.00  0.00     0.000 HD 
BRANCH  16  18
HETATM   18  N   UNL     1     -10.685  11.816  65.020  1.00  0.00    -0.283 NA 
HETATM   19  H   UNL     1     -11.598  11.755  64.570  1.00  0.00     0.000 HD 
BRANCH  18  20
HETATM   20  C   UNL     1     -10.002  10.635  65.385  1.00  0.00    -0.281 A  
HETATM   21  C   UNL     1     -10.276   9.960  66.591  1.00  0.00    -0.226 A  
HETATM   22  C   UNL     1      -9.676   8.734  66.940  1.00  0.00    -0.273 A  
HETATM   23  O   UNL     1     -11.181  10.536  67.460  1.00  0.00    -0.320 OA 
HETATM   24  C   UNL     1      -9.022  10.100  64.546  1.00  0.00    -0.253 A  
HETATM   25  C   UNL     1      -8.674   8.252  66.084  1.00  0.00    -0.174 A  
HETATM   26  H   UNL     1     -11.365  10.080  68.273  1.00  0.00     0.000 HD 
HETATM   27  C   UNL     1      -8.346   8.929  64.904  1.00  0.00    -0.181 A  
BRANCH  22  28
HETATM   28  C   UNL     1     -10.172   7.930  68.076  1.00  0.00    -0.256 A  
HETATM   29  C   UNL     1     -10.760   6.665  67.930  1.00  0.00    -0.341 A  
HETATM   30  C   UNL     1     -11.267   5.977  69.041  1.00  0.00    -0.298 A  
HETATM   31  C   UNL     1     -11.161   6.525  70.321  1.00  0.00    -0.392 A  
HETATM   32  C   UNL     1     -10.549   7.765  70.490  1.00  0.00    -0.226 A  
HETATM   33  C   UNL     1     -10.110   8.473  69.373  1.00  0.00    -0.205 A  
HETATM   34  C   UNL     1     -10.406   8.338  71.850  1.00  0.00    -0.255 C  
HETATM   35  O   UNL     1      -9.272   9.059  72.015  1.00  0.00    -0.373 OA 
HETATM   36  O   UNL     1     -11.212   8.148  72.736  1.00  0.00    -0.389 OA 
ENDBRANCH  22  28
ENDBRANCH  18  20
ENDBRANCH  16  18
ENDBRANCH   7  16
TORSDOF 5
ENDMDL
MODEL       24
REMARK 921   NORMALIZED FREE ENERGY PREDICTED BY IDOCK:   -7.92 KCAL/MOL
REMARK 922        TOTAL FREE ENERGY PREDICTED BY IDOCK:  -11.54 KCAL/MOL
REMARK 923 INTER-LIGAND FREE ENERGY PREDICTED BY IDOCK:  -10.32 KCAL/MOL
REMARK 924 INTRA-LIGAND FREE ENERGY PREDICTED BY IDOCK:   -1.21 KCAL/MOL
REMARK 927      BINDING AFFINITY PREDICTED BY RF-SCORE:    0.00 PKD
ROOT
HETATM    1  C   UNL     1     -12.055  13.035  63.413  1.00  0.00    -0.591 C  
HETATM    2  C   UNL     1     -11.504  13.806  64.554  1.00  0.00    -0.384 C  
HETATM    3  N   UNL     1     -10.846  14.928  64.511  1.00  0.00    -0.250 NA 
HETATM    4  N   UNL     1     -10.547  15.285  65.841  1.00  0.00    -0.318 N  
HETATM    5  O   UNL     1     -10.981  14.337  68.010  1.00  0.00    -0.241 OA 
HETATM    6  C   UNL     1     -11.018  14.396  66.796  1.00  0.00    -0.314 C  
HETATM    7  C   UNL     1     -11.653  13.345  65.956  1.00  0.00    -0.344 C  
ENDROOT
BRANCH   4   8
HETATM    8  C   UNL     1      -9.783  16.449  66.089  1.00  0.00    -0.327 A  
HETATM    9  C   UNL     1      -8.393  16.382  66.205  1.00  0.00    -0.362 A  
HETATM   10  C   UNL     1      -7.630  17.529  66.424  1.00  0.00    -0.329 A  
HETATM   11  C   UNL     1     -10.395  17.705  66.211  1.00  0.00    -0.342 A  
HETATM   12  C   UNL     1     -10.384  20.180  66.539  1.00  0.00    -0.508 C  
HETATM   13  C   UNL     1      -9.641  18.876  66.434  1.00  0.00    -0.377 A  
HETATM   14  C   UNL     1      -8.241  18.785  66.537  1.00  0.00    -0.303 A  
HETATM   15  C   UNL     1      -7.367  19.984  66.777  1.00  0.00    -0.278 C  
ENDBRANCH   4   8
BRANCH   7  16
HETATM   16  N   UNL     1     -12.213  12.231  66.311  1.00  0.00    -0.557 NA 
HETATM   17  H   UNL     1     -12.833  11.719  65.682  1.00  0.00     0.000 HD 
BRANCH  16  18
HETATM   18  N   UNL     1     -11.932  11.779  67.567  1.00  0.00    -0.607 NA 
HETATM   19  H   UNL     1     -12.310  12.267  68.379  1.00  0.00     0.000 HD 
BRANCH  18  20
HETATM   20  C   UNL     1     -11.118  10.639  67.750  1.00  0.00    -0.321 A  
HETATM   21  C   UNL     1     -10.741  10.192  69.031  1.00  0.00    -0.221 A  
HETATM   22  C   UNL     1     -10.006   9.010  69.249  1.00  0.00    -0.188 A  
HETATM   23  O   UNL     1     -11.120  10.955  70.118  1.00  0.00    -0.405 OA 
HETATM   24  C   UNL     1     -10.659   9.916  66.646  1.00  0.00    -0.186 A  
HETATM   25  C   UNL     1      -9.539   8.335  68.111  1.00  0.00    -0.163 A  
HETATM   26  H   UNL     1     -10.865  10.654  70.982  1.00  0.00     0.000 HD 
HETATM   27  C   UNL     1      -9.856   8.786  66.825  1.00  0.00    -0.316 A  
BRANCH  22  28
HETATM   28  C   UNL     1      -9.852   8.437  70.603  1.00  0.00    -0.208 A  
HETATM   29  C   UNL     1      -8.845   8.827  71.498  1.00  0.00    -0.295 A  
HETATM   30  C   UNL     1      -8.713   8.203  72.745  1.00  0.00    -0.281 A  
HETATM   31  C   UNL     1      -9.608   7.205  73.135  1.00  0.00    -0.213 A  
HETATM   32  C   UNL     1     -10.636   6.828  72.273  1.00  0.00    -0.241 A  
HETATM   33  C   UNL     1     -10.718   7.405  71.008  1.00  0.00    -0.244 A  
HETATM   34  C   UNL     1     -11.608   5.791  72.694  1.00  0.00    -0.253 C  
HETATM   35  O   UNL     1     -12.859   6.000  72.219  1.00  0.00    -0.023 OA 
HETATM   36  O   UNL     1     -11.314   4.865  73.421  1.00  0.00    -0.333 OA 
ENDBRANCH  22  28
ENDBRANCH  18  20
ENDBRANCH  16  18
ENDBRANCH   7  16
TORSDOF 5
ENDMDL
MODEL       25
REMARK 921   NORMALIZED FREE ENERGY PREDICTED BY IDOCK:   -7.92 KCAL/MOL
REMARK 922        TOTAL FREE ENERGY PREDICTED BY IDOCK:  -11.53 KCAL/MOL
REMARK 923 INTER-LIGAND FREE ENERGY PREDICTED BY IDOCK:  -10.21 KCAL/MOL
REMARK 924 INTRA-LIGAND FREE ENERGY PREDICTED BY IDOCK:   -1.32 KCAL/MOL
REMARK 927      BINDING AFFINITY PREDICTED BY RF-SCORE:    0.00 PKD
ROOT
HETATM    1  C   UNL     1     -12.210  12.659  65.242  1.00  0.00    -0.532 C  
HETATM    2  C   UNL     1     -11.498  13.651  66.084  1.00  0.00    -0.325 C  
HETATM    3  N   UNL     1     -10.859  14.714  65.690  1.00  0.00    -0.315 NA 
HETATM    4  N   UNL     1     -10.366  15.353  66.845  1.00  0.00    -0.272 N  
HETATM    5  O   UNL     1     -10.462  14.932  69.211  1.00  0.00    -0.235 OA 
HETATM    6  C   UNL     1     -10.682  14.717  68.035  1.00  0.00    -0.246 C  
HETATM    7  C   UNL     1     -11.432  13.522  67.560  1.00  0.00    -0.329 C  
ENDROOT
BRANCH   4   8
HETATM    8  C   UNL     1      -9.579  16.521  66.705  1.00  0.00    -0.258 A  
HETATM    9  C   UNL     1      -8.240  16.439  66.316  1.00  0.00    -0.343 A  
HETATM   10  C   UNL     1      -7.464  17.587  66.151  1.00  0.00    -0.334 A  
HETATM   11  C   UNL     1     -10.121  17.792  66.938  1.00  0.00    -0.342 A  
HETATM   12  C   UNL     1     -10.025  20.285  67.040  1.00  0.00    -0.601 C  
HETATM   13  C   UNL     1      -9.353  18.964  66.779  1.00  0.00    -0.343 A  
HETATM   14  C   UNL     1      -8.009  18.858  66.376  1.00  0.00    -0.300 A  
HETATM   15  C   UNL     1      -7.123  20.057  66.187  1.00  0.00    -0.291 C  
ENDBRANCH   4   8
BRANCH   7  16
HETATM   16  N   UNL     1     -11.926  12.535  68.238  1.00  0.00    -0.296 NA 
HETATM   17  H   UNL     1     -12.688  11.963  67.873  1.00  0.00     0.000 HD 
BRANCH  16  18
HETATM   18  N   UNL     1     -11.375  12.299  69.464  1.00  0.00    -0.438 NA 
HETATM   19  H   UNL     1     -10.652  12.921  69.823  1.00  0.00     0.000 HD 
BRANCH  18  20
HETATM   20  C   UNL     1     -11.802  11.197  70.238  1.00  0.00    -0.366 A  
HETATM   21  C   UNL     1     -11.298   9.898  70.024  1.00  0.00    -0.249 A  
HETATM   22  C   UNL     1     -11.636   8.798  70.836  1.00  0.00    -0.320 A  
HETATM   23  O   UNL     1     -10.429   9.710  68.967  1.00  0.00    -0.200 OA 
HETATM   24  C   UNL     1     -12.748  11.370  71.250  1.00  0.00    -0.498 A  
HETATM   25  C   UNL     1     -12.615   9.012  71.818  1.00  0.00    -0.434 A  
HETATM   26  H   UNL     1     -10.090   8.835  68.823  1.00  0.00     0.000 HD 
HETATM   27  C   UNL     1     -13.169  10.281  72.019  1.00  0.00    -0.516 A  
BRANCH  22  28
HETATM   28  C   UNL     1     -10.899   7.520  70.747  1.00  0.00    -0.253 A  
HETATM   29  C   UNL     1     -11.282   6.463  69.909  1.00  0.00    -0.485 A  
HETATM   30  C   UNL     1     -10.578   5.251  69.915  1.00  0.00    -0.292 A  
HETATM   31  C   UNL     1      -9.455   5.090  70.729  1.00  0.00    -0.230 A  
HETATM   32  C   UNL     1      -9.039   6.141  71.543  1.00  0.00    -0.145 A  
HETATM   33  C   UNL     1      -9.785   7.317  71.583  1.00  0.00    -0.166 A  
HETATM   34  C   UNL     1      -7.831   5.986  72.388  1.00  0.00    -0.102 C  
HETATM   35  O   UNL     1      -7.123   7.132  72.531  1.00  0.00    -0.068 OA 
HETATM   36  O   UNL     1      -7.493   4.927  72.872  1.00  0.00    -0.087 OA 
ENDBRANCH  22  28
ENDBRANCH  18  20
ENDBRANCH  16  18
ENDBRANCH   7  16
TORSDOF 5
ENDMDL
MODEL       26
REMARK 921   NORMALIZED FREE ENERGY PREDICTED BY IDOCK:   -7.88 KCAL/MOL
REMARK 922        TOTAL FREE ENERGY PREDICTED BY IDOCK:  -11.49 KCAL/MOL
REMARK 923 INTER-LIGAND FREE ENERGY PREDICTED BY IDOCK:  -10.02 KCAL/MOL
REMARK 924 INTRA-LIGAND FREE ENERGY PREDICTED BY IDOCK:   -1.47 KCAL/MOL
REMARK 927      BINDING AFFINITY PREDICTED BY RF-SCORE:    0.00 PKD
ROOT
HETATM    1  C   UNL     1      -7.670   7.858  64.599  1.00  0.00    -0.120 C  
HETATM    2  C   UNL     1      -8.471   8.375  65.736  1.00  0.00    -0.156 C  
HETATM    3  N   UNL     1      -8.451   7.966  66.971  1.00  0.00    -0.122 NA 
HETATM    4  N   UNL     1      -9.363   8.768  67.687  1.00  0.00    -0.136 N  
HETATM    5  O   UNL     1     -10.823  10.603  67.149  1.00  0.00    -0.274 OA 
HETATM    6  C   UNL     1     -10.000   9.737  66.926  1.00  0.00    -0.211 C  
HETATM    7  C   UNL     1      -9.443   9.483  65.570  1.00  0.00    -0.268 C  
ENDROOT
BRANCH   4   8
HETATM    8  C   UNL     1      -9.584   8.505  69.060  1.00  0.00    -0.167 A  
HETATM    9  C   UNL     1      -8.701   8.980  70.031  1.00  0.00    -0.164 A  
HETATM   10  C   UNL     1      -8.925   8.748  71.388  1.00  0.00    -0.307 A  
HETATM   11  C   UNL     1     -10.701   7.773  69.486  1.00  0.00    -0.200 A  
HETATM   12  C   UNL     1     -12.176   6.741  71.216  1.00  0.00    -0.415 C  
HETATM   13  C   UNL     1     -10.944   7.525  70.853  1.00  0.00    -0.267 A  
HETATM   14  C   UNL     1     -10.047   8.024  71.815  1.00  0.00    -0.249 A  
HETATM   15  C   UNL     1     -10.232   7.801  73.289  1.00  0.00    -0.367 C  
ENDBRANCH   4   8
BRANCH   7  16
HETATM   16  N   UNL     1      -9.723  10.055  64.442  1.00  0.00    -0.384 NA 
HETATM   17  H   UNL     1     -10.214   9.561  63.697  1.00  0.00     0.000 HD 
BRANCH  16  18
HETATM   18  N   UNL     1      -9.328  11.354  64.301  1.00  0.00    -0.404 NA 
HETATM   19  H   UNL     1      -8.359  11.567  64.065  1.00  0.00     0.000 HD 
BRANCH  18  20
HETATM   20  C   UNL     1     -10.253  12.406  64.482  1.00  0.00    -0.299 A  
HETATM   21  C   UNL     1     -10.111  13.353  65.515  1.00  0.00    -0.266 A  
HETATM   22  C   UNL     1     -10.966  14.462  65.665  1.00  0.00    -0.314 A  
HETATM   23  O   UNL     1      -9.076  13.177  66.413  1.00  0.00    -0.416 OA 
HETATM   24  C   UNL     1     -11.350  12.533  63.628  1.00  0.00    -0.555 A  
HETATM   25  C   UNL     1     -12.072  14.531  64.806  1.00  0.00    -0.454 A  
HETATM   26  H   UNL     1      -8.981  13.815  67.109  1.00  0.00     0.000 HD 
HETATM   27  C   UNL     1     -12.267  13.576  63.802  1.00  0.00    -0.449 A  
BRANCH  22  28
HETATM   28  C   UNL     1     -10.638  15.567  66.590  1.00  0.00    -0.307 A  
HETATM   29  C   UNL     1     -11.121  15.644  67.905  1.00  0.00    -0.324 A  
HETATM   30  C   UNL     1     -10.825  16.749  68.715  1.00  0.00    -0.318 A  
HETATM   31  C   UNL     1     -10.009  17.777  68.237  1.00  0.00    -0.355 A  
HETATM   32  C   UNL     1      -9.492  17.702  66.946  1.00  0.00    -0.278 A  
HETATM   33  C   UNL     1      -9.847  16.634  66.124  1.00  0.00    -0.340 A  
HETATM   34  C   UNL     1      -8.601  18.775  66.444  1.00  0.00    -0.284 C  
HETATM   35  O   UNL     1      -7.637  18.327  65.605  1.00  0.00    -0.532 OA 
HETATM   36  O   UNL     1      -8.707  19.935  66.782  1.00  0.00    -0.314 OA 
ENDBRANCH  22  28
ENDBRANCH  18  20
ENDBRANCH  16  18
ENDBRANCH   7  16
TORSDOF 5
ENDMDL
MODEL       27
REMARK 921   NORMALIZED FREE ENERGY PREDICTED BY IDOCK:   -7.87 KCAL/MOL
REMARK 922        TOTAL FREE ENERGY PREDICTED BY IDOCK:  -11.48 KCAL/MOL
REMARK 923 INTER-LIGAND FREE ENERGY PREDICTED BY IDOCK:  -10.26 KCAL/MOL
REMARK 924 INTRA-LIGAND FREE ENERGY PREDICTED BY IDOCK:   -1.22 KCAL/MOL
REMARK 927      BINDING AFFINITY PREDICTED BY RF-SCORE:    0.00 PKD
ROOT
HETATM    1  C   UNL     1     -12.276  12.857  63.856  1.00  0.00    -0.525 C  
HETATM    2  C   UNL     1     -11.580  13.643  64.904  1.00  0.00    -0.344 C  
HETATM    3  N   UNL     1     -10.950  14.773  64.761  1.00  0.00    -0.393 NA 
HETATM    4  N   UNL     1     -10.472  15.144  66.034  1.00  0.00    -0.303 N  
HETATM    5  O   UNL     1     -10.584  14.208  68.248  1.00  0.00    -0.239 OA 
HETATM    6  C   UNL     1     -10.792  14.257  67.051  1.00  0.00    -0.297 C  
HETATM    7  C   UNL     1     -11.525  13.192  66.315  1.00  0.00    -0.334 C  
ENDROOT
BRANCH   4   8
HETATM    8  C   UNL     1      -9.696  16.320  66.165  1.00  0.00    -0.329 A  
HETATM    9  C   UNL     1      -8.302  16.256  66.223  1.00  0.00    -0.343 A  
HETATM   10  C   UNL     1      -7.529  17.412  66.326  1.00  0.00    -0.354 A  
HETATM   11  C   UNL     1     -10.301  17.583  66.225  1.00  0.00    -0.335 A  
HETATM   12  C   UNL     1     -10.273  20.076  66.378  1.00  0.00    -0.598 C  
HETATM   13  C   UNL     1      -9.536  18.764  66.332  1.00  0.00    -0.354 A  
HETATM   14  C   UNL     1      -8.133  18.675  66.377  1.00  0.00    -0.300 A  
HETATM   15  C   UNL     1      -7.248  19.884  66.493  1.00  0.00    -0.275 C  
ENDBRANCH   4   8
BRANCH   7  16
HETATM   16  N   UNL     1     -12.015  12.074  66.752  1.00  0.00    -0.610 NA 
HETATM   17  H   UNL     1     -12.987  11.814  66.586  1.00  0.00     0.000 HD 
BRANCH  16  18
HETATM   18  N   UNL     1     -11.163  11.263  67.444  1.00  0.00    -0.336 NA 
HETATM   19  H   UNL     1     -10.312  10.921  66.997  1.00  0.00     0.000 HD 
BRANCH  18  20
HETATM   20  C   UNL     1     -11.453  10.894  68.776  1.00  0.00    -0.308 A  
HETATM   21  C   UNL     1     -10.835   9.789  69.393  1.00  0.00    -0.232 A  
HETATM   22  C   UNL     1     -11.036   9.450  70.746  1.00  0.00    -0.365 A  
HETATM   23  O   UNL     1      -9.991   9.011  68.626  1.00  0.00    -0.162 OA 
HETATM   24  C   UNL     1     -12.374  11.628  69.526  1.00  0.00    -0.152 A  
HETATM   25  C   UNL     1     -11.995  10.194  71.450  1.00  0.00    -0.447 A  
HETATM   26  H   UNL     1      -9.575   8.265  69.042  1.00  0.00     0.000 HD 
HETATM   27  C   UNL     1     -12.661  11.267  70.847  1.00  0.00    -0.467 A  
BRANCH  22  28
HETATM   28  C   UNL     1     -10.183   8.452  71.425  1.00  0.00    -0.284 A  
HETATM   29  C   UNL     1      -8.849   8.692  71.785  1.00  0.00    -0.281 A  
HETATM   30  C   UNL     1      -8.072   7.684  72.372  1.00  0.00    -0.132 A  
HETATM   31  C   UNL     1      -8.627   6.432  72.645  1.00  0.00    -0.122 A  
HETATM   32  C   UNL     1      -9.961   6.187  72.327  1.00  0.00    -0.186 A  
HETATM   33  C   UNL     1     -10.706   7.171  71.680  1.00  0.00    -0.236 A  
HETATM   34  C   UNL     1     -10.564   4.870  72.641  1.00  0.00    -0.215 C  
HETATM   35  O   UNL     1     -11.871   4.944  72.986  1.00  0.00    -0.251 OA 
HETATM   36  O   UNL     1      -9.935   3.833  72.625  1.00  0.00    -0.144 OA 
ENDBRANCH  22  28
ENDBRANCH  18  20
ENDBRANCH  16  18
ENDBRANCH   7  16
TORSDOF 5
ENDMDL
MODEL       28
REMARK 921   NORMALIZED FREE ENERGY PREDICTED BY IDOCK:   -7.87 KCAL/MOL
REMARK 922        TOTAL FREE ENERGY PREDICTED BY IDOCK:  -11.47 KCAL/MOL
REMARK 923 INTER-LIGAND FREE ENERGY PREDICTED BY IDOCK:  -10.13 KCAL/MOL
REMARK 924 INTRA-LIGAND FREE ENERGY PREDICTED BY IDOCK:   -1.34 KCAL/MOL
REMARK 927      BINDING AFFINITY PREDICTED BY RF-SCORE:    0.00 PKD
ROOT
HETATM    1  C   UNL     1     -14.410   8.097  72.187  1.00  0.00    -0.469 C  
HETATM    2  C   UNL     1     -12.988   8.167  71.767  1.00  0.00    -0.342 C  
HETATM    3  N   UNL     1     -12.083   7.238  71.873  1.00  0.00    -0.305 NA 
HETATM    4  N   UNL     1     -10.893   7.755  71.322  1.00  0.00    -0.229 N  
HETATM    5  O   UNL     1     -10.240   9.828  70.291  1.00  0.00    -0.261 OA 
HETATM    6  C   UNL     1     -10.999   9.047  70.830  1.00  0.00    -0.258 C  
HETATM    7  C   UNL     1     -12.414   9.384  71.144  1.00  0.00    -0.293 C  
ENDROOT
BRANCH   4   8
HETATM    8  C   UNL     1      -9.718   6.967  71.353  1.00  0.00    -0.174 A  
HETATM    9  C   UNL     1      -9.463   6.022  70.356  1.00  0.00    -0.187 A  
HETATM   10  C   UNL     1      -8.296   5.259  70.365  1.00  0.00    -0.111 A  
HETATM   11  C   UNL     1      -8.771   7.119  72.374  1.00  0.00    -0.138 A  
HETATM   12  C   UNL     1      -6.620   6.598  73.532  1.00  0.00    -0.065 C  
HETATM   13  C   UNL     1      -7.585   6.356  72.402  1.00  0.00    -0.097 A  
HETATM   14  C   UNL     1      -7.344   5.418  71.382  1.00  0.00    -0.080 A  
HETATM   15  C   UNL     1      -6.108   4.565  71.341  1.00  0.00    -0.018 C  
ENDBRANCH   4   8
BRANCH   7  16
HETATM   16  N   UNL     1     -13.059  10.493  70.961  1.00  0.00    -0.371 NA 
HETATM   17  H   UNL     1     -13.622  10.654  70.126  1.00  0.00     0.000 HD 
BRANCH  16  18
HETATM   18  N   UNL     1     -12.945  11.435  71.942  1.00  0.00    -0.433 NA 
HETATM   19  H   UNL     1     -12.805  11.146  72.910  1.00  0.00     0.000 HD 
BRANCH  18  20
HETATM   20  C   UNL     1     -13.021  12.809  71.625  1.00  0.00    -0.303 A  
HETATM   21  C   UNL     1     -12.209  13.389  70.629  1.00  0.00    -0.350 A  
HETATM   22  C   UNL     1     -12.325  14.734  70.229  1.00  0.00    -0.400 A  
HETATM   23  O   UNL     1     -11.263  12.587  70.022  1.00  0.00    -0.487 OA 
HETATM   24  C   UNL     1     -13.916  13.641  72.300  1.00  0.00    -0.661 A  
HETATM   25  C   UNL     1     -13.213  15.539  70.958  1.00  0.00    -0.539 A  
HETATM   26  H   UNL     1     -10.716  12.978  69.352  1.00  0.00     0.000 HD 
HETATM   27  C   UNL     1     -13.996  15.001  71.985  1.00  0.00    -0.605 A  
BRANCH  22  28
HETATM   28  C   UNL     1     -11.646  15.238  69.016  1.00  0.00    -0.360 A  
HETATM   29  C   UNL     1     -11.704  14.591  67.773  1.00  0.00    -0.403 A  
HETATM   30  C   UNL     1     -10.988  15.085  66.674  1.00  0.00    -0.325 A  
HETATM   31  C   UNL     1     -10.234  16.254  66.788  1.00  0.00    -0.280 A  
HETATM   32  C   UNL     1     -10.192  16.929  68.006  1.00  0.00    -0.310 A  
HETATM   33  C   UNL     1     -10.850  16.394  69.112  1.00  0.00    -0.329 A  
HETATM   34  C   UNL     1      -9.417  18.187  68.126  1.00  0.00    -0.294 C  
HETATM   35  O   UNL     1      -9.973  19.084  68.975  1.00  0.00    -0.402 OA 
HETATM   36  O   UNL     1      -8.403  18.402  67.497  1.00  0.00    -0.249 OA 
ENDBRANCH  22  28
ENDBRANCH  18  20
ENDBRANCH  16  18
ENDBRANCH   7  16
TORSDOF 5
ENDMDL
MODEL       29
REMARK 921   NORMALIZED FREE ENERGY PREDICTED BY IDOCK:   -7.81 KCAL/MOL
REMARK 922        TOTAL FREE ENERGY PREDICTED BY IDOCK:  -11.40 KCAL/MOL
REMARK 923 INTER-LIGAND FREE ENERGY PREDICTED BY IDOCK:  -10.33 KCAL/MOL
REMARK 924 INTRA-LIGAND FREE ENERGY PREDICTED BY IDOCK:   -1.07 KCAL/MOL
REMARK 927      BINDING AFFINITY PREDICTED BY RF-SCORE:    0.00 PKD
ROOT
HETATM    1  C   UNL     1     -10.666   9.642  68.722  1.00  0.00    -0.234 C  
HETATM    2  C   UNL     1     -10.997   8.951  69.993  1.00  0.00    -0.206 C  
HETATM    3  N   UNL     1     -10.469   7.859  70.463  1.00  0.00    -0.211 NA 
HETATM    4  N   UNL     1     -11.085   7.602  71.704  1.00  0.00    -0.236 N  
HETATM    5  O   UNL     1     -12.767   8.685  73.041  1.00  0.00    -0.242 OA 
HETATM    6  C   UNL     1     -12.036   8.538  72.081  1.00  0.00    -0.383 C  
HETATM    7  C   UNL     1     -12.034   9.468  70.919  1.00  0.00    -0.295 C  
ENDROOT
BRANCH   4   8
HETATM    8  C   UNL     1     -10.735   6.432  72.420  1.00  0.00    -0.226 A  
HETATM    9  C   UNL     1     -11.655   5.397  72.594  1.00  0.00    -0.270 A  
HETATM   10  C   UNL     1     -11.310   4.230  73.276  1.00  0.00    -0.301 A  
HETATM   11  C   UNL     1      -9.452   6.272  72.962  1.00  0.00    -0.145 A  
HETATM   12  C   UNL     1      -7.681   5.014  74.194  1.00  0.00    -0.094 C  
HETATM   13  C   UNL     1      -9.085   5.101  73.657  1.00  0.00    -0.123 A  
HETATM   14  C   UNL     1     -10.025   4.066  73.811  1.00  0.00    -0.173 A  
HETATM   15  C   UNL     1      -9.714   2.790  74.539  1.00  0.00    -0.135 C  
ENDBRANCH   4   8
BRANCH   7  16
HETATM   16  N   UNL     1     -12.771  10.509  70.694  1.00  0.00    -0.371 NA 
HETATM   17  H   UNL     1     -13.212  10.668  69.788  1.00  0.00     0.000 HD 
BRANCH  16  18
HETATM   18  N   UNL     1     -12.928  11.383  71.731  1.00  0.00    -0.456 NA 
HETATM   19  H   UNL     1     -12.975  11.032  72.687  1.00  0.00     0.000 HD 
BRANCH  18  20
HETATM   20  C   UNL     1     -13.024  12.771  71.487  1.00  0.00    -0.292 A  
HETATM   21  C   UNL     1     -12.216  13.415  70.530  1.00  0.00    -0.352 A  
HETATM   22  C   UNL     1     -12.350  14.779  70.201  1.00  0.00    -0.381 A  
HETATM   23  O   UNL     1     -11.252  12.663  69.888  1.00  0.00    -0.484 OA 
HETATM   24  C   UNL     1     -13.937  13.550  72.199  1.00  0.00    -0.575 A  
HETATM   25  C   UNL     1     -13.256  15.529  70.965  1.00  0.00    -0.539 A  
HETATM   26  H   UNL     1     -10.707  13.098  69.243  1.00  0.00     0.000 HD 
HETATM   27  C   UNL     1     -14.037  14.924  71.957  1.00  0.00    -0.613 A  
BRANCH  22  28
HETATM   28  C   UNL     1     -11.672  15.357  69.022  1.00  0.00    -0.380 A  
HETATM   29  C   UNL     1     -11.707  14.774  67.747  1.00  0.00    -0.368 A  
HETATM   30  C   UNL     1     -10.992  15.338  66.681  1.00  0.00    -0.297 A  
HETATM   31  C   UNL     1     -10.263  16.515  66.862  1.00  0.00    -0.296 A  
HETATM   32  C   UNL     1     -10.246  17.128  68.114  1.00  0.00    -0.332 A  
HETATM   33  C   UNL     1     -10.902  16.523  69.184  1.00  0.00    -0.334 A  
HETATM   34  C   UNL     1      -9.498  18.393  68.305  1.00  0.00    -0.324 C  
HETATM   35  O   UNL     1     -10.080  19.234  69.193  1.00  0.00    -0.401 OA 
HETATM   36  O   UNL     1      -8.484  18.661  67.696  1.00  0.00    -0.263 OA 
ENDBRANCH  22  28
ENDBRANCH  18  20
ENDBRANCH  16  18
ENDBRANCH   7  16
TORSDOF 5
ENDMDL
MODEL       30
REMARK 921   NORMALIZED FREE ENERGY PREDICTED BY IDOCK:   -7.80 KCAL/MOL
REMARK 922        TOTAL FREE ENERGY PREDICTED BY IDOCK:  -11.38 KCAL/MOL
REMARK 923 INTER-LIGAND FREE ENERGY PREDICTED BY IDOCK:   -9.87 KCAL/MOL
REMARK 924 INTRA-LIGAND FREE ENERGY PREDICTED BY IDOCK:   -1.51 KCAL/MOL
REMARK 927      BINDING AFFINITY PREDICTED BY RF-SCORE:    0.00 PKD
ROOT
HETATM    1  C   UNL     1     -12.229  13.127  63.336  1.00  0.00    -0.521 C  
HETATM    2  C   UNL     1     -11.426  13.780  64.398  1.00  0.00    -0.372 C  
HETATM    3  N   UNL     1     -11.601  14.963  64.913  1.00  0.00    -0.395 NA 
HETATM    4  N   UNL     1     -10.610  15.137  65.899  1.00  0.00    -0.320 N  
HETATM    5  O   UNL     1      -8.810  13.802  66.776  1.00  0.00    -0.217 OA 
HETATM    6  C   UNL     1      -9.759  14.053  66.059  1.00  0.00    -0.258 C  
HETATM    7  C   UNL     1     -10.261  13.108  65.024  1.00  0.00    -0.278 C  
ENDROOT
BRANCH   4   8
HETATM    8  C   UNL     1     -10.532  16.369  66.590  1.00  0.00    -0.274 A  
HETATM    9  C   UNL     1     -10.496  16.406  67.986  1.00  0.00    -0.303 A  
HETATM   10  C   UNL     1     -10.393  17.615  68.674  1.00  0.00    -0.359 A  
HETATM   11  C   UNL     1     -10.474  17.586  65.897  1.00  0.00    -0.251 A  
HETATM   12  C   UNL     1     -10.305  20.073  65.745  1.00  0.00    -0.474 C  
HETATM   13  C   UNL     1     -10.373  18.819  66.574  1.00  0.00    -0.475 A  
HETATM   14  C   UNL     1     -10.327  18.831  67.980  1.00  0.00    -0.442 A  
HETATM   15  C   UNL     1     -10.222  20.101  68.776  1.00  0.00    -0.323 C  
ENDBRANCH   4   8
BRANCH   7  16
HETATM   16  N   UNL     1      -9.807  11.945  64.679  1.00  0.00    -0.382 NA 
HETATM   17  H   UNL     1     -10.225  11.411  63.917  1.00  0.00     0.000 HD 
BRANCH  16  18
HETATM   18  N   UNL     1      -8.741  11.471  65.388  1.00  0.00    -0.401 NA 
HETATM   19  H   UNL     1      -7.884  12.021  65.445  1.00  0.00     0.000 HD 
BRANCH  18  20
HETATM   20  C   UNL     1      -8.817  10.221  66.042  1.00  0.00    -0.149 A  
HETATM   21  C   UNL     1      -8.991  10.121  67.436  1.00  0.00    -0.134 A  
HETATM   22  C   UNL     1      -9.160   8.893  68.105  1.00  0.00    -0.142 A  
HETATM   23  O   UNL     1      -8.998  11.291  68.170  1.00  0.00    -0.152 OA 
HETATM   24  C   UNL     1      -8.721   9.035  65.310  1.00  0.00    -0.226 A  
HETATM   25  C   UNL     1      -9.023   7.728  67.335  1.00  0.00    -0.128 A  
HETATM   26  H   UNL     1      -9.114  11.223  69.110  1.00  0.00     0.000 HD 
HETATM   27  C   UNL     1      -8.800   7.797  65.955  1.00  0.00    -0.189 A  
BRANCH  22  28
HETATM   28  C   UNL     1      -9.595   8.837  69.516  1.00  0.00    -0.167 A  
HETATM   29  C   UNL     1      -8.757   8.440  70.568  1.00  0.00    -0.152 A  
HETATM   30  C   UNL     1      -9.245   8.349  71.879  1.00  0.00    -0.306 A  
HETATM   31  C   UNL     1     -10.568   8.690  72.166  1.00  0.00    -0.411 A  
HETATM   32  C   UNL     1     -11.406   9.120  71.139  1.00  0.00    -0.392 A  
HETATM   33  C   UNL     1     -10.932   9.142  69.829  1.00  0.00    -0.195 A  
HETATM   34  C   UNL     1     -12.803   9.512  71.442  1.00  0.00    -0.358 C  
HETATM   35  O   UNL     1     -13.261  10.522  70.664  1.00  0.00    -0.316 OA 
HETATM   36  O   UNL     1     -13.457   9.000  72.326  1.00  0.00    -0.413 OA 
ENDBRANCH  22  28
ENDBRANCH  18  20
ENDBRANCH  16  18
ENDBRANCH   7  16
TORSDOF 5
ENDMDL
MODEL       31
REMARK 921   NORMALIZED FREE ENERGY PREDICTED BY IDOCK:   -7.77 KCAL/MOL
REMARK 922        TOTAL FREE ENERGY PREDICTED BY IDOCK:  -11.34 KCAL/MOL
REMARK 923 INTER-LIGAND FREE ENERGY PREDICTED BY IDOCK:   -9.47 KCAL/MOL
REMARK 924 INTRA-LIGAND FREE ENERGY PREDICTED BY IDOCK:   -1.87 KCAL/MOL
REMARK 927      BINDING AFFINITY PREDICTED BY RF-SCORE:    0.00 PKD
ROOT
HETATM    1  C   UNL     1      -8.869  10.161  63.881  1.00  0.00    -0.248 C  
HETATM    2  C   UNL     1      -8.615   9.644  65.248  1.00  0.00    -0.152 C  
HETATM    3  N   UNL     1      -9.022   8.519  65.760  1.00  0.00    -0.190 NA 
HETATM    4  N   UNL     1      -8.520   8.456  67.075  1.00  0.00    -0.120 N  
HETATM    5  O   UNL     1      -7.157   9.875  68.460  1.00  0.00    -0.070 OA 
HETATM    6  C   UNL     1      -7.755   9.550  67.453  1.00  0.00    -0.095 C  
HETATM    7  C   UNL     1      -7.821  10.409  66.240  1.00  0.00    -0.132 C  
ENDROOT
BRANCH   4   8
HETATM    8  C   UNL     1      -8.856   7.350  67.891  1.00  0.00    -0.132 A  
HETATM    9  C   UNL     1      -8.079   6.190  67.881  1.00  0.00    -0.114 A  
HETATM   10  C   UNL     1      -8.389   5.105  68.702  1.00  0.00    -0.088 A  
HETATM   11  C   UNL     1      -9.970   7.390  68.741  1.00  0.00    -0.171 A  
HETATM   12  C   UNL     1     -11.509   6.442  70.465  1.00  0.00    -0.444 C  
HETATM   13  C   UNL     1     -10.302   6.303  69.576  1.00  0.00    -0.263 A  
HETATM   14  C   UNL     1      -9.497   5.149  69.558  1.00  0.00    -0.205 A  
HETATM   15  C   UNL     1      -9.784   3.948  70.414  1.00  0.00    -0.245 C  
ENDBRANCH   4   8
BRANCH   7  16
HETATM   16  N   UNL     1      -7.331  11.592  66.039  1.00  0.00    -0.350 NA 
HETATM   17  H   UNL     1      -6.626  11.765  65.323  1.00  0.00     0.000 HD 
BRANCH  16  18
HETATM   18  N   UNL     1      -7.808  12.594  66.834  1.00  0.00    -0.393 NA 
HETATM   19  H   UNL     1      -7.158  13.175  67.362  1.00  0.00     0.000 HD 
BRANCH  18  20
HETATM   20  C   UNL     1      -9.197  12.829  66.929  1.00  0.00    -0.229 A  
HETATM   21  C   UNL     1      -9.911  12.599  68.122  1.00  0.00    -0.226 A  
HETATM   22  C   UNL     1     -11.277  12.908  68.274  1.00  0.00    -0.304 A  
HETATM   23  O   UNL     1      -9.225  12.048  69.186  1.00  0.00    -0.343 OA 
HETATM   24  C   UNL     1      -9.909  13.304  65.825  1.00  0.00    -0.210 A  
HETATM   25  C   UNL     1     -11.958  13.351  67.130  1.00  0.00    -0.415 A  
HETATM   26  H   UNL     1      -9.707  11.892  69.990  1.00  0.00     0.000 HD 
HETATM   27  C   UNL     1     -11.284  13.541  65.918  1.00  0.00    -0.310 A  
BRANCH  22  28
HETATM   28  C   UNL     1     -11.926  12.898  69.602  1.00  0.00    -0.358 A  
HETATM   29  C   UNL     1     -12.370  11.729  70.236  1.00  0.00    -0.320 A  
HETATM   30  C   UNL     1     -13.035  11.789  71.468  1.00  0.00    -0.446 A  
HETATM   31  C   UNL     1     -13.231  13.016  72.107  1.00  0.00    -0.558 A  
HETATM   32  C   UNL     1     -12.765  14.184  71.508  1.00  0.00    -0.436 A  
HETATM   33  C   UNL     1     -12.168  14.122  70.251  1.00  0.00    -0.416 A  
HETATM   34  C   UNL     1     -12.943  15.486  72.195  1.00  0.00    -0.422 C  
HETATM   35  O   UNL     1     -11.925  16.353  71.980  1.00  0.00    -0.493 OA 
HETATM   36  O   UNL     1     -13.893  15.733  72.907  1.00  0.00    -0.575 OA 
ENDBRANCH  22  28
ENDBRANCH  18  20
ENDBRANCH  16  18
ENDBRANCH   7  16
TORSDOF 5
ENDMDL
MODEL       32
REMARK 921   NORMALIZED FREE ENERGY PREDICTED BY IDOCK:   -7.76 KCAL/MOL
REMARK 922        TOTAL FREE ENERGY PREDICTED BY IDOCK:  -11.34 KCAL/MOL
REMARK 923 INTER-LIGAND FREE ENERGY PREDICTED BY IDOCK:  -10.20 KCAL/MOL
REMARK 924 INTRA-LIGAND FREE ENERGY PREDICTED BY IDOCK:   -1.14 KCAL/MOL
REMARK 927      BINDING AFFINITY PREDICTED BY RF-SCORE:    0.00 PKD
ROOT
HETATM    1  C   UNL     1     -12.561  15.419  72.679  1.00  0.00    -0.482 C  
HETATM    2  C   UNL     1     -11.846  15.419  71.379  1.00  0.00    -0.384 C  
HETATM    3  N   UNL     1     -11.200  16.406  70.828  1.00  0.00    -0.288 NA 
HETATM    4  N   UNL     1     -10.672  15.929  69.612  1.00  0.00    -0.277 N  
HETATM    5  O   UNL     1     -10.698  13.829  68.438  1.00  0.00    -0.240 OA 
HETATM    6  C   UNL     1     -10.958  14.599  69.342  1.00  0.00    -0.257 C  
HETATM    7  C   UNL     1     -11.792  14.216  70.514  1.00  0.00    -0.282 C  
ENDROOT
BRANCH   4   8
HETATM    8  C   UNL     1      -9.960  16.818  68.772  1.00  0.00    -0.269 A  
HETATM    9  C   UNL     1      -8.563  16.834  68.767  1.00  0.00    -0.255 A  
HETATM   10  C   UNL     1      -7.854  17.689  67.924  1.00  0.00    -0.221 A  
HETATM   11  C   UNL     1     -10.632  17.696  67.912  1.00  0.00    -0.390 A  
HETATM   12  C   UNL     1     -10.740  19.468  66.155  1.00  0.00    -0.528 C  
HETATM   13  C   UNL     1      -9.933  18.569  67.053  1.00  0.00    -0.365 A  
HETATM   14  C   UNL     1      -8.526  18.561  67.057  1.00  0.00    -0.266 A  
HETATM   15  C   UNL     1      -7.708  19.461  66.176  1.00  0.00    -0.314 C  
ENDBRANCH   4   8
BRANCH   7  16
HETATM   16  N   UNL     1     -12.390  13.096  70.770  1.00  0.00    -0.371 NA 
HETATM   17  H   UNL     1     -13.303  13.068  71.224  1.00  0.00     0.000 HD 
BRANCH  16  18
HETATM   18  N   UNL     1     -11.736  11.956  70.401  1.00  0.00    -0.523 NA 
HETATM   19  H   UNL     1     -10.929  12.012  69.781  1.00  0.00     0.000 HD 
BRANCH  18  20
HETATM   20  C   UNL     1     -12.172  10.698  70.874  1.00  0.00    -0.395 A  
HETATM   21  C   UNL     1     -11.572   9.496  70.451  1.00  0.00    -0.212 A  
HETATM   22  C   UNL     1     -11.925   8.235  70.971  1.00  0.00    -0.260 A  
HETATM   23  O   UNL     1     -10.590   9.571  69.483  1.00  0.00    -0.207 OA 
HETATM   24  C   UNL     1     -13.226  10.615  71.787  1.00  0.00    -0.526 A  
HETATM   25  C   UNL     1     -13.010   8.196  71.860  1.00  0.00    -0.356 A  
HETATM   26  H   UNL     1     -10.187   8.760  69.198  1.00  0.00     0.000 HD 
HETATM   27  C   UNL     1     -13.657   9.371  72.259  1.00  0.00    -0.532 A  
BRANCH  22  28
HETATM   28  C   UNL     1     -11.107   7.034  70.700  1.00  0.00    -0.307 A  
HETATM   29  C   UNL     1     -11.191   6.293  69.512  1.00  0.00    -0.500 A  
HETATM   30  C   UNL     1     -10.433   5.127  69.339  1.00  0.00    -0.203 A  
HETATM   31  C   UNL     1      -9.550   4.703  70.334  1.00  0.00    -0.271 A  
HETATM   32  C   UNL     1      -9.428   5.445  71.507  1.00  0.00    -0.185 A  
HETATM   33  C   UNL     1     -10.235   6.564  71.700  1.00  0.00    -0.216 A  
HETATM   34  C   UNL     1      -8.471   5.016  72.554  1.00  0.00    -0.120 C  
HETATM   35  O   UNL     1      -7.901   6.050  73.219  1.00  0.00    -0.104 OA 
HETATM   36  O   UNL     1      -8.200   3.854  72.768  1.00  0.00    -0.091 OA 
ENDBRANCH  22  28
ENDBRANCH  18  20
ENDBRANCH  16  18
ENDBRANCH   7  16
TORSDOF 5
ENDMDL
MODEL       33
REMARK 921   NORMALIZED FREE ENERGY PREDICTED BY IDOCK:   -7.76 KCAL/MOL
REMARK 922        TOTAL FREE ENERGY PREDICTED BY IDOCK:  -11.33 KCAL/MOL
REMARK 923 INTER-LIGAND FREE ENERGY PREDICTED BY IDOCK:   -9.62 KCAL/MOL
REMARK 924 INTRA-LIGAND FREE ENERGY PREDICTED BY IDOCK:   -1.71 KCAL/MOL
REMARK 927      BINDING AFFINITY PREDICTED BY RF-SCORE:    0.00 PKD
ROOT
HETATM    1  C   UNL     1     -12.363  13.040  63.449  1.00  0.00    -0.478 C  
HETATM    2  C   UNL     1     -11.315  12.152  64.009  1.00  0.00    -0.395 C  
HETATM    3  N   UNL     1     -10.423  11.465  63.354  1.00  0.00    -0.389 NA 
HETATM    4  N   UNL     1      -9.635  10.793  64.310  1.00  0.00    -0.257 N  
HETATM    5  O   UNL     1      -9.585  10.671  66.712  1.00  0.00    -0.164 OA 
HETATM    6  C   UNL     1      -9.994  11.036  65.627  1.00  0.00    -0.248 C  
HETATM    7  C   UNL     1     -11.166  11.939  65.469  1.00  0.00    -0.299 C  
ENDROOT
BRANCH   4   8
HETATM    8  C   UNL     1      -8.611   9.922  63.870  1.00  0.00    -0.195 A  
HETATM    9  C   UNL     1      -7.665  10.344  62.932  1.00  0.00    -0.134 A  
HETATM   10  C   UNL     1      -6.637   9.500  62.513  1.00  0.00    -0.096 A  
HETATM   11  C   UNL     1      -8.505   8.617  64.371  1.00  0.00    -0.113 A  
HETATM   12  C   UNL     1      -7.435   6.369  64.560  1.00  0.00    -0.089 C  
HETATM   13  C   UNL     1      -7.474   7.748  63.957  1.00  0.00    -0.103 A  
HETATM   14  C   UNL     1      -6.526   8.198  63.020  1.00  0.00    -0.085 A  
HETATM   15  C   UNL     1      -5.401   7.334  62.527  1.00  0.00    -0.037 C  
ENDBRANCH   4   8
BRANCH   7  16
HETATM   16  N   UNL     1     -11.945  12.446  66.372  1.00  0.00    -0.607 NA 
HETATM   17  H   UNL     1     -12.961  12.406  66.286  1.00  0.00     0.000 HD 
BRANCH  16  18
HETATM   18  N   UNL     1     -11.338  13.035  67.442  1.00  0.00    -0.289 NA 
HETATM   19  H   UNL     1     -10.514  13.619  67.300  1.00  0.00     0.000 HD 
BRANCH  18  20
HETATM   20  C   UNL     1     -11.843  12.840  68.746  1.00  0.00    -0.307 A  
HETATM   21  C   UNL     1     -12.144  11.557  69.243  1.00  0.00    -0.278 A  
HETATM   22  C   UNL     1     -12.564  11.323  70.567  1.00  0.00    -0.331 A  
HETATM   23  O   UNL     1     -12.013  10.485  68.382  1.00  0.00    -0.773 OA 
HETATM   24  C   UNL     1     -12.061  13.932  69.589  1.00  0.00    -0.404 A  
HETATM   25  C   UNL     1     -12.801  12.451  71.366  1.00  0.00    -0.360 A  
HETATM   26  H   UNL     1     -12.217   9.620  68.717  1.00  0.00     0.000 HD 
HETATM   27  C   UNL     1     -12.558  13.741  70.882  1.00  0.00    -0.428 A  
BRANCH  22  28
HETATM   28  C   UNL     1     -12.621   9.956  71.127  1.00  0.00    -0.464 A  
HETATM   29  C   UNL     1     -13.778   9.163  71.115  1.00  0.00    -0.161 A  
HETATM   30  C   UNL     1     -13.786   7.897  71.717  1.00  0.00    -0.449 A  
HETATM   31  C   UNL     1     -12.628   7.387  72.307  1.00  0.00    -0.082 A  
HETATM   32  C   UNL     1     -11.459   8.146  72.298  1.00  0.00    -0.435 A  
HETATM   33  C   UNL     1     -11.479   9.431  71.759  1.00  0.00    -0.413 A  
HETATM   34  C   UNL     1     -10.219   7.598  72.895  1.00  0.00    -0.298 C  
HETATM   35  O   UNL     1      -9.093   7.985  72.251  1.00  0.00    -0.141 OA 
HETATM   36  O   UNL     1     -10.219   6.846  73.847  1.00  0.00    -0.320 OA 
ENDBRANCH  22  28
ENDBRANCH  18  20
ENDBRANCH  16  18
ENDBRANCH   7  16
TORSDOF 5
ENDMDL
MODEL       34
REMARK 921   NORMALIZED FREE ENERGY PREDICTED BY IDOCK:   -7.74 KCAL/MOL
REMARK 922        TOTAL FREE ENERGY PREDICTED BY IDOCK:  -11.31 KCAL/MOL
REMARK 923 INTER-LIGAND FREE ENERGY PREDICTED BY IDOCK:  -11.32 KCAL/MOL
REMARK 924 INTRA-LIGAND FREE ENERGY PREDICTED BY IDOCK:    0.01 KCAL/MOL
REMARK 927      BINDING AFFINITY PREDICTED BY RF-SCORE:    0.00 PKD
ROOT
HETATM    1  C   UNL     1     -11.210  14.482  65.379  1.00  0.00    -0.342 C  
HETATM    2  C   UNL     1     -10.641  15.618  66.145  1.00  0.00    -0.320 C  
HETATM    3  N   UNL     1      -9.703  16.439  65.769  1.00  0.00    -0.503 NA 
HETATM    4  N   UNL     1      -9.515  17.361  66.818  1.00  0.00    -0.264 N  
HETATM    5  O   UNL     1     -10.497  17.717  68.985  1.00  0.00    -0.332 OA 
HETATM    6  C   UNL     1     -10.342  17.164  67.914  1.00  0.00    -0.350 C  
HETATM    7  C   UNL     1     -11.111  15.956  67.511  1.00  0.00    -0.235 C  
ENDROOT
BRANCH   4   8
HETATM    8  C   UNL     1      -8.506  18.346  66.699  1.00  0.00    -0.269 A  
HETATM    9  C   UNL     1      -8.491  19.460  67.541  1.00  0.00    -0.328 A  
HETATM   10  C   UNL     1      -7.486  20.423  67.447  1.00  0.00    -0.361 A  
HETATM   11  C   UNL     1      -7.488  18.228  65.743  1.00  0.00    -0.126 A  
HETATM   12  C   UNL     1      -5.406  18.974  64.583  1.00  0.00    -0.249 C  
HETATM   13  C   UNL     1      -6.464  19.192  65.631  1.00  0.00    -0.288 A  
HETATM   14  C   UNL     1      -6.463  20.300  66.497  1.00  0.00    -0.247 A  
HETATM   15  C   UNL     1      -5.411  21.372  66.440  1.00  0.00    -0.303 C  
ENDBRANCH   4   8
BRANCH   7  16
HETATM   16  N   UNL     1     -11.997  15.282  68.173  1.00  0.00    -0.491 NA 
HETATM   17  H   UNL     1     -12.519  14.517  67.745  1.00  0.00     0.000 HD 
BRANCH  16  18
HETATM   18  N   UNL     1     -12.197  15.649  69.473  1.00  0.00    -0.531 NA 
HETATM   19  H   UNL     1     -11.986  16.601  69.769  1.00  0.00     0.000 HD 
BRANCH  18  20
HETATM   20  C   UNL     1     -12.695  14.716  70.409  1.00  0.00    -0.316 A  
HETATM   21  C   UNL     1     -12.495  13.330  70.256  1.00  0.00    -0.185 A  
HETATM   22  C   UNL     1     -12.902  12.383  71.217  1.00  0.00    -0.337 A  
HETATM   23  O   UNL     1     -11.865  12.893  69.108  1.00  0.00    -0.296 OA 
HETATM   24  C   UNL     1     -13.411  15.152  71.526  1.00  0.00    -0.533 A  
HETATM   25  C   UNL     1     -13.645  12.863  72.306  1.00  0.00    -0.611 A  
HETATM   26  H   UNL     1     -11.731  11.958  69.006  1.00  0.00     0.000 HD 
HETATM   27  C   UNL     1     -13.902  14.231  72.457  1.00  0.00    -0.575 A  
BRANCH  22  28
HETATM   28  C   UNL     1     -12.451  10.977  71.152  1.00  0.00    -0.502 A  
HETATM   29  C   UNL     1     -13.040   9.941  71.890  1.00  0.00    -0.559 A  
HETATM   30  C   UNL     1     -12.528   8.638  71.833  1.00  0.00    -0.412 A  
HETATM   31  C   UNL     1     -11.443   8.340  71.006  1.00  0.00    -0.303 A  
HETATM   32  C   UNL     1     -10.866   9.350  70.238  1.00  0.00    -0.303 A  
HETATM   33  C   UNL     1     -11.337  10.656  70.354  1.00  0.00    -0.389 A  
HETATM   34  C   UNL     1      -9.734   9.034  69.336  1.00  0.00    -0.169 C  
HETATM   35  O   UNL     1      -9.731   9.767  68.197  1.00  0.00    -0.142 OA 
HETATM   36  O   UNL     1      -8.911   8.177  69.581  1.00  0.00    -0.151 OA 
ENDBRANCH  22  28
ENDBRANCH  18  20
ENDBRANCH  16  18
ENDBRANCH   7  16
TORSDOF 5
ENDMDL
MODEL       35
REMARK 921   NORMALIZED FREE ENERGY PREDICTED BY IDOCK:   -7.73 KCAL/MOL
REMARK 922        TOTAL FREE ENERGY PREDICTED BY IDOCK:  -11.29 KCAL/MOL
REMARK 923 INTER-LIGAND FREE ENERGY PREDICTED BY IDOCK:  -10.04 KCAL/MOL
REMARK 924 INTRA-LIGAND FREE ENERGY PREDICTED BY IDOCK:   -1.25 KCAL/MOL
REMARK 927      BINDING AFFINITY PREDICTED BY RF-SCORE:    0.00 PKD
ROOT
HETATM    1  C   UNL     1      -8.855  11.294  67.971  1.00  0.00    -0.148 C  
HETATM    2  C   UNL     1      -9.674  10.551  68.959  1.00  0.00    -0.210 C  
HETATM    3  N   UNL     1      -9.441   9.372  69.458  1.00  0.00    -0.170 NA 
HETATM    4  N   UNL     1     -10.480   9.093  70.368  1.00  0.00    -0.207 N  
HETATM    5  O   UNL     1     -12.436  10.258  71.146  1.00  0.00    -0.324 OA 
HETATM    6  C   UNL     1     -11.423  10.102  70.492  1.00  0.00    -0.337 C  
HETATM    7  C   UNL     1     -10.929  11.112  69.517  1.00  0.00    -0.220 C  
ENDROOT
BRANCH   4   8
HETATM    8  C   UNL     1     -10.506   7.840  71.024  1.00  0.00    -0.203 A  
HETATM    9  C   UNL     1     -10.694   6.658  70.303  1.00  0.00    -0.294 A  
HETATM   10  C   UNL     1     -10.696   5.417  70.939  1.00  0.00    -0.243 A  
HETATM   11  C   UNL     1     -10.331   7.745  72.411  1.00  0.00    -0.311 A  
HETATM   12  C   UNL     1     -10.124   6.495  74.563  1.00  0.00    -0.332 C  
HETATM   13  C   UNL     1     -10.332   6.499  73.072  1.00  0.00    -0.239 A  
HETATM   14  C   UNL     1     -10.512   5.321  72.324  1.00  0.00    -0.273 A  
HETATM   15  C   UNL     1     -10.528   3.957  72.953  1.00  0.00    -0.247 C  
ENDBRANCH   4   8
BRANCH   7  16
HETATM   16  N   UNL     1     -11.450  12.246  69.167  1.00  0.00    -0.277 NA 
HETATM   17  H   UNL     1     -11.340  13.084  69.738  1.00  0.00     0.000 HD 
BRANCH  16  18
HETATM   18  N   UNL     1     -12.151  12.261  67.997  1.00  0.00    -0.409 NA 
HETATM   19  H   UNL     1     -13.032  11.752  67.927  1.00  0.00     0.000 HD 
BRANCH  18  20
HETATM   20  C   UNL     1     -11.664  12.977  66.881  1.00  0.00    -0.383 A  
HETATM   21  C   UNL     1     -11.037  14.231  67.019  1.00  0.00    -0.312 A  
HETATM   22  C   UNL     1     -10.461  14.927  65.937  1.00  0.00    -0.327 A  
HETATM   23  O   UNL     1     -10.986  14.791  68.280  1.00  0.00    -0.244 OA 
HETATM   24  C   UNL     1     -11.794  12.451  65.594  1.00  0.00    -0.468 A  
HETATM   25  C   UNL     1     -10.645  14.377  64.660  1.00  0.00    -0.331 A  
HETATM   26  H   UNL     1     -10.563  15.637  68.372  1.00  0.00     0.000 HD 
HETATM   27  C   UNL     1     -11.309  13.157  64.488  1.00  0.00    -0.383 A  
BRANCH  22  28
HETATM   28  C   UNL     1      -9.592  16.103  66.153  1.00  0.00    -0.359 A  
HETATM   29  C   UNL     1      -8.215  16.011  66.402  1.00  0.00    -0.309 A  
HETATM   30  C   UNL     1      -7.455  17.160  66.660  1.00  0.00    -0.293 A  
HETATM   31  C   UNL     1      -8.050  18.422  66.635  1.00  0.00    -0.282 A  
HETATM   32  C   UNL     1      -9.410  18.536  66.355  1.00  0.00    -0.285 A  
HETATM   33  C   UNL     1     -10.172  17.384  66.168  1.00  0.00    -0.334 A  
HETATM   34  C   UNL     1     -10.042  19.876  66.297  1.00  0.00    -0.502 C  
HETATM   35  O   UNL     1     -11.034  19.965  65.380  1.00  0.00    -0.362 OA 
HETATM   36  O   UNL     1      -9.679  20.808  66.983  1.00  0.00    -0.422 OA 
ENDBRANCH  22  28
ENDBRANCH  18  20
ENDBRANCH  16  18
ENDBRANCH   7  16
TORSDOF 5
ENDMDL
MODEL       36
REMARK 921   NORMALIZED FREE ENERGY PREDICTED BY IDOCK:   -7.71 KCAL/MOL
REMARK 922        TOTAL FREE ENERGY PREDICTED BY IDOCK:  -11.27 KCAL/MOL
REMARK 923 INTER-LIGAND FREE ENERGY PREDICTED BY IDOCK:  -11.28 KCAL/MOL
REMARK 924 INTRA-LIGAND FREE ENERGY PREDICTED BY IDOCK:    0.02 KCAL/MOL
REMARK 927      BINDING AFFINITY PREDICTED BY RF-SCORE:    0.00 PKD
ROOT
HETATM    1  C   UNL     1     -11.283  14.850  65.259  1.00  0.00    -0.369 C  
HETATM    2  C   UNL     1     -10.693  15.806  66.229  1.00  0.00    -0.282 C  
HETATM    3  N   UNL     1      -9.746  16.673  66.014  1.00  0.00    -0.417 NA 
HETATM    4  N   UNL     1      -9.538  17.367  67.222  1.00  0.00    -0.253 N  
HETATM    5  O   UNL     1     -10.501  17.303  69.425  1.00  0.00    -0.313 OA 
HETATM    6  C   UNL     1     -10.360  16.970  68.265  1.00  0.00    -0.347 C  
HETATM    7  C   UNL     1     -11.149  15.874  67.638  1.00  0.00    -0.266 C  
ENDROOT
BRANCH   4   8
HETATM    8  C   UNL     1      -8.516  18.345  67.290  1.00  0.00    -0.254 A  
HETATM    9  C   UNL     1      -7.950  18.705  68.514  1.00  0.00    -0.365 A  
HETATM   10  C   UNL     1      -6.926  19.649  68.587  1.00  0.00    -0.362 A  
HETATM   11  C   UNL     1      -8.033  18.968  66.131  1.00  0.00    -0.273 A  
HETATM   12  C   UNL     1      -6.538  20.534  64.886  1.00  0.00    -0.310 C  
HETATM   13  C   UNL     1      -7.000  19.926  66.184  1.00  0.00    -0.267 A  
HETATM   14  C   UNL     1      -6.437  20.266  67.428  1.00  0.00    -0.260 A  
HETATM   15  C   UNL     1      -5.336  21.278  67.570  1.00  0.00    -0.351 C  
ENDBRANCH   4   8
BRANCH   7  16
HETATM   16  N   UNL     1     -12.041  15.094  68.164  1.00  0.00    -0.510 NA 
HETATM   17  H   UNL     1     -12.551  14.410  67.604  1.00  0.00     0.000 HD 
BRANCH  16  18
HETATM   18  N   UNL     1     -12.263  15.235  69.503  1.00  0.00    -0.531 NA 
HETATM   19  H   UNL     1     -12.206  16.158  69.932  1.00  0.00     0.000 HD 
BRANCH  18  20
HETATM   20  C   UNL     1     -12.569  14.109  70.298  1.00  0.00    -0.306 A  
HETATM   21  C   UNL     1     -12.113  12.818  69.966  1.00  0.00    -0.285 A  
HETATM   22  C   UNL     1     -12.326  11.691  70.785  1.00  0.00    -0.454 A  
HETATM   23  O   UNL     1     -11.421  12.664  68.781  1.00  0.00    -0.260 OA 
HETATM   24  C   UNL     1     -13.344  14.249  71.451  1.00  0.00    -0.411 A  
HETATM   25  C   UNL     1     -13.137  11.873  71.914  1.00  0.00    -0.474 A  
HETATM   26  H   UNL     1     -11.114  11.793  68.557  1.00  0.00     0.000 HD 
HETATM   27  C   UNL     1     -13.646  13.135  72.242  1.00  0.00    -0.677 A  
BRANCH  22  28
HETATM   28  C   UNL     1     -11.620  10.416  70.540  1.00  0.00    -0.433 A  
HETATM   29  C   UNL     1     -10.903  10.142  69.366  1.00  0.00    -0.274 A  
HETATM   30  C   UNL     1     -10.305   8.890  69.166  1.00  0.00    -0.230 A  
HETATM   31  C   UNL     1     -10.380   7.905  70.153  1.00  0.00    -0.215 A  
HETATM   32  C   UNL     1     -11.058   8.172  71.341  1.00  0.00    -0.291 A  
HETATM   33  C   UNL     1     -11.708   9.393  71.502  1.00  0.00    -0.465 A  
HETATM   34  C   UNL     1     -11.115   7.141  72.404  1.00  0.00    -0.266 C  
HETATM   35  O   UNL     1     -11.103   7.657  73.657  1.00  0.00    -0.256 OA 
HETATM   36  O   UNL     1     -11.136   5.951  72.172  1.00  0.00    -0.256 OA 
ENDBRANCH  22  28
ENDBRANCH  18  20
ENDBRANCH  16  18
ENDBRANCH   7  16
TORSDOF 5
ENDMDL
MODEL       37
REMARK 921   NORMALIZED FREE ENERGY PREDICTED BY IDOCK:   -7.70 KCAL/MOL
REMARK 922        TOTAL FREE ENERGY PREDICTED BY IDOCK:  -11.25 KCAL/MOL
REMARK 923 INTER-LIGAND FREE ENERGY PREDICTED BY IDOCK:  -10.05 KCAL/MOL
REMARK 924 INTRA-LIGAND FREE ENERGY PREDICTED BY IDOCK:   -1.21 KCAL/MOL
REMARK 927      BINDING AFFINITY PREDICTED BY RF-SCORE:    0.00 PKD
ROOT
HETATM    1  C   UNL     1     -12.184  12.662  65.560  1.00  0.00    -0.501 C  
HETATM    2  C   UNL     1     -11.595  13.684  66.460  1.00  0.00    -0.366 C  
HETATM    3  N   UNL     1     -11.082  14.834  66.127  1.00  0.00    -0.336 NA 
HETATM    4  N   UNL     1     -10.671  15.464  67.319  1.00  0.00    -0.302 N  
HETATM    5  O   UNL     1     -10.729  14.911  69.660  1.00  0.00    -0.250 OA 
HETATM    6  C   UNL     1     -10.918  14.734  68.472  1.00  0.00    -0.258 C  
HETATM    7  C   UNL     1     -11.522  13.487  67.928  1.00  0.00    -0.318 C  
ENDROOT
BRANCH   4   8
HETATM    8  C   UNL     1     -10.024  16.720  67.248  1.00  0.00    -0.272 A  
HETATM    9  C   UNL     1     -10.627  17.867  67.770  1.00  0.00    -0.399 A  
HETATM   10  C   UNL     1      -9.984  19.104  67.727  1.00  0.00    -0.440 A  
HETATM   11  C   UNL     1      -8.755  16.849  66.666  1.00  0.00    -0.279 A  
HETATM   12  C   UNL     1      -6.725  18.131  65.977  1.00  0.00    -0.312 C  
HETATM   13  C   UNL     1      -8.090  18.092  66.610  1.00  0.00    -0.285 A  
HETATM   14  C   UNL     1      -8.712  19.231  67.153  1.00  0.00    -0.319 A  
HETATM   15  C   UNL     1      -8.073  20.591  67.131  1.00  0.00    -0.358 C  
ENDBRANCH   4   8
BRANCH   7  16
HETATM   16  N   UNL     1     -11.902  12.415  68.548  1.00  0.00    -0.323 NA 
HETATM   17  H   UNL     1     -12.272  11.608  68.046  1.00  0.00     0.000 HD 
BRANCH  16  18
HETATM   18  N   UNL     1     -11.780  12.421  69.908  1.00  0.00    -0.475 NA 
HETATM   19  H   UNL     1     -11.532  13.283  70.391  1.00  0.00     0.000 HD 
BRANCH  18  20
HETATM   20  C   UNL     1     -11.996  11.238  70.648  1.00  0.00    -0.336 A  
HETATM   21  C   UNL     1     -11.062  10.183  70.654  1.00  0.00    -0.322 A  
HETATM   22  C   UNL     1     -11.206   9.031  71.451  1.00  0.00    -0.394 A  
HETATM   23  O   UNL     1      -9.954  10.299  69.837  1.00  0.00    -0.344 OA 
HETATM   24  C   UNL     1     -13.159  11.081  71.405  1.00  0.00    -0.441 A  
HETATM   25  C   UNL     1     -12.405   8.902  72.168  1.00  0.00    -0.449 A  
HETATM   26  H   UNL     1      -9.325   9.588  69.841  1.00  0.00     0.000 HD 
HETATM   27  C   UNL     1     -13.373   9.912  72.142  1.00  0.00    -0.498 A  
BRANCH  22  28
HETATM   28  C   UNL     1     -10.095   8.073  71.629  1.00  0.00    -0.238 A  
HETATM   29  C   UNL     1      -9.171   8.147  72.682  1.00  0.00    -0.332 A  
HETATM   30  C   UNL     1      -8.101   7.245  72.763  1.00  0.00    -0.122 A  
HETATM   31  C   UNL     1      -7.959   6.230  71.815  1.00  0.00    -0.102 A  
HETATM   32  C   UNL     1      -8.887   6.119  70.781  1.00  0.00    -0.140 A  
HETATM   33  C   UNL     1      -9.907   7.062  70.669  1.00  0.00    -0.187 A  
HETATM   34  C   UNL     1      -8.758   5.026  69.789  1.00  0.00    -0.091 C  
HETATM   35  O   UNL     1      -9.949   4.558  69.345  1.00  0.00    -0.204 OA 
HETATM   36  O   UNL     1      -7.689   4.573  69.439  1.00  0.00    -0.055 OA 
ENDBRANCH  22  28
ENDBRANCH  18  20
ENDBRANCH  16  18
ENDBRANCH   7  16
TORSDOF 5
ENDMDL
MODEL       38
REMARK 921   NORMALIZED FREE ENERGY PREDICTED BY IDOCK:   -7.70 KCAL/MOL
REMARK 922        TOTAL FREE ENERGY PREDICTED BY IDOCK:  -11.25 KCAL/MOL
REMARK 923 INTER-LIGAND FREE ENERGY PREDICTED BY IDOCK:  -10.06 KCAL/MOL
REMARK 924 INTRA-LIGAND FREE ENERGY PREDICTED BY IDOCK:   -1.19 KCAL/MOL
REMARK 927      BINDING AFFINITY PREDICTED BY RF-SCORE:    0.00 PKD
ROOT
HETATM    1  C   UNL     1     -12.870  15.214  72.447  1.00  0.00    -0.443 C  
HETATM    2  C   UNL     1     -12.017  15.301  71.235  1.00  0.00    -0.353 C  
HETATM    3  N   UNL     1     -11.351  16.334  70.806  1.00  0.00    -0.374 NA 
HETATM    4  N   UNL     1     -10.676  15.934  69.635  1.00  0.00    -0.277 N  
HETATM    5  O   UNL     1     -10.499  13.895  68.370  1.00  0.00    -0.235 OA 
HETATM    6  C   UNL     1     -10.884  14.611  69.274  1.00  0.00    -0.258 C  
HETATM    7  C   UNL     1     -11.826  14.145  70.327  1.00  0.00    -0.303 C  
ENDROOT
BRANCH   4   8
HETATM    8  C   UNL     1      -9.909  16.884  68.922  1.00  0.00    -0.267 A  
HETATM    9  C   UNL     1      -8.514  16.817  68.913  1.00  0.00    -0.217 A  
HETATM   10  C   UNL     1      -7.751  17.735  68.191  1.00  0.00    -0.254 A  
HETATM   11  C   UNL     1     -10.523  17.912  68.193  1.00  0.00    -0.380 A  
HETATM   12  C   UNL     1     -10.518  19.911  66.696  1.00  0.00    -0.580 C  
HETATM   13  C   UNL     1      -9.769  18.851  67.459  1.00  0.00    -0.360 A  
HETATM   14  C   UNL     1      -8.365  18.756  67.455  1.00  0.00    -0.283 A  
HETATM   15  C   UNL     1      -7.491  19.717  66.702  1.00  0.00    -0.276 C  
ENDBRANCH   4   8
BRANCH   7  16
HETATM   16  N   UNL     1     -12.409  12.996  70.463  1.00  0.00    -0.324 NA 
HETATM   17  H   UNL     1     -13.403  12.921  70.682  1.00  0.00     0.000 HD 
BRANCH  16  18
HETATM   18  N   UNL     1     -11.626  11.890  70.298  1.00  0.00    -0.531 NA 
HETATM   19  H   UNL     1     -10.828  11.924  69.663  1.00  0.00     0.000 HD 
BRANCH  18  20
HETATM   20  C   UNL     1     -11.914  10.700  71.000  1.00  0.00    -0.339 A  
HETATM   21  C   UNL     1     -10.945   9.695  71.190  1.00  0.00    -0.360 A  
HETATM   22  C   UNL     1     -11.176   8.539  71.962  1.00  0.00    -0.418 A  
HETATM   23  O   UNL     1      -9.713   9.866  70.590  1.00  0.00    -0.351 OA 
HETATM   24  C   UNL     1     -13.187  10.486  71.532  1.00  0.00    -0.470 A  
HETATM   25  C   UNL     1     -12.478   8.350  72.448  1.00  0.00    -0.390 A  
HETATM   26  H   UNL     1      -9.060   9.188  70.718  1.00  0.00     0.000 HD 
HETATM   27  C   UNL     1     -13.475   9.309  72.231  1.00  0.00    -0.548 A  
BRANCH  22  28
HETATM   28  C   UNL     1     -10.070   7.640  72.353  1.00  0.00    -0.265 A  
HETATM   29  C   UNL     1      -9.261   7.854  73.478  1.00  0.00    -0.340 A  
HETATM   30  C   UNL     1      -8.187   7.000  73.763  1.00  0.00    -0.149 A  
HETATM   31  C   UNL     1      -7.927   5.895  72.950  1.00  0.00    -0.107 A  
HETATM   32  C   UNL     1      -8.741   5.646  71.846  1.00  0.00    -0.135 A  
HETATM   33  C   UNL     1      -9.763   6.539  71.531  1.00  0.00    -0.179 A  
HETATM   34  C   UNL     1      -8.489   4.459  70.996  1.00  0.00    -0.089 C  
HETATM   35  O   UNL     1      -9.618   3.910  70.488  1.00  0.00    -0.168 OA 
HETATM   36  O   UNL     1      -7.381   4.005  70.806  1.00  0.00    -0.040 OA 
ENDBRANCH  22  28
ENDBRANCH  18  20
ENDBRANCH  16  18
ENDBRANCH   7  16
TORSDOF 5
ENDMDL
MODEL       39
REMARK 921   NORMALIZED FREE ENERGY PREDICTED BY IDOCK:   -7.65 KCAL/MOL
REMARK 922        TOTAL FREE ENERGY PREDICTED BY IDOCK:  -11.19 KCAL/MOL
REMARK 923 INTER-LIGAND FREE ENERGY PREDICTED BY IDOCK:  -10.40 KCAL/MOL
REMARK 924 INTRA-LIGAND FREE ENERGY PREDICTED BY IDOCK:   -0.79 KCAL/MOL
REMARK 927      BINDING AFFINITY PREDICTED BY RF-SCORE:    0.00 PKD
ROOT
HETATM    1  C   UNL     1     -12.036  13.033  63.289  1.00  0.00    -0.499 C  
HETATM    2  C   UNL     1     -11.081  12.307  64.162  1.00  0.00    -0.366 C  
HETATM    3  N   UNL     1     -10.906  11.020  64.250  1.00  0.00    -0.299 NA 
HETATM    4  N   UNL     1      -9.880  10.806  65.192  1.00  0.00    -0.254 N  
HETATM    5  O   UNL     1      -8.481  12.212  66.554  1.00  0.00    -0.139 OA 
HETATM    6  C   UNL     1      -9.349  11.964  65.741  1.00  0.00    -0.155 C  
HETATM    7  C   UNL     1     -10.167  13.021  65.087  1.00  0.00    -0.272 C  
ENDROOT
BRANCH   4   8
HETATM    8  C   UNL     1      -9.516   9.480  65.527  1.00  0.00    -0.268 A  
HETATM    9  C   UNL     1      -8.410   8.869  64.933  1.00  0.00    -0.181 A  
HETATM   10  C   UNL     1      -8.029   7.572  65.277  1.00  0.00    -0.126 A  
HETATM   11  C   UNL     1     -10.245   8.746  66.473  1.00  0.00    -0.314 A  
HETATM   12  C   UNL     1     -10.713   6.728  67.867  1.00  0.00    -0.320 C  
HETATM   13  C   UNL     1      -9.878   7.433  66.832  1.00  0.00    -0.284 A  
HETATM   14  C   UNL     1      -8.752   6.842  66.229  1.00  0.00    -0.152 A  
HETATM   15  C   UNL     1      -8.297   5.448  66.554  1.00  0.00    -0.109 C  
ENDBRANCH   4   8
BRANCH   7  16
HETATM   16  N   UNL     1     -10.150  14.305  65.262  1.00  0.00    -0.493 NA 
HETATM   17  H   UNL     1     -10.757  14.927  64.727  1.00  0.00     0.000 HD 
BRANCH  16  18
HETATM   18  N   UNL     1      -9.279  14.782  66.198  1.00  0.00    -0.474 NA 
HETATM   19  H   UNL     1      -8.276  14.652  66.071  1.00  0.00     0.000 HD 
BRANCH  18  20
HETATM   20  C   UNL     1      -9.760  15.454  67.344  1.00  0.00    -0.215 A  
HETATM   21  C   UNL     1     -10.794  14.922  68.139  1.00  0.00    -0.256 A  
HETATM   22  C   UNL     1     -11.233  15.524  69.335  1.00  0.00    -0.302 A  
HETATM   23  O   UNL     1     -11.394  13.752  67.717  1.00  0.00    -0.276 OA 
HETATM   24  C   UNL     1      -9.214  16.682  67.722  1.00  0.00    -0.214 A  
HETATM   25  C   UNL     1     -10.680  16.772  69.657  1.00  0.00    -0.229 A  
HETATM   26  H   UNL     1     -12.092  13.393  68.253  1.00  0.00     0.000 HD 
HETATM   27  C   UNL     1      -9.686  17.348  68.857  1.00  0.00    -0.251 A  
BRANCH  22  28
HETATM   28  C   UNL     1     -12.129  14.813  70.271  1.00  0.00    -0.380 A  
HETATM   29  C   UNL     1     -13.045  15.465  71.110  1.00  0.00    -0.565 A  
HETATM   30  C   UNL     1     -13.825  14.740  72.021  1.00  0.00    -0.548 A  
HETATM   31  C   UNL     1     -13.731  13.348  72.081  1.00  0.00    -0.646 A  
HETATM   32  C   UNL     1     -12.852  12.680  71.231  1.00  0.00    -0.344 A  
HETATM   33  C   UNL     1     -12.031  13.413  70.377  1.00  0.00    -0.358 A  
HETATM   34  C   UNL     1     -12.770  11.200  71.269  1.00  0.00    -0.426 C  
HETATM   35  O   UNL     1     -12.526  10.642  70.060  1.00  0.00    -0.317 OA 
HETATM   36  O   UNL     1     -12.941  10.554  72.282  1.00  0.00    -0.370 OA 
ENDBRANCH  22  28
ENDBRANCH  18  20
ENDBRANCH  16  18
ENDBRANCH   7  16
TORSDOF 5
ENDMDL
MODEL       40
REMARK 921   NORMALIZED FREE ENERGY PREDICTED BY IDOCK:   -7.65 KCAL/MOL
REMARK 922        TOTAL FREE ENERGY PREDICTED BY IDOCK:  -11.19 KCAL/MOL
REMARK 923 INTER-LIGAND FREE ENERGY PREDICTED BY IDOCK:   -9.74 KCAL/MOL
REMARK 924 INTRA-LIGAND FREE ENERGY PREDICTED BY IDOCK:   -1.45 KCAL/MOL
REMARK 927      BINDING AFFINITY PREDICTED BY RF-SCORE:    0.00 PKD
ROOT
HETATM    1  C   UNL     1      -7.922   7.477  64.422  1.00  0.00    -0.117 C  
HETATM    2  C   UNL     1      -8.727   7.919  65.587  1.00  0.00    -0.116 C  
HETATM    3  N   UNL     1      -8.851   7.324  66.738  1.00  0.00    -0.128 NA 
HETATM    4  N   UNL     1      -9.698   8.125  67.529  1.00  0.00    -0.153 N  
HETATM    5  O   UNL     1     -10.860  10.210  67.228  1.00  0.00    -0.271 OA 
HETATM    6  C   UNL     1     -10.145   9.281  66.907  1.00  0.00    -0.256 C  
HETATM    7  C   UNL     1      -9.530   9.165  65.557  1.00  0.00    -0.206 C  
ENDROOT
BRANCH   4   8
HETATM    8  C   UNL     1     -10.050   7.686  68.827  1.00  0.00    -0.194 A  
HETATM    9  C   UNL     1     -11.030   6.708  69.011  1.00  0.00    -0.332 A  
HETATM   10  C   UNL     1     -11.365   6.251  70.286  1.00  0.00    -0.457 A  
HETATM   11  C   UNL     1      -9.417   8.206  69.965  1.00  0.00    -0.167 A  
HETATM   12  C   UNL     1      -9.002   8.367  72.422  1.00  0.00    -0.309 C  
HETATM   13  C   UNL     1      -9.743   7.759  71.262  1.00  0.00    -0.179 A  
HETATM   14  C   UNL     1     -10.726   6.765  71.422  1.00  0.00    -0.253 A  
HETATM   15  C   UNL     1     -11.132   6.237  72.768  1.00  0.00    -0.284 C  
ENDBRANCH   4   8
BRANCH   7  16
HETATM   16  N   UNL     1      -9.651   9.941  64.526  1.00  0.00    -0.398 NA 
HETATM   17  H   UNL     1     -10.040   9.604  63.645  1.00  0.00     0.000 HD 
BRANCH  16  18
HETATM   18  N   UNL     1      -9.231  11.230  64.679  1.00  0.00    -0.376 NA 
HETATM   19  H   UNL     1      -8.233  11.441  64.692  1.00  0.00     0.000 HD 
BRANCH  18  20
HETATM   20  C   UNL     1     -10.170  12.275  64.821  1.00  0.00    -0.282 A  
HETATM   21  C   UNL     1     -10.158  13.141  65.932  1.00  0.00    -0.290 A  
HETATM   22  C   UNL     1     -11.024  14.245  66.057  1.00  0.00    -0.312 A  
HETATM   23  O   UNL     1      -9.245  12.888  66.937  1.00  0.00    -0.222 OA 
HETATM   24  C   UNL     1     -11.151  12.478  63.848  1.00  0.00    -0.476 A  
HETATM   25  C   UNL     1     -12.014  14.390  65.074  1.00  0.00    -0.413 A  
HETATM   26  H   UNL     1      -9.237  13.472  67.686  1.00  0.00     0.000 HD 
HETATM   27  C   UNL     1     -12.081  13.513  63.984  1.00  0.00    -0.494 A  
BRANCH  22  28
HETATM   28  C   UNL     1     -10.814  15.275  67.097  1.00  0.00    -0.322 A  
HETATM   29  C   UNL     1     -10.020  16.415  66.907  1.00  0.00    -0.273 A  
HETATM   30  C   UNL     1      -9.809  17.325  67.952  1.00  0.00    -0.283 A  
HETATM   31  C   UNL     1     -10.421  17.131  69.192  1.00  0.00    -0.296 A  
HETATM   32  C   UNL     1     -11.241  16.022  69.389  1.00  0.00    -0.349 A  
HETATM   33  C   UNL     1     -11.390  15.087  68.367  1.00  0.00    -0.323 A  
HETATM   34  C   UNL     1     -11.917  15.827  70.694  1.00  0.00    -0.393 C  
HETATM   35  O   UNL     1     -13.140  15.257  70.587  1.00  0.00    -0.402 OA 
HETATM   36  O   UNL     1     -11.432  16.179  71.749  1.00  0.00    -0.414 OA 
ENDBRANCH  22  28
ENDBRANCH  18  20
ENDBRANCH  16  18
ENDBRANCH   7  16
TORSDOF 5
ENDMDL
MODEL       41
REMARK 921   NORMALIZED FREE ENERGY PREDICTED BY IDOCK:   -7.60 KCAL/MOL
REMARK 922        TOTAL FREE ENERGY PREDICTED BY IDOCK:  -11.12 KCAL/MOL
REMARK 923 INTER-LIGAND FREE ENERGY PREDICTED BY IDOCK:   -9.76 KCAL/MOL
REMARK 924 INTRA-LIGAND FREE ENERGY PREDICTED BY IDOCK:   -1.37 KCAL/MOL
REMARK 927      BINDING AFFINITY PREDICTED BY RF-SCORE:    0.00 PKD
ROOT
HETATM    1  C   UNL     1     -13.140  13.938  65.359  1.00  0.00    -0.236 C  
HETATM    2  C   UNL     1     -11.942  13.086  65.560  1.00  0.00    -0.424 C  
HETATM    3  N   UNL     1     -11.474  12.173  64.760  1.00  0.00    -0.325 NA 
HETATM    4  N   UNL     1     -10.314  11.648  65.363  1.00  0.00    -0.256 N  
HETATM    5  O   UNL     1      -9.101  12.066  67.399  1.00  0.00    -0.168 OA 
HETATM    6  C   UNL     1      -9.990  12.221  66.584  1.00  0.00    -0.215 C  
HETATM    7  C   UNL     1     -11.101  13.192  66.777  1.00  0.00    -0.289 C  
ENDROOT
BRANCH   4   8
HETATM    8  C   UNL     1      -9.623  10.590  64.727  1.00  0.00    -0.285 A  
HETATM    9  C   UNL     1      -9.474  10.564  63.339  1.00  0.00    -0.354 A  
HETATM   10  C   UNL     1      -8.772   9.538  62.706  1.00  0.00    -0.232 A  
HETATM   11  C   UNL     1      -9.055   9.546  65.470  1.00  0.00    -0.262 A  
HETATM   12  C   UNL     1      -7.759   7.427  65.731  1.00  0.00    -0.102 C  
HETATM   13  C   UNL     1      -8.344   8.498  64.849  1.00  0.00    -0.171 A  
HETATM   14  C   UNL     1      -8.197   8.499  63.450  1.00  0.00    -0.136 A  
HETATM   15  C   UNL     1      -7.458   7.419  62.713  1.00  0.00    -0.105 C  
ENDBRANCH   4   8
BRANCH   7  16
HETATM   16  N   UNL     1     -11.348  13.975  67.780  1.00  0.00    -0.288 NA 
HETATM   17  H   UNL     1     -11.898  14.827  67.671  1.00  0.00     0.000 HD 
BRANCH  16  18
HETATM   18  N   UNL     1     -10.837  13.599  68.988  1.00  0.00    -0.347 NA 
HETATM   19  H   UNL     1      -9.837  13.686  69.165  1.00  0.00     0.000 HD 
BRANCH  18  20
HETATM   20  C   UNL     1     -11.686  13.090  69.995  1.00  0.00    -0.215 A  
HETATM   21  C   UNL     1     -11.957  11.712  70.113  1.00  0.00    -0.359 A  
HETATM   22  C   UNL     1     -12.727  11.166  71.158  1.00  0.00    -0.510 A  
HETATM   23  O   UNL     1     -11.434  10.868  69.153  1.00  0.00    -0.254 OA 
HETATM   24  C   UNL     1     -12.288  13.953  70.913  1.00  0.00    -0.451 A  
HETATM   25  C   UNL     1     -13.338  12.072  72.037  1.00  0.00    -0.447 A  
HETATM   26  H   UNL     1     -11.618   9.940  69.232  1.00  0.00     0.000 HD 
HETATM   27  C   UNL     1     -13.126  13.450  71.914  1.00  0.00    -0.476 A  
BRANCH  22  28
HETATM   28  C   UNL     1     -12.776   9.708  71.398  1.00  0.00    -0.466 A  
HETATM   29  C   UNL     1     -13.966   8.965  71.406  1.00  0.00    -0.299 A  
HETATM   30  C   UNL     1     -13.954   7.595  71.700  1.00  0.00    -0.510 A  
HETATM   31  C   UNL     1     -12.749   6.936  71.954  1.00  0.00    -0.313 A  
HETATM   32  C   UNL     1     -11.553   7.651  71.916  1.00  0.00    -0.321 A  
HETATM   33  C   UNL     1     -11.581   9.025  71.691  1.00  0.00    -0.426 A  
HETATM   34  C   UNL     1     -10.269   6.951  72.155  1.00  0.00    -0.193 C  
HETATM   35  O   UNL     1      -9.239   7.453  71.432  1.00  0.00    -0.142 OA 
HETATM   36  O   UNL     1     -10.162   6.000  72.900  1.00  0.00    -0.178 OA 
ENDBRANCH  22  28
ENDBRANCH  18  20
ENDBRANCH  16  18
ENDBRANCH   7  16
TORSDOF 5
ENDMDL
MODEL       42
REMARK 921   NORMALIZED FREE ENERGY PREDICTED BY IDOCK:   -7.56 KCAL/MOL
REMARK 922        TOTAL FREE ENERGY PREDICTED BY IDOCK:  -11.08 KCAL/MOL
REMARK 923 INTER-LIGAND FREE ENERGY PREDICTED BY IDOCK:   -9.97 KCAL/MOL
REMARK 924 INTRA-LIGAND FREE ENERGY PREDICTED BY IDOCK:   -1.11 KCAL/MOL
REMARK 927      BINDING AFFINITY PREDICTED BY RF-SCORE:    0.00 PKD
ROOT
HETATM    1  C   UNL     1     -13.053   9.838  72.235  1.00  0.00    -0.445 C  
HETATM    2  C   UNL     1     -12.169   9.222  71.215  1.00  0.00    -0.334 C  
HETATM    3  N   UNL     1     -11.913   7.957  71.045  1.00  0.00    -0.284 NA 
HETATM    4  N   UNL     1     -11.040   7.856  69.944  1.00  0.00    -0.180 N  
HETATM    5  O   UNL     1     -10.014   9.409  68.419  1.00  0.00    -0.160 OA 
HETATM    6  C   UNL     1     -10.708   9.068  69.357  1.00  0.00    -0.191 C  
HETATM    7  C   UNL     1     -11.435  10.039  70.219  1.00  0.00    -0.300 C  
ENDROOT
BRANCH   4   8
HETATM    8  C   UNL     1     -10.551   6.583  69.565  1.00  0.00    -0.246 A  
HETATM    9  C   UNL     1     -10.127   5.663  70.527  1.00  0.00    -0.280 A  
HETATM   10  C   UNL     1      -9.668   4.397  70.163  1.00  0.00    -0.288 A  
HETATM   11  C   UNL     1     -10.492   6.202  68.218  1.00  0.00    -0.284 A  
HETATM   12  C   UNL     1     -10.014   4.603  66.360  1.00  0.00    -0.267 C  
HETATM   13  C   UNL     1     -10.030   4.927  67.830  1.00  0.00    -0.186 A  
HETATM   14  C   UNL     1      -9.617   4.013  68.817  1.00  0.00    -0.201 A  
HETATM   15  C   UNL     1      -9.109   2.638  68.487  1.00  0.00    -0.218 C  
ENDBRANCH   4   8
BRANCH   7  16
HETATM   16  N   UNL     1     -11.446  11.334  70.174  1.00  0.00    -0.456 NA 
HETATM   17  H   UNL     1     -12.130  11.882  70.696  1.00  0.00     0.000 HD 
BRANCH  16  18
HETATM   18  N   UNL     1     -10.496  11.927  69.394  1.00  0.00    -0.427 NA 
HETATM   19  H   UNL     1      -9.510  11.727  69.555  1.00  0.00     0.000 HD 
BRANCH  18  20
HETATM   20  C   UNL     1     -10.873  12.817  68.363  1.00  0.00    -0.249 A  
HETATM   21  C   UNL     1     -10.539  14.185  68.404  1.00  0.00    -0.259 A  
HETATM   22  C   UNL     1     -10.822  15.078  67.351  1.00  0.00    -0.305 A  
HETATM   23  O   UNL     1      -9.901  14.660  69.532  1.00  0.00    -0.416 OA 
HETATM   24  C   UNL     1     -11.597  12.355  67.262  1.00  0.00    -0.435 A  
HETATM   25  C   UNL     1     -11.579  14.577  66.281  1.00  0.00    -0.364 A  
HETATM   26  H   UNL     1      -9.676  15.582  69.559  1.00  0.00     0.000 HD 
HETATM   27  C   UNL     1     -11.968  13.233  66.239  1.00  0.00    -0.471 A  
BRANCH  22  28
HETATM   28  C   UNL     1     -10.235  16.433  67.312  1.00  0.00    -0.278 A  
HETATM   29  C   UNL     1     -10.841  17.556  67.895  1.00  0.00    -0.255 A  
HETATM   30  C   UNL     1     -10.265  18.827  67.771  1.00  0.00    -0.446 A  
HETATM   31  C   UNL     1      -9.054  18.993  67.097  1.00  0.00    -0.311 A  
HETATM   32  C   UNL     1      -8.419  17.884  66.541  1.00  0.00    -0.284 A  
HETATM   33  C   UNL     1      -9.033  16.635  66.608  1.00  0.00    -0.285 A  
HETATM   34  C   UNL     1      -7.118  18.049  65.849  1.00  0.00    -0.267 C  
HETATM   35  O   UNL     1      -6.289  16.989  66.003  1.00  0.00    -0.145 OA 
HETATM   36  O   UNL     1      -6.817  19.051  65.237  1.00  0.00    -0.451 OA 
ENDBRANCH  22  28
ENDBRANCH  18  20
ENDBRANCH  16  18
ENDBRANCH   7  16
TORSDOF 5
ENDMDL
MODEL       43
REMARK 921   NORMALIZED FREE ENERGY PREDICTED BY IDOCK:   -7.56 KCAL/MOL
REMARK 922        TOTAL FREE ENERGY PREDICTED BY IDOCK:  -11.07 KCAL/MOL
REMARK 923 INTER-LIGAND FREE ENERGY PREDICTED BY IDOCK:  -10.39 KCAL/MOL
REMARK 924 INTRA-LIGAND FREE ENERGY PREDICTED BY IDOCK:   -0.68 KCAL/MOL
REMARK 927      BINDING AFFINITY PREDICTED BY RF-SCORE:    0.00 PKD
ROOT
HETATM    1  C   UNL     1     -12.941  15.403  72.032  1.00  0.00    -0.485 C  
HETATM    2  C   UNL     1     -12.018  15.421  70.871  1.00  0.00    -0.359 C  
HETATM    3  N   UNL     1     -11.323  16.427  70.424  1.00  0.00    -0.296 NA 
HETATM    4  N   UNL     1     -10.582  15.961  69.320  1.00  0.00    -0.231 N  
HETATM    5  O   UNL     1     -10.338  13.854  68.184  1.00  0.00    -0.234 OA 
HETATM    6  C   UNL     1     -10.772  14.620  69.022  1.00  0.00    -0.249 C  
HETATM    7  C   UNL     1     -11.778  14.215  70.042  1.00  0.00    -0.291 C  
ENDROOT
BRANCH   4   8
HETATM    8  C   UNL     1      -9.770  16.869  68.600  1.00  0.00    -0.267 A  
HETATM    9  C   UNL     1      -8.377  16.786  68.659  1.00  0.00    -0.252 A  
HETATM   10  C   UNL     1      -7.569  17.660  67.932  1.00  0.00    -0.210 A  
HETATM   11  C   UNL     1     -10.337  17.869  67.798  1.00  0.00    -0.393 A  
HETATM   12  C   UNL     1     -10.235  19.798  66.214  1.00  0.00    -0.615 C  
HETATM   13  C   UNL     1      -9.537  18.765  67.058  1.00  0.00    -0.329 A  
HETATM   14  C   UNL     1      -8.136  18.654  67.123  1.00  0.00    -0.253 A  
HETATM   15  C   UNL     1      -7.215  19.570  66.369  1.00  0.00    -0.253 C  
ENDBRANCH   4   8
BRANCH   7  16
HETATM   16  N   UNL     1     -12.372  13.076  70.208  1.00  0.00    -0.284 NA 
HETATM   17  H   UNL     1     -13.389  13.001  70.242  1.00  0.00     0.000 HD 
BRANCH  16  18
HETATM   18  N   UNL     1     -11.567  11.980  70.335  1.00  0.00    -0.496 NA 
HETATM   19  H   UNL     1     -10.585  12.039  70.069  1.00  0.00     0.000 HD 
BRANCH  18  20
HETATM   20  C   UNL     1     -12.089  10.766  70.833  1.00  0.00    -0.370 A  
HETATM   21  C   UNL     1     -11.593   9.516  70.414  1.00  0.00    -0.212 A  
HETATM   22  C   UNL     1     -12.030   8.292  70.958  1.00  0.00    -0.260 A  
HETATM   23  O   UNL     1     -10.629   9.504  69.425  1.00  0.00    -0.207 OA 
HETATM   24  C   UNL     1     -13.126  10.775  71.768  1.00  0.00    -0.573 A  
HETATM   25  C   UNL     1     -13.095   8.348  71.869  1.00  0.00    -0.383 A  
HETATM   26  H   UNL     1     -10.295   8.661  69.142  1.00  0.00     0.000 HD 
HETATM   27  C   UNL     1     -13.641   9.573  72.266  1.00  0.00    -0.494 A  
BRANCH  22  28
HETATM   28  C   UNL     1     -11.313   7.028  70.686  1.00  0.00    -0.349 A  
HETATM   29  C   UNL     1     -10.893   6.146  71.692  1.00  0.00    -0.308 A  
HETATM   30  C   UNL     1     -10.163   4.992  71.375  1.00  0.00    -0.270 A  
HETATM   31  C   UNL     1      -9.874   4.681  70.045  1.00  0.00    -0.294 A  
HETATM   32  C   UNL     1     -10.313   5.528  69.030  1.00  0.00    -0.304 A  
HETATM   33  C   UNL     1     -10.978   6.708  69.358  1.00  0.00    -0.361 A  
HETATM   34  C   UNL     1     -10.035   5.188  67.614  1.00  0.00    -0.161 C  
HETATM   35  O   UNL     1     -11.019   5.568  66.765  1.00  0.00    -0.230 OA 
HETATM   36  O   UNL     1      -9.038   4.595  67.260  1.00  0.00    -0.115 OA 
ENDBRANCH  22  28
ENDBRANCH  18  20
ENDBRANCH  16  18
ENDBRANCH   7  16
TORSDOF 5
ENDMDL
MODEL       44
REMARK 921   NORMALIZED FREE ENERGY PREDICTED BY IDOCK:   -7.54 KCAL/MOL
REMARK 922        TOTAL FREE ENERGY PREDICTED BY IDOCK:  -11.05 KCAL/MOL
REMARK 923 INTER-LIGAND FREE ENERGY PREDICTED BY IDOCK:  -10.56 KCAL/MOL
REMARK 924 INTRA-LIGAND FREE ENERGY PREDICTED BY IDOCK:   -0.49 KCAL/MOL
REMARK 927      BINDING AFFINITY PREDICTED BY RF-SCORE:    0.00 PKD
ROOT
HETATM    1  C   UNL     1     -14.309  15.360  72.393  1.00  0.00    -0.489 C  
HETATM    2  C   UNL     1     -13.582  14.184  71.854  1.00  0.00    -0.417 C  
HETATM    3  N   UNL     1     -13.759  12.932  72.161  1.00  0.00    -0.481 NA 
HETATM    4  N   UNL     1     -12.857  12.182  71.380  1.00  0.00    -0.342 N  
HETATM    5  O   UNL     1     -11.197  12.691  69.714  1.00  0.00    -0.094 OA 
HETATM    6  C   UNL     1     -12.066  12.938  70.528  1.00  0.00    -0.282 C  
HETATM    7  C   UNL     1     -12.506  14.325  70.843  1.00  0.00    -0.354 C  
ENDROOT
BRANCH   4   8
HETATM    8  C   UNL     1     -12.796  10.779  71.551  1.00  0.00    -0.462 A  
HETATM    9  C   UNL     1     -13.857  10.082  72.134  1.00  0.00    -0.120 A  
HETATM   10  C   UNL     1     -13.815   8.696  72.283  1.00  0.00    -0.459 A  
HETATM   11  C   UNL     1     -11.678  10.046  71.130  1.00  0.00    -0.472 A  
HETATM   12  C   UNL     1     -10.380   7.941  70.780  1.00  0.00    -0.211 C  
HETATM   13  C   UNL     1     -11.616   8.644  71.274  1.00  0.00    -0.340 A  
HETATM   14  C   UNL     1     -12.701   7.962  71.853  1.00  0.00    -0.341 A  
HETATM   15  C   UNL     1     -12.713   6.472  72.044  1.00  0.00    -0.154 C  
ENDBRANCH   4   8
BRANCH   7  16
HETATM   16  N   UNL     1     -12.067  15.454  70.384  1.00  0.00    -0.345 NA 
HETATM   17  H   UNL     1     -11.430  16.040  70.924  1.00  0.00     0.000 HD 
BRANCH  16  18
HETATM   18  N   UNL     1     -12.501  15.819  69.143  1.00  0.00    -0.497 NA 
HETATM   19  H   UNL     1     -13.471  16.104  69.007  1.00  0.00     0.000 HD 
BRANCH  18  20
HETATM   20  C   UNL     1     -11.613  15.805  68.044  1.00  0.00    -0.210 A  
HETATM   21  C   UNL     1     -11.434  14.657  67.248  1.00  0.00    -0.372 A  
HETATM   22  C   UNL     1     -10.625  14.638  66.095  1.00  0.00    -0.314 A  
HETATM   23  O   UNL     1     -12.090  13.502  67.625  1.00  0.00    -0.347 OA 
HETATM   24  C   UNL     1     -10.880  16.947  67.715  1.00  0.00    -0.281 A  
HETATM   25  C   UNL     1      -9.882  15.797  65.822  1.00  0.00    -0.383 A  
HETATM   26  H   UNL     1     -11.969  12.728  67.088  1.00  0.00     0.000 HD 
HETATM   27  C   UNL     1     -10.003  16.936  66.625  1.00  0.00    -0.302 A  
BRANCH  22  28
HETATM   28  C   UNL     1     -10.662  13.505  65.146  1.00  0.00    -0.349 A  
HETATM   29  C   UNL     1     -11.529  13.447  64.045  1.00  0.00    -0.392 A  
HETATM   30  C   UNL     1     -11.561  12.317  63.216  1.00  0.00    -0.434 A  
HETATM   31  C   UNL     1     -10.699  11.244  63.450  1.00  0.00    -0.349 A  
HETATM   32  C   UNL     1      -9.806  11.299  64.519  1.00  0.00    -0.317 A  
HETATM   33  C   UNL     1      -9.830  12.395  65.378  1.00  0.00    -0.200 A  
HETATM   34  C   UNL     1      -8.869  10.175  64.755  1.00  0.00    -0.195 C  
HETATM   35  O   UNL     1      -7.669  10.568  65.245  1.00  0.00    -0.145 OA 
HETATM   36  O   UNL     1      -9.141   9.021  64.499  1.00  0.00    -0.111 OA 
ENDBRANCH  22  28
ENDBRANCH  18  20
ENDBRANCH  16  18
ENDBRANCH   7  16
TORSDOF 5
ENDMDL
MODEL       45
REMARK 921   NORMALIZED FREE ENERGY PREDICTED BY IDOCK:   -7.53 KCAL/MOL
REMARK 922        TOTAL FREE ENERGY PREDICTED BY IDOCK:  -11.04 KCAL/MOL
REMARK 923 INTER-LIGAND FREE ENERGY PREDICTED BY IDOCK:   -9.99 KCAL/MOL
REMARK 924 INTRA-LIGAND FREE ENERGY PREDICTED BY IDOCK:   -1.05 KCAL/MOL
REMARK 927      BINDING AFFINITY PREDICTED BY RF-SCORE:    0.00 PKD
ROOT
HETATM    1  C   UNL     1     -12.442  15.233  70.515  1.00  0.00    -0.454 C  
HETATM    2  C   UNL     1     -11.607  15.767  69.411  1.00  0.00    -0.365 C  
HETATM    3  N   UNL     1     -10.772  16.764  69.458  1.00  0.00    -0.324 NA 
HETATM    4  N   UNL     1     -10.199  16.886  68.176  1.00  0.00    -0.295 N  
HETATM    5  O   UNL     1     -10.414  15.717  66.084  1.00  0.00    -0.294 OA 
HETATM    6  C   UNL     1     -10.648  15.953  67.253  1.00  0.00    -0.314 C  
HETATM    7  C   UNL     1     -11.644  15.183  68.048  1.00  0.00    -0.328 C  
ENDROOT
BRANCH   4   8
HETATM    8  C   UNL     1      -9.283  17.935  67.926  1.00  0.00    -0.263 A  
HETATM    9  C   UNL     1      -9.600  18.965  67.038  1.00  0.00    -0.348 A  
HETATM   10  C   UNL     1      -8.713  20.016  66.805  1.00  0.00    -0.408 A  
HETATM   11  C   UNL     1      -8.039  17.979  68.570  1.00  0.00    -0.306 A  
HETATM   12  C   UNL     1      -5.821  19.000  69.093  1.00  0.00    -0.242 C  
HETATM   13  C   UNL     1      -7.128  19.031  68.346  1.00  0.00    -0.304 A  
HETATM   14  C   UNL     1      -7.473  20.065  67.456  1.00  0.00    -0.322 A  
HETATM   15  C   UNL     1      -6.558  21.219  67.161  1.00  0.00    -0.396 C  
ENDBRANCH   4   8
BRANCH   7  16
HETATM   16  N   UNL     1     -12.423  14.215  67.681  1.00  0.00    -0.485 NA 
HETATM   17  H   UNL     1     -13.428  14.349  67.573  1.00  0.00     0.000 HD 
BRANCH  16  18
HETATM   18  N   UNL     1     -11.829  13.009  67.445  1.00  0.00    -0.367 NA 
HETATM   19  H   UNL     1     -11.542  12.423  68.228  1.00  0.00     0.000 HD 
BRANCH  18  20
HETATM   20  C   UNL     1     -11.608  12.569  66.121  1.00  0.00    -0.395 A  
HETATM   21  C   UNL     1     -10.474  11.812  65.768  1.00  0.00    -0.260 A  
HETATM   22  C   UNL     1     -10.272  11.283  64.478  1.00  0.00    -0.370 A  
HETATM   23  O   UNL     1      -9.525  11.579  66.744  1.00  0.00    -0.182 OA 
HETATM   24  C   UNL     1     -12.524  12.880  65.113  1.00  0.00    -0.561 A  
HETATM   25  C   UNL     1     -11.199  11.649  63.491  1.00  0.00    -0.462 A  
HETATM   26  H   UNL     1      -8.761  11.069  66.506  1.00  0.00     0.000 HD 
HETATM   27  C   UNL     1     -12.309  12.442  63.802  1.00  0.00    -0.625 A  
BRANCH  22  28
HETATM   28  C   UNL     1      -9.215  10.286  64.211  1.00  0.00    -0.300 A  
HETATM   29  C   UNL     1      -8.249  10.434  63.204  1.00  0.00    -0.155 A  
HETATM   30  C   UNL     1      -7.308   9.424  62.959  1.00  0.00    -0.106 A  
HETATM   31  C   UNL     1      -7.293   8.267  63.741  1.00  0.00    -0.100 A  
HETATM   32  C   UNL     1      -8.222   8.118  64.768  1.00  0.00    -0.137 A  
HETATM   33  C   UNL     1      -9.197   9.095  64.960  1.00  0.00    -0.180 A  
HETATM   34  C   UNL     1      -8.192   6.906  65.620  1.00  0.00    -0.134 C  
HETATM   35  O   UNL     1      -8.548   7.141  66.905  1.00  0.00    -0.119 OA 
HETATM   36  O   UNL     1      -7.846   5.818  65.211  1.00  0.00    -0.095 OA 
ENDBRANCH  22  28
ENDBRANCH  18  20
ENDBRANCH  16  18
ENDBRANCH   7  16
TORSDOF 5
ENDMDL
MODEL       46
REMARK 921   NORMALIZED FREE ENERGY PREDICTED BY IDOCK:   -7.50 KCAL/MOL
REMARK 922        TOTAL FREE ENERGY PREDICTED BY IDOCK:  -11.00 KCAL/MOL
REMARK 923 INTER-LIGAND FREE ENERGY PREDICTED BY IDOCK:   -9.44 KCAL/MOL
REMARK 924 INTRA-LIGAND FREE ENERGY PREDICTED BY IDOCK:   -1.55 KCAL/MOL
REMARK 927      BINDING AFFINITY PREDICTED BY RF-SCORE:    0.00 PKD
ROOT
HETATM    1  C   UNL     1     -11.875  13.445  66.269  1.00  0.00    -0.438 C  
HETATM    2  C   UNL     1     -11.431  14.571  67.128  1.00  0.00    -0.368 C  
HETATM    3  N   UNL     1     -10.665  15.569  66.795  1.00  0.00    -0.306 NA 
HETATM    4  N   UNL     1     -10.540  16.392  67.932  1.00  0.00    -0.310 N  
HETATM    5  O   UNL     1     -11.394  16.351  70.181  1.00  0.00    -0.329 OA 
HETATM    6  C   UNL     1     -11.239  15.948  69.045  1.00  0.00    -0.327 C  
HETATM    7  C   UNL     1     -11.840  14.680  68.549  1.00  0.00    -0.311 C  
ENDROOT
BRANCH   4   8
HETATM    8  C   UNL     1      -9.709  17.535  67.869  1.00  0.00    -0.278 A  
HETATM    9  C   UNL     1     -10.111  18.675  67.169  1.00  0.00    -0.391 A  
HETATM   10  C   UNL     1      -9.310  19.815  67.124  1.00  0.00    -0.458 A  
HETATM   11  C   UNL     1      -8.467  17.564  68.518  1.00  0.00    -0.280 A  
HETATM   12  C   UNL     1      -6.329  18.649  69.218  1.00  0.00    -0.282 C  
HETATM   13  C   UNL     1      -7.641  18.707  68.481  1.00  0.00    -0.336 A  
HETATM   14  C   UNL     1      -8.072  19.847  67.779  1.00  0.00    -0.329 A  
HETATM   15  C   UNL     1      -7.250  21.102  67.690  1.00  0.00    -0.166 C  
ENDBRANCH   4   8
BRANCH   7  16
HETATM   16  N   UNL     1     -12.558  13.805  69.180  1.00  0.00    -0.206 NA 
HETATM   17  H   UNL     1     -13.454  13.483  68.815  1.00  0.00     0.000 HD 
BRANCH  16  18
HETATM   18  N   UNL     1     -12.051  13.334  70.357  1.00  0.00    -0.443 NA 
HETATM   19  H   UNL     1     -11.673  13.986  71.043  1.00  0.00     0.000 HD 
BRANCH  18  20
HETATM   20  C   UNL     1     -12.047  11.948  70.629  1.00  0.00    -0.294 A  
HETATM   21  C   UNL     1     -11.085  11.083  70.071  1.00  0.00    -0.161 A  
HETATM   22  C   UNL     1     -11.001   9.715  70.393  1.00  0.00    -0.356 A  
HETATM   23  O   UNL     1     -10.185  11.617  69.170  1.00  0.00    -0.396 OA 
HETATM   24  C   UNL     1     -13.013  11.392  71.470  1.00  0.00    -0.505 A  
HETATM   25  C   UNL     1     -12.011   9.194  71.215  1.00  0.00    -0.394 A  
HETATM   26  H   UNL     1      -9.536  11.033  68.794  1.00  0.00     0.000 HD 
HETATM   27  C   UNL     1     -13.009  10.020  71.744  1.00  0.00    -0.560 A  
BRANCH  22  28
HETATM   28  C   UNL     1      -9.834   8.900  69.996  1.00  0.00    -0.188 A  
HETATM   29  C   UNL     1      -9.824   8.056  68.876  1.00  0.00    -0.176 A  
HETATM   30  C   UNL     1      -8.707   7.261  68.586  1.00  0.00    -0.127 A  
HETATM   31  C   UNL     1      -7.566   7.325  69.388  1.00  0.00    -0.097 A  
HETATM   32  C   UNL     1      -7.544   8.183  70.486  1.00  0.00    -0.079 A  
HETATM   33  C   UNL     1      -8.684   8.918  70.807  1.00  0.00    -0.245 A  
HETATM   34  C   UNL     1      -6.325   8.278  71.324  1.00  0.00    -0.038 C  
HETATM   35  O   UNL     1      -6.108   9.518  71.822  1.00  0.00    -0.232 OA 
HETATM   36  O   UNL     1      -5.578   7.341  71.513  1.00  0.00    -0.035 OA 
ENDBRANCH  22  28
ENDBRANCH  18  20
ENDBRANCH  16  18
ENDBRANCH   7  16
TORSDOF 5
ENDMDL
MODEL       47
REMARK 921   NORMALIZED FREE ENERGY PREDICTED BY IDOCK:   -7.50 KCAL/MOL
REMARK 922        TOTAL FREE ENERGY PREDICTED BY IDOCK:  -10.99 KCAL/MOL
REMARK 923 INTER-LIGAND FREE ENERGY PREDICTED BY IDOCK:   -9.85 KCAL/MOL
REMARK 924 INTRA-LIGAND FREE ENERGY PREDICTED BY IDOCK:   -1.15 KCAL/MOL
REMARK 927      BINDING AFFINITY PREDICTED BY RF-SCORE:    0.00 PKD
ROOT
HETATM    1  C   UNL     1     -12.045  13.425  63.461  1.00  0.00    -0.497 C  
HETATM    2  C   UNL     1     -11.504  14.083  64.675  1.00  0.00    -0.383 C  
HETATM    3  N   UNL     1     -10.834  15.196  64.744  1.00  0.00    -0.397 NA 
HETATM    4  N   UNL     1     -10.554  15.428  66.105  1.00  0.00    -0.306 N  
HETATM    5  O   UNL     1     -11.033  14.294  68.172  1.00  0.00    -0.237 OA 
HETATM    6  C   UNL     1     -11.050  14.463  66.969  1.00  0.00    -0.313 C  
HETATM    7  C   UNL     1     -11.683  13.500  66.027  1.00  0.00    -0.359 C  
ENDROOT
BRANCH   4   8
HETATM    8  C   UNL     1      -9.781  16.556  66.469  1.00  0.00    -0.272 A  
HETATM    9  C   UNL     1      -8.409  16.599  66.208  1.00  0.00    -0.360 A  
HETATM   10  C   UNL     1      -7.645  17.718  66.540  1.00  0.00    -0.291 A  
HETATM   11  C   UNL     1     -10.369  17.668  67.088  1.00  0.00    -0.343 A  
HETATM   12  C   UNL     1     -10.334  19.958  68.084  1.00  0.00    -0.533 C  
HETATM   13  C   UNL     1      -9.613  18.807  67.434  1.00  0.00    -0.337 A  
HETATM   14  C   UNL     1      -8.235  18.833  67.151  1.00  0.00    -0.275 A  
HETATM   15  C   UNL     1      -7.360  20.006  67.489  1.00  0.00    -0.314 C  
ENDBRANCH   4   8
BRANCH   7  16
HETATM   16  N   UNL     1     -12.260  12.366  66.271  1.00  0.00    -0.583 NA 
HETATM   17  H   UNL     1     -13.010  12.008  65.679  1.00  0.00     0.000 HD 
BRANCH  16  18
HETATM   18  N   UNL     1     -11.814  11.675  67.360  1.00  0.00    -0.630 NA 
HETATM   19  H   UNL     1     -12.165  11.909  68.289  1.00  0.00     0.000 HD 
BRANCH  18  20
HETATM   20  C   UNL     1     -10.868  10.637  67.208  1.00  0.00    -0.287 A  
HETATM   21  C   UNL     1     -10.661   9.667  68.209  1.00  0.00    -0.217 A  
HETATM   22  C   UNL     1      -9.791   8.570  68.050  1.00  0.00    -0.202 A  
HETATM   23  O   UNL     1     -11.354   9.807  69.395  1.00  0.00    -0.400 OA 
HETATM   24  C   UNL     1     -10.103  10.545  66.044  1.00  0.00    -0.317 A  
HETATM   25  C   UNL     1      -9.019   8.538  66.879  1.00  0.00    -0.166 A  
HETATM   26  H   UNL     1     -11.213   9.153  70.070  1.00  0.00     0.000 HD 
HETATM   27  C   UNL     1      -9.168   9.517  65.890  1.00  0.00    -0.260 A  
BRANCH  22  28
HETATM   28  C   UNL     1      -9.792   7.441  69.004  1.00  0.00    -0.168 A  
HETATM   29  C   UNL     1     -10.711   6.384  68.949  1.00  0.00    -0.339 A  
HETATM   30  C   UNL     1     -10.701   5.373  69.920  1.00  0.00    -0.292 A  
HETATM   31  C   UNL     1      -9.746   5.381  70.939  1.00  0.00    -0.237 A  
HETATM   32  C   UNL     1      -8.803   6.406  70.990  1.00  0.00    -0.139 A  
HETATM   33  C   UNL     1      -8.864   7.443  70.062  1.00  0.00    -0.141 A  
HETATM   34  C   UNL     1      -7.769   6.404  72.051  1.00  0.00    -0.096 C  
HETATM   35  O   UNL     1      -6.578   6.905  71.645  1.00  0.00    -0.048 OA 
HETATM   36  O   UNL     1      -7.964   5.963  73.164  1.00  0.00    -0.109 OA 
ENDBRANCH  22  28
ENDBRANCH  18  20
ENDBRANCH  16  18
ENDBRANCH   7  16
TORSDOF 5
ENDMDL
MODEL       48
REMARK 921   NORMALIZED FREE ENERGY PREDICTED BY IDOCK:   -7.47 KCAL/MOL
REMARK 922        TOTAL FREE ENERGY PREDICTED BY IDOCK:  -10.96 KCAL/MOL
REMARK 923 INTER-LIGAND FREE ENERGY PREDICTED BY IDOCK:   -9.91 KCAL/MOL
REMARK 924 INTRA-LIGAND FREE ENERGY PREDICTED BY IDOCK:   -1.05 KCAL/MOL
REMARK 927      BINDING AFFINITY PREDICTED BY RF-SCORE:    0.00 PKD
ROOT
HETATM    1  C   UNL     1     -13.211  11.956  71.393  1.00  0.00    -0.181 C  
HETATM    2  C   UNL     1     -12.268  10.855  71.075  1.00  0.00    -0.358 C  
HETATM    3  N   UNL     1     -12.157   9.706  71.677  1.00  0.00    -0.389 NA 
HETATM    4  N   UNL     1     -11.144   8.987  71.012  1.00  0.00    -0.266 N  
HETATM    5  O   UNL     1      -9.699   9.399  69.132  1.00  0.00    -0.157 OA 
HETATM    6  C   UNL     1     -10.569   9.656  69.941  1.00  0.00    -0.249 C  
HETATM    7  C   UNL     1     -11.287  10.959  69.968  1.00  0.00    -0.307 C  
ENDROOT
BRANCH   4   8
HETATM    8  C   UNL     1     -10.774   7.709  71.494  1.00  0.00    -0.221 A  
HETATM    9  C   UNL     1     -10.619   7.478  72.863  1.00  0.00    -0.390 A  
HETATM   10  C   UNL     1     -10.279   6.215  73.348  1.00  0.00    -0.228 A  
HETATM   11  C   UNL     1     -10.565   6.637  70.616  1.00  0.00    -0.268 A  
HETATM   12  C   UNL     1     -10.028   4.260  70.071  1.00  0.00    -0.196 C  
HETATM   13  C   UNL     1     -10.219   5.353  71.087  1.00  0.00    -0.287 A  
HETATM   14  C   UNL     1     -10.080   5.141  72.471  1.00  0.00    -0.226 A  
HETATM   15  C   UNL     1      -9.711   3.805  73.053  1.00  0.00    -0.173 C  
ENDBRANCH   4   8
BRANCH   7  16
HETATM   16  N   UNL     1     -11.122  12.008  69.225  1.00  0.00    -0.382 NA 
HETATM   17  H   UNL     1     -10.382  12.685  69.411  1.00  0.00     0.000 HD 
BRANCH  16  18
HETATM   18  N   UNL     1     -11.988  12.160  68.181  1.00  0.00    -0.462 NA 
HETATM   19  H   UNL     1     -12.905  11.717  68.214  1.00  0.00     0.000 HD 
BRANCH  18  20
HETATM   20  C   UNL     1     -11.619  12.926  67.053  1.00  0.00    -0.362 A  
HETATM   21  C   UNL     1     -11.098  14.229  67.178  1.00  0.00    -0.311 A  
HETATM   22  C   UNL     1     -10.638  14.983  66.080  1.00  0.00    -0.314 A  
HETATM   23  O   UNL     1     -11.036  14.780  68.443  1.00  0.00    -0.238 OA 
HETATM   24  C   UNL     1     -11.764  12.403  65.767  1.00  0.00    -0.470 A  
HETATM   25  C   UNL     1     -10.835  14.432  64.805  1.00  0.00    -0.415 A  
HETATM   26  H   UNL     1     -10.685  15.659  68.527  1.00  0.00     0.000 HD 
HETATM   27  C   UNL     1     -11.396  13.159  64.649  1.00  0.00    -0.363 A  
BRANCH  22  28
HETATM   28  C   UNL     1      -9.866  16.229  66.270  1.00  0.00    -0.334 A  
HETATM   29  C   UNL     1     -10.459  17.491  66.420  1.00  0.00    -0.277 A  
HETATM   30  C   UNL     1      -9.671  18.645  66.536  1.00  0.00    -0.369 A  
HETATM   31  C   UNL     1      -8.278  18.552  66.543  1.00  0.00    -0.299 A  
HETATM   32  C   UNL     1      -7.671  17.303  66.430  1.00  0.00    -0.347 A  
HETATM   33  C   UNL     1      -8.460  16.169  66.246  1.00  0.00    -0.357 A  
HETATM   34  C   UNL     1      -6.193  17.194  66.467  1.00  0.00    -0.213 C  
HETATM   35  O   UNL     1      -5.750  16.062  67.063  1.00  0.00    -0.340 OA 
HETATM   36  O   UNL     1      -5.456  18.055  66.035  1.00  0.00    -0.162 OA 
ENDBRANCH  22  28
ENDBRANCH  18  20
ENDBRANCH  16  18
ENDBRANCH   7  16
TORSDOF 5
ENDMDL
MODEL       49
REMARK 921   NORMALIZED FREE ENERGY PREDICTED BY IDOCK:   -7.46 KCAL/MOL
REMARK 922        TOTAL FREE ENERGY PREDICTED BY IDOCK:  -10.95 KCAL/MOL
REMARK 923 INTER-LIGAND FREE ENERGY PREDICTED BY IDOCK:   -9.97 KCAL/MOL
REMARK 924 INTRA-LIGAND FREE ENERGY PREDICTED BY IDOCK:   -0.98 KCAL/MOL
REMARK 927      BINDING AFFINITY PREDICTED BY RF-SCORE:    0.00 PKD
ROOT
HETATM    1  C   UNL     1     -10.406   4.982  71.445  1.00  0.00    -0.251 C  
HETATM    2  C   UNL     1     -10.369   5.174  69.974  1.00  0.00    -0.276 C  
HETATM    3  N   UNL     1      -9.792   4.415  69.088  1.00  0.00    -0.166 NA 
HETATM    4  N   UNL     1     -10.043   4.987  67.826  1.00  0.00    -0.146 N  
HETATM    5  O   UNL     1     -11.237   6.916  67.024  1.00  0.00    -0.369 OA 
HETATM    6  C   UNL     1     -10.807   6.144  67.859  1.00  0.00    -0.319 C  
HETATM    7  C   UNL     1     -11.027   6.330  69.319  1.00  0.00    -0.369 C  
ENDROOT
BRANCH   4   8
HETATM    8  C   UNL     1      -9.482   4.389  66.672  1.00  0.00    -0.179 A  
HETATM    9  C   UNL     1      -8.193   3.852  66.700  1.00  0.00    -0.100 A  
HETATM   10  C   UNL     1      -7.643   3.238  65.575  1.00  0.00    -0.077 A  
HETATM   11  C   UNL     1     -10.206   4.306  65.475  1.00  0.00    -0.224 A  
HETATM   12  C   UNL     1     -10.522   3.639  63.089  1.00  0.00    -0.225 C  
HETATM   13  C   UNL     1      -9.665   3.692  64.326  1.00  0.00    -0.175 A  
HETATM   14  C   UNL     1      -8.369   3.147  64.380  1.00  0.00    -0.093 A  
HETATM   15  C   UNL     1      -7.721   2.479  63.201  1.00  0.00    -0.063 C  
ENDBRANCH   4   8
BRANCH   7  16
HETATM   16  N   UNL     1     -11.633   7.288  69.947  1.00  0.00    -0.514 NA 
HETATM   17  H   UNL     1     -12.646   7.291  70.070  1.00  0.00     0.000 HD 
BRANCH  16  18
HETATM   18  N   UNL     1     -10.848   8.292  70.435  1.00  0.00    -0.234 NA 
HETATM   19  H   UNL     1      -9.958   8.069  70.880  1.00  0.00     0.000 HD 
BRANCH  18  20
HETATM   20  C   UNL     1     -11.261   9.638  70.327  1.00  0.00    -0.271 A  
HETATM   21  C   UNL     1     -10.741  10.499  69.341  1.00  0.00    -0.241 A  
HETATM   22  C   UNL     1     -11.197  11.818  69.151  1.00  0.00    -0.324 A  
HETATM   23  O   UNL     1      -9.739  10.012  68.524  1.00  0.00    -0.150 OA 
HETATM   24  C   UNL     1     -12.210  10.157  71.210  1.00  0.00    -0.496 A  
HETATM   25  C   UNL     1     -12.126  12.307  70.082  1.00  0.00    -0.364 A  
HETATM   26  H   UNL     1      -9.388  10.593  67.859  1.00  0.00     0.000 HD 
HETATM   27  C   UNL     1     -12.623  11.489  71.103  1.00  0.00    -0.463 A  
BRANCH  22  28
HETATM   28  C   UNL     1     -10.820  12.599  67.955  1.00  0.00    -0.244 A  
HETATM   29  C   UNL     1      -9.614  13.307  67.842  1.00  0.00    -0.217 A  
HETATM   30  C   UNL     1      -9.340  14.081  66.706  1.00  0.00    -0.289 A  
HETATM   31  C   UNL     1     -10.249  14.129  65.647  1.00  0.00    -0.357 A  
HETATM   32  C   UNL     1     -11.436  13.404  65.726  1.00  0.00    -0.341 A  
HETATM   33  C   UNL     1     -11.732  12.694  66.887  1.00  0.00    -0.453 A  
HETATM   34  C   UNL     1     -12.391  13.427  64.592  1.00  0.00    -0.382 C  
HETATM   35  O   UNL     1     -13.049  12.256  64.418  1.00  0.00    -0.780 OA 
HETATM   36  O   UNL     1     -12.539  14.391  63.872  1.00  0.00    -0.814 OA 
ENDBRANCH  22  28
ENDBRANCH  18  20
ENDBRANCH  16  18
ENDBRANCH   7  16
TORSDOF 5
ENDMDL
MODEL       50
REMARK 921   NORMALIZED FREE ENERGY PREDICTED BY IDOCK:   -7.46 KCAL/MOL
REMARK 922        TOTAL FREE ENERGY PREDICTED BY IDOCK:  -10.94 KCAL/MOL
REMARK 923 INTER-LIGAND FREE ENERGY PREDICTED BY IDOCK:   -9.59 KCAL/MOL
REMARK 924 INTRA-LIGAND FREE ENERGY PREDICTED BY IDOCK:   -1.35 KCAL/MOL
REMARK 927      BINDING AFFINITY PREDICTED BY RF-SCORE:    0.00 PKD
ROOT
HETATM    1  C   UNL     1      -9.118   8.346  72.129  1.00  0.00    -0.309 C  
HETATM    2  C   UNL     1     -10.205   9.115  71.475  1.00  0.00    -0.333 C  
HETATM    3  N   UNL     1     -10.091  10.018  70.544  1.00  0.00    -0.139 NA 
HETATM    4  N   UNL     1     -11.393  10.451  70.225  1.00  0.00    -0.307 N  
HETATM    5  O   UNL     1     -13.614   9.901  70.969  1.00  0.00    -0.329 OA 
HETATM    6  C   UNL     1     -12.401   9.825  70.943  1.00  0.00    -0.290 C  
HETATM    7  C   UNL     1     -11.630   8.922  71.839  1.00  0.00    -0.371 C  
ENDROOT
BRANCH   4   8
HETATM    8  C   UNL     1     -11.563  11.480  69.269  1.00  0.00    -0.322 A  
HETATM    9  C   UNL     1     -11.860  12.786  69.668  1.00  0.00    -0.384 A  
HETATM   10  C   UNL     1     -12.004  13.811  68.734  1.00  0.00    -0.400 A  
HETATM   11  C   UNL     1     -11.426  11.225  67.898  1.00  0.00    -0.360 A  
HETATM   12  C   UNL     1     -11.393  11.882  65.488  1.00  0.00    -0.334 C  
HETATM   13  C   UNL     1     -11.570  12.248  66.938  1.00  0.00    -0.427 A  
HETATM   14  C   UNL     1     -11.858  13.558  67.363  1.00  0.00    -0.423 A  
HETATM   15  C   UNL     1     -12.030  14.702  66.405  1.00  0.00    -0.274 C  
ENDBRANCH   4   8
BRANCH   7  16
HETATM   16  N   UNL     1     -12.052   8.129  72.774  1.00  0.00    -0.602 NA 
HETATM   17  H   UNL     1     -12.080   8.421  73.751  1.00  0.00     0.000 HD 
BRANCH  16  18
HETATM   18  N   UNL     1     -12.456   6.886  72.383  1.00  0.00    -0.513 NA 
HETATM   19  H   UNL     1     -13.439   6.625  72.459  1.00  0.00     0.000 HD 
BRANCH  18  20
HETATM   20  C   UNL     1     -11.520   5.958  71.876  1.00  0.00    -0.225 A  
HETATM   21  C   UNL     1     -11.257   5.846  70.496  1.00  0.00    -0.223 A  
HETATM   22  C   UNL     1     -10.267   4.994  69.968  1.00  0.00    -0.339 A  
HETATM   23  O   UNL     1     -12.009   6.617  69.632  1.00  0.00    -0.653 OA 
HETATM   24  C   UNL     1     -10.822   5.114  72.743  1.00  0.00    -0.314 A  
HETATM   25  C   UNL     1      -9.615   4.142  70.872  1.00  0.00    -0.250 A  
HETATM   26  H   UNL     1     -11.832   6.541  68.702  1.00  0.00     0.000 HD 
HETATM   27  C   UNL     1      -9.893   4.197  72.243  1.00  0.00    -0.228 A  
BRANCH  22  28
HETATM   28  C   UNL     1      -9.841   5.091  68.556  1.00  0.00    -0.216 A  
HETATM   29  C   UNL     1      -9.881   4.012  67.661  1.00  0.00    -0.102 A  
HETATM   30  C   UNL     1      -9.405   4.149  66.350  1.00  0.00    -0.178 A  
HETATM   31  C   UNL     1      -8.919   5.378  65.899  1.00  0.00    -0.151 A  
HETATM   32  C   UNL     1      -8.904   6.471  66.763  1.00  0.00    -0.130 A  
HETATM   33  C   UNL     1      -9.314   6.307  68.085  1.00  0.00    -0.115 A  
HETATM   34  C   UNL     1      -8.417   7.785  66.282  1.00  0.00    -0.141 C  
HETATM   35  O   UNL     1      -9.069   8.837  66.834  1.00  0.00    -0.131 OA 
HETATM   36  O   UNL     1      -7.544   7.903  65.449  1.00  0.00    -0.076 OA 
ENDBRANCH  22  28
ENDBRANCH  18  20
ENDBRANCH  16  18
ENDBRANCH   7  16
TORSDOF 5
ENDMDL
MODEL       51
REMARK 921   NORMALIZED FREE ENERGY PREDICTED BY IDOCK:   -7.44 KCAL/MOL
REMARK 922        TOTAL FREE ENERGY PREDICTED BY IDOCK:  -10.92 KCAL/MOL
REMARK 923 INTER-LIGAND FREE ENERGY PREDICTED BY IDOCK:   -9.74 KCAL/MOL
REMARK 924 INTRA-LIGAND FREE ENERGY PREDICTED BY IDOCK:   -1.18 KCAL/MOL
REMARK 927      BINDING AFFINITY PREDICTED BY RF-SCORE:    0.00 PKD
ROOT
HETATM    1  C   UNL     1     -12.347  13.021  64.666  1.00  0.00    -0.480 C  
HETATM    2  C   UNL     1     -11.628  13.849  65.665  1.00  0.00    -0.333 C  
HETATM    3  N   UNL     1     -11.012  14.978  65.466  1.00  0.00    -0.342 NA 
HETATM    4  N   UNL     1     -10.502  15.397  66.711  1.00  0.00    -0.293 N  
HETATM    5  O   UNL     1     -10.542  14.538  68.958  1.00  0.00    -0.240 OA 
HETATM    6  C   UNL     1     -10.785  14.544  67.767  1.00  0.00    -0.256 C  
HETATM    7  C   UNL     1     -11.530  13.448  67.090  1.00  0.00    -0.339 C  
ENDROOT
BRANCH   4   8
HETATM    8  C   UNL     1      -9.732  16.583  66.778  1.00  0.00    -0.258 A  
HETATM    9  C   UNL     1      -8.431  16.622  66.272  1.00  0.00    -0.355 A  
HETATM   10  C   UNL     1      -7.676  17.794  66.311  1.00  0.00    -0.308 A  
HETATM   11  C   UNL     1     -10.256  17.755  67.341  1.00  0.00    -0.353 A  
HETATM   12  C   UNL     1     -10.157  20.160  68.005  1.00  0.00    -0.519 C  
HETATM   13  C   UNL     1      -9.507  18.948  67.393  1.00  0.00    -0.334 A  
HETATM   14  C   UNL     1      -8.202  18.967  66.866  1.00  0.00    -0.286 A  
HETATM   15  C   UNL     1      -7.339  20.197  66.884  1.00  0.00    -0.304 C  
ENDBRANCH   4   8
BRANCH   7  16
HETATM   16  N   UNL     1     -11.997  12.342  67.579  1.00  0.00    -0.506 NA 
HETATM   17  H   UNL     1     -12.853  12.322  68.134  1.00  0.00     0.000 HD 
BRANCH  16  18
HETATM   18  N   UNL     1     -11.286  11.208  67.312  1.00  0.00    -0.457 NA 
HETATM   19  H   UNL     1     -11.476  10.678  66.462  1.00  0.00     0.000 HD 
BRANCH  18  20
HETATM   20  C   UNL     1     -10.290  10.763  68.209  1.00  0.00    -0.173 A  
HETATM   21  C   UNL     1     -10.585   9.894  69.278  1.00  0.00    -0.224 A  
HETATM   22  C   UNL     1      -9.600   9.363  70.133  1.00  0.00    -0.275 A  
HETATM   23  O   UNL     1     -11.907   9.550  69.482  1.00  0.00    -0.397 OA 
HETATM   24  C   UNL     1      -8.966  11.181  68.056  1.00  0.00    -0.149 A  
HETATM   25  C   UNL     1      -8.291   9.836  69.963  1.00  0.00    -0.211 A  
HETATM   26  H   UNL     1     -12.106   8.964  70.203  1.00  0.00     0.000 HD 
HETATM   27  C   UNL     1      -7.977  10.739  68.941  1.00  0.00    -0.143 A  
BRANCH  22  28
HETATM   28  C   UNL     1      -9.906   8.262  71.071  1.00  0.00    -0.225 A  
HETATM   29  C   UNL     1     -10.386   8.466  72.373  1.00  0.00    -0.399 A  
HETATM   30  C   UNL     1     -10.599   7.383  73.237  1.00  0.00    -0.442 A  
HETATM   31  C   UNL     1     -10.374   6.076  72.801  1.00  0.00    -0.223 A  
HETATM   32  C   UNL     1      -9.930   5.851  71.500  1.00  0.00    -0.221 A  
HETATM   33  C   UNL     1      -9.655   6.937  70.670  1.00  0.00    -0.171 A  
HETATM   34  C   UNL     1      -9.718   4.464  71.022  1.00  0.00    -0.190 C  
HETATM   35  O   UNL     1     -10.010   4.295  69.710  1.00  0.00    -0.222 OA 
HETATM   36  O   UNL     1      -9.353   3.564  71.747  1.00  0.00    -0.112 OA 
ENDBRANCH  22  28
ENDBRANCH  18  20
ENDBRANCH  16  18
ENDBRANCH   7  16
TORSDOF 5
ENDMDL
MODEL       52
REMARK 921   NORMALIZED FREE ENERGY PREDICTED BY IDOCK:   -7.41 KCAL/MOL
REMARK 922        TOTAL FREE ENERGY PREDICTED BY IDOCK:  -10.88 KCAL/MOL
REMARK 923 INTER-LIGAND FREE ENERGY PREDICTED BY IDOCK:   -9.92 KCAL/MOL
REMARK 924 INTRA-LIGAND FREE ENERGY PREDICTED BY IDOCK:   -0.96 KCAL/MOL
REMARK 927      BINDING AFFINITY PREDICTED BY RF-SCORE:    0.00 PKD
ROOT
HETATM    1  C   UNL     1     -13.630  10.481  72.116  1.00  0.00    -0.167 C  
HETATM    2  C   UNL     1     -12.578   9.659  71.468  1.00  0.00    -0.391 C  
HETATM    3  N   UNL     1     -12.369   8.382  71.609  1.00  0.00    -0.307 NA 
HETATM    4  N   UNL     1     -11.278   8.048  70.783  1.00  0.00    -0.264 N  
HETATM    5  O   UNL     1      -9.840   9.247  69.272  1.00  0.00    -0.164 OA 
HETATM    6  C   UNL     1     -10.748   9.112  70.069  1.00  0.00    -0.232 C  
HETATM    7  C   UNL     1     -11.589  10.248  70.533  1.00  0.00    -0.338 C  
ENDROOT
BRANCH   4   8
HETATM    8  C   UNL     1     -10.796   6.718  70.780  1.00  0.00    -0.249 A  
HETATM    9  C   UNL     1     -10.728   5.978  71.963  1.00  0.00    -0.281 A  
HETATM   10  C   UNL     1     -10.279   4.658  71.965  1.00  0.00    -0.258 A  
HETATM   11  C   UNL     1     -10.385   6.098  69.592  1.00  0.00    -0.277 A  
HETATM   12  C   UNL     1      -9.518   4.181  68.247  1.00  0.00    -0.213 C  
HETATM   13  C   UNL     1      -9.926   4.765  69.573  1.00  0.00    -0.287 A  
HETATM   14  C   UNL     1      -9.877   4.036  70.775  1.00  0.00    -0.233 A  
HETATM   15  C   UNL     1      -9.398   2.614  70.841  1.00  0.00    -0.217 C  
ENDBRANCH   4   8
BRANCH   7  16
HETATM   16  N   UNL     1     -11.510  11.508  70.240  1.00  0.00    -0.515 NA 
HETATM   17  H   UNL     1     -12.188  12.184  70.592  1.00  0.00     0.000 HD 
BRANCH  16  18
HETATM   18  N   UNL     1     -10.473  11.884  69.436  1.00  0.00    -0.427 NA 
HETATM   19  H   UNL     1      -9.526  11.571  69.650  1.00  0.00     0.000 HD 
BRANCH  18  20
HETATM   20  C   UNL     1     -10.704  12.704  68.310  1.00  0.00    -0.230 A  
HETATM   21  C   UNL     1     -10.102  13.971  68.176  1.00  0.00    -0.244 A  
HETATM   22  C   UNL     1     -10.242  14.772  67.026  1.00  0.00    -0.253 A  
HETATM   23  O   UNL     1      -9.337  14.435  69.228  1.00  0.00    -0.398 OA 
HETATM   24  C   UNL     1     -11.548  12.273  67.285  1.00  0.00    -0.427 A  
HETATM   25  C   UNL     1     -11.126  14.314  66.038  1.00  0.00    -0.319 A  
HETATM   26  H   UNL     1      -8.932  15.290  69.138  1.00  0.00     0.000 HD 
HETATM   27  C   UNL     1     -11.776  13.082  66.167  1.00  0.00    -0.445 A  
BRANCH  22  28
HETATM   28  C   UNL     1      -9.397  15.966  66.812  1.00  0.00    -0.262 A  
HETATM   29  C   UNL     1      -8.037  15.901  66.477  1.00  0.00    -0.270 A  
HETATM   30  C   UNL     1      -7.274  17.069  66.347  1.00  0.00    -0.311 A  
HETATM   31  C   UNL     1      -7.866  18.323  66.511  1.00  0.00    -0.279 A  
HETATM   32  C   UNL     1      -9.224  18.409  66.810  1.00  0.00    -0.293 A  
HETATM   33  C   UNL     1      -9.959  17.242  67.006  1.00  0.00    -0.289 A  
HETATM   34  C   UNL     1      -9.865  19.737  66.957  1.00  0.00    -0.392 C  
HETATM   35  O   UNL     1     -11.148  19.768  66.525  1.00  0.00    -0.310 OA 
HETATM   36  O   UNL     1      -9.281  20.709  67.389  1.00  0.00    -0.382 OA 
ENDBRANCH  22  28
ENDBRANCH  18  20
ENDBRANCH  16  18
ENDBRANCH   7  16
TORSDOF 5
ENDMDL
MODEL       53
REMARK 921   NORMALIZED FREE ENERGY PREDICTED BY IDOCK:   -7.40 KCAL/MOL
REMARK 922        TOTAL FREE ENERGY PREDICTED BY IDOCK:  -10.87 KCAL/MOL
REMARK 923 INTER-LIGAND FREE ENERGY PREDICTED BY IDOCK:   -9.88 KCAL/MOL
REMARK 924 INTRA-LIGAND FREE ENERGY PREDICTED BY IDOCK:   -0.99 KCAL/MOL
REMARK 927      BINDING AFFINITY PREDICTED BY RF-SCORE:    0.00 PKD
ROOT
HETATM    1  C   UNL     1     -13.275   9.885  72.076  1.00  0.00    -0.555 C  
HETATM    2  C   UNL     1     -12.332   9.241  71.129  1.00  0.00    -0.293 C  
HETATM    3  N   UNL     1     -12.107   7.968  70.974  1.00  0.00    -0.263 NA 
HETATM    4  N   UNL     1     -11.149   7.839  69.948  1.00  0.00    -0.192 N  
HETATM    5  O   UNL     1      -9.948   9.359  68.522  1.00  0.00    -0.163 OA 
HETATM    6  C   UNL     1     -10.729   9.040  69.397  1.00  0.00    -0.191 C  
HETATM    7  C   UNL     1     -11.490  10.035  70.201  1.00  0.00    -0.277 C  
ENDROOT
BRANCH   4   8
HETATM    8  C   UNL     1     -10.676   6.551  69.604  1.00  0.00    -0.269 A  
HETATM    9  C   UNL     1     -10.503   6.185  68.268  1.00  0.00    -0.284 A  
HETATM   10  C   UNL     1     -10.012   4.926  67.921  1.00  0.00    -0.181 A  
HETATM   11  C   UNL     1     -10.353   5.610  70.592  1.00  0.00    -0.320 A  
HETATM   12  C   UNL     1      -9.526   3.393  71.391  1.00  0.00    -0.224 C  
HETATM   13  C   UNL     1      -9.857   4.332  70.262  1.00  0.00    -0.263 A  
HETATM   14  C   UNL     1      -9.681   3.989  68.909  1.00  0.00    -0.151 A  
HETATM   15  C   UNL     1      -9.162   2.648  68.474  1.00  0.00    -0.243 C  
ENDBRANCH   4   8
BRANCH   7  16
HETATM   16  N   UNL     1     -11.453  11.329  70.163  1.00  0.00    -0.456 NA 
HETATM   17  H   UNL     1     -12.147  11.900  70.646  1.00  0.00     0.000 HD 
BRANCH  16  18
HETATM   18  N   UNL     1     -10.437  11.890  69.444  1.00  0.00    -0.427 NA 
HETATM   19  H   UNL     1      -9.469  11.698  69.698  1.00  0.00     0.000 HD 
BRANCH  18  20
HETATM   20  C   UNL     1     -10.721  12.736  68.349  1.00  0.00    -0.250 A  
HETATM   21  C   UNL     1     -10.125  14.006  68.217  1.00  0.00    -0.246 A  
HETATM   22  C   UNL     1     -10.318  14.834  67.093  1.00  0.00    -0.255 A  
HETATM   23  O   UNL     1      -9.311  14.446  69.242  1.00  0.00    -0.398 OA 
HETATM   24  C   UNL     1     -11.613  12.329  67.355  1.00  0.00    -0.425 A  
HETATM   25  C   UNL     1     -11.248  14.398  66.137  1.00  0.00    -0.336 A  
HETATM   26  H   UNL     1      -8.910  15.302  69.152  1.00  0.00     0.000 HD 
HETATM   27  C   UNL     1     -11.893  13.163  66.268  1.00  0.00    -0.455 A  
BRANCH  22  28
HETATM   28  C   UNL     1      -9.484  16.032  66.867  1.00  0.00    -0.242 A  
HETATM   29  C   UNL     1      -8.124  15.976  66.530  1.00  0.00    -0.304 A  
HETATM   30  C   UNL     1      -7.370  17.149  66.388  1.00  0.00    -0.334 A  
HETATM   31  C   UNL     1      -7.972  18.399  66.543  1.00  0.00    -0.294 A  
HETATM   32  C   UNL     1      -9.330  18.476  66.844  1.00  0.00    -0.294 A  
HETATM   33  C   UNL     1     -10.056  17.305  67.051  1.00  0.00    -0.303 A  
HETATM   34  C   UNL     1      -9.981  19.801  66.980  1.00  0.00    -0.408 C  
HETATM   35  O   UNL     1     -11.265  19.817  66.550  1.00  0.00    -0.196 OA 
HETATM   36  O   UNL     1      -9.405  20.781  67.403  1.00  0.00    -0.392 OA 
ENDBRANCH  22  28
ENDBRANCH  18  20
ENDBRANCH  16  18
ENDBRANCH   7  16
TORSDOF 5
ENDMDL
MODEL       54
REMARK 921   NORMALIZED FREE ENERGY PREDICTED BY IDOCK:   -7.37 KCAL/MOL
REMARK 922        TOTAL FREE ENERGY PREDICTED BY IDOCK:  -10.82 KCAL/MOL
REMARK 923 INTER-LIGAND FREE ENERGY PREDICTED BY IDOCK:   -9.69 KCAL/MOL
REMARK 924 INTRA-LIGAND FREE ENERGY PREDICTED BY IDOCK:   -1.13 KCAL/MOL
REMARK 927      BINDING AFFINITY PREDICTED BY RF-SCORE:    0.00 PKD
ROOT
HETATM    1  C   UNL     1     -11.679   8.203  72.270  1.00  0.00    -0.439 C  
HETATM    2  C   UNL     1     -11.411   8.786  70.933  1.00  0.00    -0.275 C  
HETATM    3  N   UNL     1     -10.471   8.455  70.095  1.00  0.00    -0.222 NA 
HETATM    4  N   UNL     1     -10.626   9.267  68.955  1.00  0.00    -0.217 N  
HETATM    5  O   UNL     1     -12.157  10.994  68.275  1.00  0.00    -0.604 OA 
HETATM    6  C   UNL     1     -11.691  10.153  69.019  1.00  0.00     0.072 C  
HETATM    7  C   UNL     1     -12.240   9.882  70.375  1.00  0.00    -0.114 C  
ENDROOT
BRANCH   4   8
HETATM    8  C   UNL     1      -9.696   9.154  67.895  1.00  0.00    -0.154 A  
HETATM    9  C   UNL     1     -10.127   8.942  66.583  1.00  0.00    -0.357 A  
HETATM   10  C   UNL     1      -9.218   8.855  65.529  1.00  0.00    -0.242 A  
HETATM   11  C   UNL     1      -8.318   9.266  68.125  1.00  0.00    -0.120 A  
HETATM   12  C   UNL     1      -5.924   9.323  67.416  1.00  0.00    -0.049 C  
HETATM   13  C   UNL     1      -7.383   9.179  67.073  1.00  0.00    -0.090 A  
HETATM   14  C   UNL     1      -7.841   8.976  65.758  1.00  0.00    -0.098 A  
HETATM   15  C   UNL     1      -6.911   8.869  64.584  1.00  0.00    -0.080 C  
ENDBRANCH   4   8
BRANCH   7  16
HETATM   16  N   UNL     1     -13.216  10.460  71.001  1.00  0.00    -0.343 NA 
HETATM   17  H   UNL     1     -14.190  10.221  70.814  1.00  0.00     0.000 HD 
BRANCH  16  18
HETATM   18  N   UNL     1     -12.874  11.406  71.925  1.00  0.00    -0.357 NA 
HETATM   19  H   UNL     1     -12.480  11.120  72.821  1.00  0.00     0.000 HD 
BRANCH  18  20
HETATM   20  C   UNL     1     -13.063  12.777  71.646  1.00  0.00    -0.331 A  
HETATM   21  C   UNL     1     -12.240  13.472  70.738  1.00  0.00    -0.338 A  
HETATM   22  C   UNL     1     -12.458  14.815  70.373  1.00  0.00    -0.405 A  
HETATM   23  O   UNL     1     -11.173  12.791  70.185  1.00  0.00    -0.460 OA 
HETATM   24  C   UNL     1     -14.087  13.490  72.273  1.00  0.00    -0.564 A  
HETATM   25  C   UNL     1     -13.477  15.499  71.052  1.00  0.00    -0.436 A  
HETATM   26  H   UNL     1     -10.618  13.260  69.573  1.00  0.00     0.000 HD 
HETATM   27  C   UNL     1     -14.279  14.847  71.996  1.00  0.00    -0.638 A  
BRANCH  22  28
HETATM   28  C   UNL     1     -11.742  15.430  69.235  1.00  0.00    -0.367 A  
HETATM   29  C   UNL     1     -10.948  16.580  69.352  1.00  0.00    -0.288 A  
HETATM   30  C   UNL     1     -10.344  17.152  68.225  1.00  0.00    -0.354 A  
HETATM   31  C   UNL     1     -10.490  16.562  66.968  1.00  0.00    -0.289 A  
HETATM   32  C   UNL     1     -11.247  15.399  66.838  1.00  0.00    -0.214 A  
HETATM   33  C   UNL     1     -11.901  14.877  67.951  1.00  0.00    -0.286 A  
HETATM   34  C   UNL     1     -11.381  14.751  65.511  1.00  0.00    -0.343 C  
HETATM   35  O   UNL     1     -11.452  13.400  65.576  1.00  0.00    -0.300 OA 
HETATM   36  O   UNL     1     -11.391  15.372  64.470  1.00  0.00    -0.385 OA 
ENDBRANCH  22  28
ENDBRANCH  18  20
ENDBRANCH  16  18
ENDBRANCH   7  16
TORSDOF 5
ENDMDL
MODEL       55
REMARK 921   NORMALIZED FREE ENERGY PREDICTED BY IDOCK:   -7.36 KCAL/MOL
REMARK 922        TOTAL FREE ENERGY PREDICTED BY IDOCK:  -10.81 KCAL/MOL
REMARK 923 INTER-LIGAND FREE ENERGY PREDICTED BY IDOCK:   -9.57 KCAL/MOL
REMARK 924 INTRA-LIGAND FREE ENERGY PREDICTED BY IDOCK:   -1.24 KCAL/MOL
REMARK 927      BINDING AFFINITY PREDICTED BY RF-SCORE:    0.00 PKD
ROOT
HETATM    1  C   UNL     1      -8.522   6.631  65.259  1.00  0.00    -0.078 C  
HETATM    2  C   UNL     1      -9.161   6.936  66.563  1.00  0.00    -0.163 C  
HETATM    3  N   UNL     1      -9.248   6.162  67.606  1.00  0.00    -0.109 NA 
HETATM    4  N   UNL     1      -9.920   6.890  68.607  1.00  0.00    -0.145 N  
HETATM    5  O   UNL     1     -10.857   9.100  68.786  1.00  0.00    -0.171 OA 
HETATM    6  C   UNL     1     -10.286   8.176  68.238  1.00  0.00    -0.206 C  
HETATM    7  C   UNL     1      -9.814   8.241  66.828  1.00  0.00    -0.263 C  
ENDROOT
BRANCH   4   8
HETATM    8  C   UNL     1     -10.201   6.265  69.845  1.00  0.00    -0.184 A  
HETATM    9  C   UNL     1     -11.328   6.622  70.589  1.00  0.00    -0.401 A  
HETATM   10  C   UNL     1     -11.625   5.993  71.797  1.00  0.00    -0.288 A  
HETATM   11  C   UNL     1      -9.367   5.260  70.354  1.00  0.00    -0.208 A  
HETATM   12  C   UNL     1      -8.702   3.538  72.036  1.00  0.00    -0.116 C  
HETATM   13  C   UNL     1      -9.649   4.613  71.575  1.00  0.00    -0.225 A  
HETATM   14  C   UNL     1     -10.796   4.982  72.302  1.00  0.00    -0.207 A  
HETATM   15  C   UNL     1     -11.165   4.345  73.611  1.00  0.00    -0.335 C  
ENDBRANCH   4   8
BRANCH   7  16
HETATM   16  N   UNL     1      -9.938   9.195  65.960  1.00  0.00    -0.366 NA 
HETATM   17  H   UNL     1     -10.269   9.016  65.011  1.00  0.00     0.000 HD 
BRANCH  16  18
HETATM   18  N   UNL     1      -9.603  10.450  66.379  1.00  0.00    -0.172 NA 
HETATM   19  H   UNL     1      -8.644  10.652  66.660  1.00  0.00     0.000 HD 
BRANCH  18  20
HETATM   20  C   UNL     1     -10.578  11.470  66.426  1.00  0.00    -0.259 A  
HETATM   21  C   UNL     1     -10.793  12.241  67.585  1.00  0.00    -0.225 A  
HETATM   22  C   UNL     1     -11.694  13.323  67.635  1.00  0.00    -0.408 A  
HETATM   23  O   UNL     1     -10.076  11.913  68.719  1.00  0.00    -0.316 OA 
HETATM   24  C   UNL     1     -11.366  11.745  65.306  1.00  0.00    -0.284 A  
HETATM   25  C   UNL     1     -12.487  13.540  66.498  1.00  0.00    -0.309 A  
HETATM   26  H   UNL     1     -10.221  12.433  69.501  1.00  0.00     0.000 HD 
HETATM   27  C   UNL     1     -12.330  12.757  65.349  1.00  0.00    -0.528 A  
BRANCH  22  28
HETATM   28  C   UNL     1     -11.706  14.264  68.774  1.00  0.00    -0.378 A  
HETATM   29  C   UNL     1     -11.097  15.527  68.740  1.00  0.00    -0.291 A  
HETATM   30  C   UNL     1     -11.089  16.351  69.874  1.00  0.00    -0.313 A  
HETATM   31  C   UNL     1     -11.722  15.942  71.049  1.00  0.00    -0.473 A  
HETATM   32  C   UNL     1     -12.362  14.705  71.092  1.00  0.00    -0.403 A  
HETATM   33  C   UNL     1     -12.306  13.864  69.982  1.00  0.00    -0.378 A  
HETATM   34  C   UNL     1     -13.062  14.278  72.327  1.00  0.00    -0.405 C  
HETATM   35  O   UNL     1     -14.170  13.537  72.090  1.00  0.00    -0.463 OA 
HETATM   36  O   UNL     1     -12.694  14.594  73.438  1.00  0.00    -0.496 OA 
ENDBRANCH  22  28
ENDBRANCH  18  20
ENDBRANCH  16  18
ENDBRANCH   7  16
TORSDOF 5
ENDMDL
MODEL       56
REMARK 921   NORMALIZED FREE ENERGY PREDICTED BY IDOCK:   -7.32 KCAL/MOL
REMARK 922        TOTAL FREE ENERGY PREDICTED BY IDOCK:  -10.76 KCAL/MOL
REMARK 923 INTER-LIGAND FREE ENERGY PREDICTED BY IDOCK:   -9.50 KCAL/MOL
REMARK 924 INTRA-LIGAND FREE ENERGY PREDICTED BY IDOCK:   -1.27 KCAL/MOL
REMARK 927      BINDING AFFINITY PREDICTED BY RF-SCORE:    0.00 PKD
ROOT
HETATM    1  C   UNL     1     -13.019  10.902  71.636  1.00  0.00    -0.569 C  
HETATM    2  C   UNL     1     -12.138  10.123  70.732  1.00  0.00    -0.343 C  
HETATM    3  N   UNL     1     -11.941   8.836  70.731  1.00  0.00    -0.198 NA 
HETATM    4  N   UNL     1     -11.042   8.556  69.682  1.00  0.00    -0.089 N  
HETATM    5  O   UNL     1      -9.897   9.855  68.012  1.00  0.00    -0.143 OA 
HETATM    6  C   UNL     1     -10.634   9.668  68.960  1.00  0.00    -0.218 C  
HETATM    7  C   UNL     1     -11.336  10.773  69.667  1.00  0.00    -0.294 C  
ENDROOT
BRANCH   4   8
HETATM    8  C   UNL     1     -10.607   7.225  69.483  1.00  0.00    -0.234 A  
HETATM    9  C   UNL     1     -10.196   6.437  70.560  1.00  0.00    -0.230 A  
HETATM   10  C   UNL     1      -9.790   5.115  70.376  1.00  0.00    -0.288 A  
HETATM   11  C   UNL     1     -10.588   6.653  68.203  1.00  0.00    -0.294 A  
HETATM   12  C   UNL     1     -10.203   4.788  66.587  1.00  0.00    -0.274 C  
HETATM   13  C   UNL     1     -10.178   5.319  67.996  1.00  0.00    -0.204 A  
HETATM   14  C   UNL     1      -9.779   4.541  69.098  1.00  0.00    -0.250 A  
HETATM   15  C   UNL     1      -9.327   3.115  68.961  1.00  0.00    -0.230 C  
ENDBRANCH   4   8
BRANCH   7  16
HETATM   16  N   UNL     1     -11.282  12.051  69.461  1.00  0.00    -0.440 NA 
HETATM   17  H   UNL     1     -12.107  12.644  69.552  1.00  0.00     0.000 HD 
BRANCH  16  18
HETATM   18  N   UNL     1     -10.065  12.563  69.116  1.00  0.00    -0.391 NA 
HETATM   19  H   UNL     1      -9.226  12.252  69.605  1.00  0.00     0.000 HD 
BRANCH  18  20
HETATM   20  C   UNL     1      -9.960  13.521  68.083  1.00  0.00    -0.240 A  
HETATM   21  C   UNL     1     -10.028  14.904  68.343  1.00  0.00    -0.222 A  
HETATM   22  C   UNL     1      -9.838  15.884  67.348  1.00  0.00    -0.234 A  
HETATM   23  O   UNL     1     -10.289  15.305  69.638  1.00  0.00    -0.245 OA 
HETATM   24  C   UNL     1      -9.785  13.114  66.759  1.00  0.00    -0.246 A  
HETATM   25  C   UNL     1      -9.698  15.430  66.029  1.00  0.00    -0.370 A  
HETATM   26  H   UNL     1     -10.335  16.237  69.812  1.00  0.00     0.000 HD 
HETATM   27  C   UNL     1      -9.678  14.061  65.735  1.00  0.00    -0.222 A  
BRANCH  22  28
HETATM   28  C   UNL     1      -9.658  17.309  67.696  1.00  0.00    -0.256 A  
HETATM   29  C   UNL     1     -10.663  18.275  67.541  1.00  0.00    -0.381 A  
HETATM   30  C   UNL     1     -10.412  19.624  67.831  1.00  0.00    -0.556 A  
HETATM   31  C   UNL     1      -9.166  20.023  68.317  1.00  0.00    -0.278 A  
HETATM   32  C   UNL     1      -8.166  19.072  68.510  1.00  0.00    -0.390 A  
HETATM   33  C   UNL     1      -8.401  17.745  68.154  1.00  0.00    -0.264 A  
HETATM   34  C   UNL     1      -6.851  19.484  69.054  1.00  0.00    -0.349 C  
HETATM   35  O   UNL     1      -6.278  18.549  69.848  1.00  0.00    -0.238 OA 
HETATM   36  O   UNL     1      -6.355  20.570  68.836  1.00  0.00    -0.314 OA 
ENDBRANCH  22  28
ENDBRANCH  18  20
ENDBRANCH  16  18
ENDBRANCH   7  16
TORSDOF 5
ENDMDL
MODEL       57
REMARK 921   NORMALIZED FREE ENERGY PREDICTED BY IDOCK:   -7.30 KCAL/MOL
REMARK 922        TOTAL FREE ENERGY PREDICTED BY IDOCK:  -10.73 KCAL/MOL
REMARK 923 INTER-LIGAND FREE ENERGY PREDICTED BY IDOCK:   -9.94 KCAL/MOL
REMARK 924 INTRA-LIGAND FREE ENERGY PREDICTED BY IDOCK:   -0.79 KCAL/MOL
REMARK 927      BINDING AFFINITY PREDICTED BY RF-SCORE:    0.00 PKD
ROOT
HETATM    1  C   UNL     1     -12.953  14.507  71.028  1.00  0.00    -0.423 C  
HETATM    2  C   UNL     1     -11.936  14.930  70.034  1.00  0.00    -0.329 C  
HETATM    3  N   UNL     1     -11.421  16.115  69.880  1.00  0.00    -0.315 NA 
HETATM    4  N   UNL     1     -10.488  16.028  68.827  1.00  0.00    -0.235 N  
HETATM    5  O   UNL     1      -9.696  14.278  67.378  1.00  0.00    -0.227 OA 
HETATM    6  C   UNL     1     -10.365  14.764  68.269  1.00  0.00    -0.238 C  
HETATM    7  C   UNL     1     -11.367  13.983  69.044  1.00  0.00    -0.281 C  
ENDROOT
BRANCH   4   8
HETATM    8  C   UNL     1      -9.809  17.196  68.407  1.00  0.00    -0.296 A  
HETATM    9  C   UNL     1      -8.492  17.439  68.801  1.00  0.00    -0.225 A  
HETATM   10  C   UNL     1      -7.807  18.576  68.370  1.00  0.00    -0.332 A  
HETATM   11  C   UNL     1     -10.432  18.135  67.574  1.00  0.00    -0.425 A  
HETATM   12  C   UNL     1     -10.504  20.237  66.227  1.00  0.00    -0.324 C  
HETATM   13  C   UNL     1      -9.758  19.291  67.130  1.00  0.00    -0.409 A  
HETATM   14  C   UNL     1      -8.427  19.510  67.530  1.00  0.00    -0.339 A  
HETATM   15  C   UNL     1      -7.641  20.717  67.103  1.00  0.00    -0.364 C  
ENDBRANCH   4   8
BRANCH   7  16
HETATM   16  N   UNL     1     -11.727  12.745  68.916  1.00  0.00    -0.310 NA 
HETATM   17  H   UNL     1     -11.786  12.118  69.718  1.00  0.00     0.000 HD 
BRANCH  16  18
HETATM   18  N   UNL     1     -12.025  12.323  67.652  1.00  0.00    -0.512 NA 
HETATM   19  H   UNL     1     -12.804  12.746  67.147  1.00  0.00     0.000 HD 
BRANCH  18  20
HETATM   20  C   UNL     1     -11.262  11.305  67.041  1.00  0.00    -0.255 A  
HETATM   21  C   UNL     1     -10.994  10.084  67.691  1.00  0.00    -0.234 A  
HETATM   22  C   UNL     1     -10.313   9.016  67.075  1.00  0.00    -0.339 A  
HETATM   23  O   UNL     1     -11.429   9.939  68.994  1.00  0.00    -0.460 OA 
HETATM   24  C   UNL     1     -10.745  11.485  65.756  1.00  0.00    -0.325 A  
HETATM   25  C   UNL     1      -9.783   9.255  65.798  1.00  0.00    -0.339 A  
HETATM   26  H   UNL     1     -11.248   9.116  69.432  1.00  0.00     0.000 HD 
HETATM   27  C   UNL     1      -9.991  10.477  65.148  1.00  0.00    -0.375 A  
BRANCH  22  28
HETATM   28  C   UNL     1     -10.276   7.671  67.685  1.00  0.00    -0.277 A  
HETATM   29  C   UNL     1     -10.370   7.445  69.066  1.00  0.00    -0.214 A  
HETATM   30  C   UNL     1     -10.267   6.150  69.590  1.00  0.00    -0.255 A  
HETATM   31  C   UNL     1     -10.108   5.054  68.740  1.00  0.00    -0.200 A  
HETATM   32  C   UNL     1     -10.047   5.254  67.363  1.00  0.00    -0.228 A  
HETATM   33  C   UNL     1     -10.081   6.552  66.855  1.00  0.00    -0.253 A  
HETATM   34  C   UNL     1      -9.908   4.092  66.453  1.00  0.00    -0.195 C  
HETATM   35  O   UNL     1     -10.556   4.249  65.275  1.00  0.00    -0.248 OA 
HETATM   36  O   UNL     1      -9.302   3.086  66.754  1.00  0.00    -0.161 OA 
ENDBRANCH  22  28
ENDBRANCH  18  20
ENDBRANCH  16  18
ENDBRANCH   7  16
TORSDOF 5
ENDMDL
MODEL       58
REMARK 921   NORMALIZED FREE ENERGY PREDICTED BY IDOCK:   -7.20 KCAL/MOL
REMARK 922        TOTAL FREE ENERGY PREDICTED BY IDOCK:  -10.61 KCAL/MOL
REMARK 923 INTER-LIGAND FREE ENERGY PREDICTED BY IDOCK:   -9.26 KCAL/MOL
REMARK 924 INTRA-LIGAND FREE ENERGY PREDICTED BY IDOCK:   -1.35 KCAL/MOL
REMARK 927      BINDING AFFINITY PREDICTED BY RF-SCORE:    0.00 PKD
ROOT
HETATM    1  C   UNL     1      -8.045   9.869  70.077  1.00  0.00    -0.193 C  
HETATM    2  C   UNL     1      -9.068   8.940  70.615  1.00  0.00    -0.207 C  
HETATM    3  N   UNL     1      -8.880   7.751  71.110  1.00  0.00    -0.135 NA 
HETATM    4  N   UNL     1     -10.141   7.264  71.509  1.00  0.00    -0.186 N  
HETATM    5  O   UNL     1     -12.393   8.110  71.484  1.00  0.00    -0.294 OA 
HETATM    6  C   UNL     1     -11.193   8.139  71.288  1.00  0.00    -0.260 C  
HETATM    7  C   UNL     1     -10.509   9.292  70.643  1.00  0.00    -0.262 C  
ENDROOT
BRANCH   4   8
HETATM    8  C   UNL     1     -10.239   5.956  72.040  1.00  0.00    -0.197 A  
HETATM    9  C   UNL     1     -10.698   5.744  73.341  1.00  0.00    -0.303 A  
HETATM   10  C   UNL     1     -10.823   4.456  73.863  1.00  0.00    -0.339 A  
HETATM   11  C   UNL     1      -9.893   4.835  71.272  1.00  0.00    -0.256 A  
HETATM   12  C   UNL     1      -9.626   2.383  70.880  1.00  0.00    -0.188 C  
HETATM   13  C   UNL     1     -10.010   3.525  71.783  1.00  0.00    -0.202 A  
HETATM   14  C   UNL     1     -10.485   3.335  73.093  1.00  0.00    -0.254 A  
HETATM   15  C   UNL     1     -10.636   1.974  73.711  1.00  0.00    -0.219 C  
ENDBRANCH   4   8
BRANCH   7  16
HETATM   16  N   UNL     1     -11.010  10.388  70.166  1.00  0.00    -0.322 NA 
HETATM   17  H   UNL     1     -10.869  11.287  70.628  1.00  0.00     0.000 HD 
BRANCH  16  18
HETATM   18  N   UNL     1     -11.734  10.278  69.014  1.00  0.00    -0.503 NA 
HETATM   19  H   UNL     1     -12.682   9.904  69.045  1.00  0.00     0.000 HD 
BRANCH  18  20
HETATM   20  C   UNL     1     -11.176  10.678  67.780  1.00  0.00    -0.313 A  
HETATM   21  C   UNL     1     -11.403  11.960  67.242  1.00  0.00    -0.329 A  
HETATM   22  C   UNL     1     -10.790  12.418  66.059  1.00  0.00    -0.308 A  
HETATM   23  O   UNL     1     -12.267  12.799  67.918  1.00  0.00    -0.255 OA 
HETATM   24  C   UNL     1     -10.374   9.798  67.051  1.00  0.00    -0.305 A  
HETATM   25  C   UNL     1     -10.019  11.490  65.344  1.00  0.00    -0.288 A  
HETATM   26  H   UNL     1     -12.420  13.663  67.554  1.00  0.00     0.000 HD 
HETATM   27  C   UNL     1      -9.818  10.193  65.830  1.00  0.00    -0.331 A  
BRANCH  22  28
HETATM   28  C   UNL     1     -10.844  13.841  65.665  1.00  0.00    -0.287 A  
HETATM   29  C   UNL     1     -11.747  14.348  64.720  1.00  0.00    -0.420 A  
HETATM   30  C   UNL     1     -11.709  15.697  64.342  1.00  0.00    -0.218 A  
HETATM   31  C   UNL     1     -10.793  16.571  64.932  1.00  0.00    -0.222 A  
HETATM   32  C   UNL     1      -9.911  16.093  65.898  1.00  0.00    -0.384 A  
HETATM   33  C   UNL     1      -9.909  14.737  66.217  1.00  0.00    -0.316 A  
HETATM   34  C   UNL     1      -8.956  17.022  66.549  1.00  0.00    -0.269 C  
HETATM   35  O   UNL     1      -8.709  16.719  67.846  1.00  0.00    -0.198 OA 
HETATM   36  O   UNL     1      -8.473  17.979  65.982  1.00  0.00    -0.494 OA 
ENDBRANCH  22  28
ENDBRANCH  18  20
ENDBRANCH  16  18
ENDBRANCH   7  16
TORSDOF 5
ENDMDL
MODEL       59
REMARK 921   NORMALIZED FREE ENERGY PREDICTED BY IDOCK:   -7.18 KCAL/MOL
REMARK 922        TOTAL FREE ENERGY PREDICTED BY IDOCK:  -10.58 KCAL/MOL
REMARK 923 INTER-LIGAND FREE ENERGY PREDICTED BY IDOCK:   -9.20 KCAL/MOL
REMARK 924 INTRA-LIGAND FREE ENERGY PREDICTED BY IDOCK:   -1.37 KCAL/MOL
REMARK 927      BINDING AFFINITY PREDICTED BY RF-SCORE:    0.00 PKD
ROOT
HETATM    1  C   UNL     1      -9.602   3.303  71.618  1.00  0.00    -0.230 C  
HETATM    2  C   UNL     1      -9.734   4.122  70.388  1.00  0.00    -0.201 C  
HETATM    3  N   UNL     1      -9.315   3.830  69.191  1.00  0.00    -0.161 NA 
HETATM    4  N   UNL     1      -9.686   4.898  68.350  1.00  0.00    -0.149 N  
HETATM    5  O   UNL     1     -10.854   6.981  68.638  1.00  0.00    -0.204 OA 
HETATM    6  C   UNL     1     -10.372   5.922  68.987  1.00  0.00    -0.233 C  
HETATM    7  C   UNL     1     -10.399   5.447  70.397  1.00  0.00    -0.283 C  
ENDROOT
BRANCH   4   8
HETATM    8  C   UNL     1      -9.305   4.868  66.988  1.00  0.00    -0.129 A  
HETATM    9  C   UNL     1      -8.121   5.473  66.562  1.00  0.00    -0.105 A  
HETATM   10  C   UNL     1      -7.726   5.426  65.225  1.00  0.00    -0.089 A  
HETATM   11  C   UNL     1     -10.097   4.221  66.029  1.00  0.00    -0.217 A  
HETATM   12  C   UNL     1     -10.624   3.437  63.717  1.00  0.00    -0.265 C  
HETATM   13  C   UNL     1      -9.716   4.165  64.672  1.00  0.00    -0.177 A  
HETATM   14  C   UNL     1      -8.513   4.772  64.268  1.00  0.00    -0.135 A  
HETATM   15  C   UNL     1      -8.038   4.759  62.843  1.00  0.00    -0.085 C  
ENDBRANCH   4   8
BRANCH   7  16
HETATM   16  N   UNL     1     -10.868   6.031  71.455  1.00  0.00    -0.257 NA 
HETATM   17  H   UNL     1     -11.513   5.556  72.088  1.00  0.00     0.000 HD 
BRANCH  16  18
HETATM   18  N   UNL     1     -10.454   7.312  71.680  1.00  0.00    -0.199 NA 
HETATM   19  H   UNL     1      -9.469   7.502  71.863  1.00  0.00     0.000 HD 
BRANCH  18  20
HETATM   20  C   UNL     1     -11.383   8.375  71.662  1.00  0.00    -0.286 A  
HETATM   21  C   UNL     1     -11.175   9.531  70.884  1.00  0.00    -0.341 A  
HETATM   22  C   UNL     1     -12.123  10.567  70.776  1.00  0.00    -0.470 A  
HETATM   23  O   UNL     1      -9.983   9.639  70.196  1.00  0.00    -0.230 OA 
HETATM   24  C   UNL     1     -12.548   8.307  72.428  1.00  0.00    -0.323 A  
HETATM   25  C   UNL     1     -13.263  10.471  71.588  1.00  0.00    -0.493 A  
HETATM   26  H   UNL     1      -9.843  10.418  69.671  1.00  0.00     0.000 HD 
HETATM   27  C   UNL     1     -13.471   9.357  72.410  1.00  0.00    -0.506 A  
BRANCH  22  28
HETATM   28  C   UNL     1     -11.989  11.631  69.759  1.00  0.00    -0.402 A  
HETATM   29  C   UNL     1     -11.857  11.377  68.387  1.00  0.00    -0.344 A  
HETATM   30  C   UNL     1     -11.671  12.427  67.477  1.00  0.00    -0.425 A  
HETATM   31  C   UNL     1     -11.654  13.751  67.919  1.00  0.00    -0.376 A  
HETATM   32  C   UNL     1     -11.818  14.026  69.275  1.00  0.00    -0.389 A  
HETATM   33  C   UNL     1     -11.933  12.973  70.181  1.00  0.00    -0.374 A  
HETATM   34  C   UNL     1     -11.830  15.431  69.747  1.00  0.00    -0.347 C  
HETATM   35  O   UNL     1     -12.661  15.640  70.796  1.00  0.00    -0.458 OA 
HETATM   36  O   UNL     1     -11.184  16.311  69.220  1.00  0.00    -0.322 OA 
ENDBRANCH  22  28
ENDBRANCH  18  20
ENDBRANCH  16  18
ENDBRANCH   7  16
TORSDOF 5
ENDMDL
MODEL       60
REMARK 921   NORMALIZED FREE ENERGY PREDICTED BY IDOCK:   -7.17 KCAL/MOL
REMARK 922        TOTAL FREE ENERGY PREDICTED BY IDOCK:  -10.57 KCAL/MOL
REMARK 923 INTER-LIGAND FREE ENERGY PREDICTED BY IDOCK:   -8.82 KCAL/MOL
REMARK 924 INTRA-LIGAND FREE ENERGY PREDICTED BY IDOCK:   -1.75 KCAL/MOL
REMARK 927      BINDING AFFINITY PREDICTED BY RF-SCORE:    0.00 PKD
ROOT
HETATM    1  C   UNL     1      -7.589  13.088  67.461  1.00  0.00    -0.166 C  
HETATM    2  C   UNL     1      -8.247  12.029  66.658  1.00  0.00    -0.056 C  
HETATM    3  N   UNL     1      -7.766  10.863  66.335  1.00  0.00    -0.151 NA 
HETATM    4  N   UNL     1      -8.758  10.199  65.586  1.00  0.00    -0.152 N  
HETATM    5  O   UNL     1     -10.988  10.722  64.850  1.00  0.00    -0.102 OA 
HETATM    6  C   UNL     1      -9.928  10.923  65.408  1.00  0.00    -0.263 C  
HETATM    7  C   UNL     1      -9.610  12.202  66.099  1.00  0.00    -0.240 C  
ENDROOT
BRANCH   4   8
HETATM    8  C   UNL     1      -8.481   8.917  65.056  1.00  0.00    -0.176 A  
HETATM    9  C   UNL     1      -8.082   8.763  63.727  1.00  0.00    -0.165 A  
HETATM   10  C   UNL     1      -7.782   7.505  63.204  1.00  0.00    -0.130 A  
HETATM   11  C   UNL     1      -8.584   7.767  65.851  1.00  0.00    -0.170 A  
HETATM   12  C   UNL     1      -8.415   5.311  66.271  1.00  0.00    -0.115 C  
HETATM   13  C   UNL     1      -8.287   6.486  65.340  1.00  0.00    -0.140 A  
HETATM   14  C   UNL     1      -7.876   6.356  64.000  1.00  0.00    -0.111 A  
HETATM   15  C   UNL     1      -7.545   5.029  63.380  1.00  0.00    -0.062 C  
ENDBRANCH   4   8
BRANCH   7  16
HETATM   16  N   UNL     1     -10.319  13.281  66.206  1.00  0.00    -0.284 NA 
HETATM   17  H   UNL     1      -9.954  14.192  65.927  1.00  0.00     0.000 HD 
BRANCH  16  18
HETATM   18  N   UNL     1     -11.579  13.137  66.711  1.00  0.00    -0.347 NA 
HETATM   19  H   UNL     1     -12.370  13.028  66.077  1.00  0.00     0.000 HD 
BRANCH  18  20
HETATM   20  C   UNL     1     -11.793  13.137  68.107  1.00  0.00    -0.348 A  
HETATM   21  C   UNL     1     -12.026  11.947  68.824  1.00  0.00    -0.249 A  
HETATM   22  C   UNL     1     -12.153  11.905  70.226  1.00  0.00    -0.409 A  
HETATM   23  O   UNL     1     -12.128  10.771  68.106  1.00  0.00    -0.802 OA 
HETATM   24  C   UNL     1     -11.778  14.336  68.823  1.00  0.00    -0.378 A  
HETATM   25  C   UNL     1     -12.166  13.136  70.899  1.00  0.00    -0.330 A  
HETATM   26  H   UNL     1     -12.286   9.969  68.590  1.00  0.00     0.000 HD 
HETATM   27  C   UNL     1     -11.986  14.338  70.205  1.00  0.00    -0.398 A  
BRANCH  22  28
HETATM   28  C   UNL     1     -12.138  10.624  70.963  1.00  0.00    -0.473 A  
HETATM   29  C   UNL     1     -13.246  10.117  71.657  1.00  0.00    -0.518 A  
HETATM   30  C   UNL     1     -13.151   8.926  72.389  1.00  0.00    -0.476 A  
HETATM   31  C   UNL     1     -11.958   8.201  72.408  1.00  0.00    -0.431 A  
HETATM   32  C   UNL     1     -10.856   8.671  71.697  1.00  0.00    -0.374 A  
HETATM   33  C   UNL     1     -10.939   9.891  71.029  1.00  0.00    -0.360 A  
HETATM   34  C   UNL     1      -9.596   7.890  71.689  1.00  0.00    -0.163 C  
HETATM   35  O   UNL     1      -8.920   7.970  70.519  1.00  0.00    -0.148 OA 
HETATM   36  O   UNL     1      -9.228   7.218  72.629  1.00  0.00    -0.135 OA 
ENDBRANCH  22  28
ENDBRANCH  18  20
ENDBRANCH  16  18
ENDBRANCH   7  16
TORSDOF 5
ENDMDL
MODEL       61
REMARK 921   NORMALIZED FREE ENERGY PREDICTED BY IDOCK:   -7.12 KCAL/MOL
REMARK 922        TOTAL FREE ENERGY PREDICTED BY IDOCK:  -10.50 KCAL/MOL
REMARK 923 INTER-LIGAND FREE ENERGY PREDICTED BY IDOCK:   -9.50 KCAL/MOL
REMARK 924 INTRA-LIGAND FREE ENERGY PREDICTED BY IDOCK:   -1.00 KCAL/MOL
REMARK 927      BINDING AFFINITY PREDICTED BY RF-SCORE:    0.00 PKD
ROOT
HETATM    1  C   UNL     1     -12.524  15.225  70.151  1.00  0.00    -0.374 C  
HETATM    2  C   UNL     1     -11.601  15.763  69.122  1.00  0.00    -0.392 C  
HETATM    3  N   UNL     1     -10.777  16.764  69.238  1.00  0.00    -0.340 NA 
HETATM    4  N   UNL     1     -10.099  16.887  68.010  1.00  0.00    -0.280 N  
HETATM    5  O   UNL     1     -10.129  15.716  65.908  1.00  0.00    -0.302 OA 
HETATM    6  C   UNL     1     -10.463  15.951  67.053  1.00  0.00    -0.306 C  
HETATM    7  C   UNL     1     -11.518  15.177  67.761  1.00  0.00    -0.318 C  
ENDROOT
BRANCH   4   8
HETATM    8  C   UNL     1      -9.170  17.940  67.837  1.00  0.00    -0.263 A  
HETATM    9  C   UNL     1      -9.464  19.026  67.008  1.00  0.00    -0.358 A  
HETATM   10  C   UNL     1      -8.565  20.080  66.852  1.00  0.00    -0.402 A  
HETATM   11  C   UNL     1      -7.935  17.934  68.500  1.00  0.00    -0.302 A  
HETATM   12  C   UNL     1      -5.717  18.900  69.116  1.00  0.00    -0.226 C  
HETATM   13  C   UNL     1      -7.012  18.989  68.354  1.00  0.00    -0.290 A  
HETATM   14  C   UNL     1      -7.334  20.078  67.523  1.00  0.00    -0.314 A  
HETATM   15  C   UNL     1      -6.405  21.239  67.312  1.00  0.00    -0.421 C  
ENDBRANCH   4   8
BRANCH   7  16
HETATM   16  N   UNL     1     -12.259  14.205  67.330  1.00  0.00    -0.570 NA 
HETATM   17  H   UNL     1     -13.042  14.368  66.697  1.00  0.00     0.000 HD 
BRANCH  16  18
HETATM   18  N   UNL     1     -11.937  12.952  67.767  1.00  0.00    -0.329 NA 
HETATM   19  H   UNL     1     -12.182  12.667  68.714  1.00  0.00     0.000 HD 
BRANCH  18  20
HETATM   20  C   UNL     1     -11.266  12.050  66.913  1.00  0.00    -0.320 A  
HETATM   21  C   UNL     1     -10.430  11.033  67.414  1.00  0.00    -0.218 A  
HETATM   22  C   UNL     1      -9.820  10.063  66.594  1.00  0.00    -0.259 A  
HETATM   23  O   UNL     1     -10.211  10.992  68.777  1.00  0.00    -0.185 OA 
HETATM   24  C   UNL     1     -11.416  12.146  65.527  1.00  0.00    -0.394 A  
HETATM   25  C   UNL     1      -9.971  10.219  65.208  1.00  0.00    -0.387 A  
HETATM   26  H   UNL     1      -9.648  10.306  69.115  1.00  0.00     0.000 HD 
HETATM   27  C   UNL     1     -10.755  11.251  64.680  1.00  0.00    -0.371 A  
BRANCH  22  28
HETATM   28  C   UNL     1      -9.168   8.868  67.169  1.00  0.00    -0.169 A  
HETATM   29  C   UNL     1      -7.777   8.687  67.204  1.00  0.00    -0.096 A  
HETATM   30  C   UNL     1      -7.220   7.503  67.706  1.00  0.00    -0.094 A  
HETATM   31  C   UNL     1      -8.042   6.497  68.219  1.00  0.00    -0.110 A  
HETATM   32  C   UNL     1      -9.424   6.674  68.224  1.00  0.00    -0.123 A  
HETATM   33  C   UNL     1      -9.972   7.823  67.660  1.00  0.00    -0.230 A  
HETATM   34  C   UNL     1     -10.299   5.622  68.794  1.00  0.00    -0.218 C  
HETATM   35  O   UNL     1     -11.403   6.113  69.406  1.00  0.00    -0.420 OA 
HETATM   36  O   UNL     1     -10.031   4.440  68.746  1.00  0.00    -0.125 OA 
ENDBRANCH  22  28
ENDBRANCH  18  20
ENDBRANCH  16  18
ENDBRANCH   7  16
TORSDOF 5
ENDMDL
MODEL       62
REMARK 921   NORMALIZED FREE ENERGY PREDICTED BY IDOCK:   -7.11 KCAL/MOL
REMARK 922        TOTAL FREE ENERGY PREDICTED BY IDOCK:  -10.50 KCAL/MOL
REMARK 923 INTER-LIGAND FREE ENERGY PREDICTED BY IDOCK:  -10.04 KCAL/MOL
REMARK 924 INTRA-LIGAND FREE ENERGY PREDICTED BY IDOCK:   -0.46 KCAL/MOL
REMARK 927      BINDING AFFINITY PREDICTED BY RF-SCORE:    0.00 PKD
ROOT
HETATM    1  C   UNL     1     -13.576  13.855  72.156  1.00  0.00    -0.599 C  
HETATM    2  C   UNL     1     -12.691  14.111  70.993  1.00  0.00    -0.362 C  
HETATM    3  N   UNL     1     -12.354  15.263  70.490  1.00  0.00    -0.360 NA 
HETATM    4  N   UNL     1     -11.485  15.006  69.412  1.00  0.00    -0.281 N  
HETATM    5  O   UNL     1     -10.551  13.036  68.394  1.00  0.00    -0.239 OA 
HETATM    6  C   UNL     1     -11.224  13.662  69.189  1.00  0.00    -0.261 C  
HETATM    7  C   UNL     1     -12.059  13.006  70.232  1.00  0.00    -0.314 C  
ENDROOT
BRANCH   4   8
HETATM    8  C   UNL     1     -11.000  16.089  68.642  1.00  0.00    -0.323 A  
HETATM    9  C   UNL     1     -10.778  15.950  67.270  1.00  0.00    -0.306 A  
HETATM   10  C   UNL     1     -10.325  17.020  66.499  1.00  0.00    -0.298 A  
HETATM   11  C   UNL     1     -10.743  17.336  69.228  1.00  0.00    -0.051 A  
HETATM   12  C   UNL     1     -10.045  19.734  69.180  1.00  0.00    -0.372 C  
HETATM   13  C   UNL     1     -10.282  18.430  68.466  1.00  0.00    -0.394 A  
HETATM   14  C   UNL     1     -10.076  18.269  67.084  1.00  0.00    -0.367 A  
HETATM   15  C   UNL     1      -9.585  19.383  66.203  1.00  0.00    -0.384 C  
ENDBRANCH   4   8
BRANCH   7  16
HETATM   16  N   UNL     1     -12.254  11.746  70.462  1.00  0.00    -0.365 NA 
HETATM   17  H   UNL     1     -13.181  11.376  70.673  1.00  0.00     0.000 HD 
BRANCH  16  18
HETATM   18  N   UNL     1     -11.154  10.938  70.406  1.00  0.00    -0.459 NA 
HETATM   19  H   UNL     1     -10.242  11.337  70.187  1.00  0.00     0.000 HD 
BRANCH  18  20
HETATM   20  C   UNL     1     -11.274   9.552  70.650  1.00  0.00    -0.302 A  
HETATM   21  C   UNL     1     -11.110   8.600  69.625  1.00  0.00    -0.013 A  
HETATM   22  C   UNL     1     -11.135   7.210  69.854  1.00  0.00    -0.264 A  
HETATM   23  O   UNL     1     -10.912   9.064  68.339  1.00  0.00    -0.451 OA 
HETATM   24  C   UNL     1     -11.563   9.084  71.934  1.00  0.00    -0.441 A  
HETATM   25  C   UNL     1     -11.461   6.787  71.151  1.00  0.00    -0.361 A  
HETATM   26  H   UNL     1     -10.802   8.422  67.648  1.00  0.00     0.000 HD 
HETATM   27  C   UNL     1     -11.678   7.712  72.178  1.00  0.00    -0.355 A  
BRANCH  22  28
HETATM   28  C   UNL     1     -10.706   6.250  68.815  1.00  0.00    -0.352 A  
HETATM   29  C   UNL     1     -10.976   6.417  67.449  1.00  0.00    -0.463 A  
HETATM   30  C   UNL     1     -10.596   5.440  66.518  1.00  0.00    -0.353 A  
HETATM   31  C   UNL     1      -9.905   4.300  66.932  1.00  0.00    -0.224 A  
HETATM   32  C   UNL     1      -9.597   4.133  68.281  1.00  0.00    -0.191 A  
HETATM   33  C   UNL     1     -10.039   5.075  69.208  1.00  0.00    -0.270 A  
HETATM   34  C   UNL     1      -8.838   2.939  68.722  1.00  0.00    -0.111 C  
HETATM   35  O   UNL     1      -8.003   3.184  69.760  1.00  0.00    -0.046 OA 
HETATM   36  O   UNL     1      -8.932   1.858  68.180  1.00  0.00    -0.103 OA 
ENDBRANCH  22  28
ENDBRANCH  18  20
ENDBRANCH  16  18
ENDBRANCH   7  16
TORSDOF 5
ENDMDL
MODEL       63
REMARK 921   NORMALIZED FREE ENERGY PREDICTED BY IDOCK:   -7.05 KCAL/MOL
REMARK 922        TOTAL FREE ENERGY PREDICTED BY IDOCK:  -10.42 KCAL/MOL
REMARK 923 INTER-LIGAND FREE ENERGY PREDICTED BY IDOCK:   -9.32 KCAL/MOL
REMARK 924 INTRA-LIGAND FREE ENERGY PREDICTED BY IDOCK:   -1.10 KCAL/MOL
REMARK 927      BINDING AFFINITY PREDICTED BY RF-SCORE:    0.00 PKD
ROOT
HETATM    1  C   UNL     1     -13.784   9.672  72.012  1.00  0.00    -0.396 C  
HETATM    2  C   UNL     1     -12.339   9.418  71.797  1.00  0.00    -0.394 C  
HETATM    3  N   UNL     1     -11.570   8.597  72.452  1.00  0.00    -0.355 NA 
HETATM    4  N   UNL     1     -10.286   8.684  71.878  1.00  0.00    -0.307 N  
HETATM    5  O   UNL     1      -9.296   9.925  70.071  1.00  0.00    -0.227 OA 
HETATM    6  C   UNL     1     -10.188   9.570  70.816  1.00  0.00    -0.293 C  
HETATM    7  C   UNL     1     -11.567  10.124  70.745  1.00  0.00    -0.357 C  
ENDROOT
BRANCH   4   8
HETATM    8  C   UNL     1      -9.228   7.927  72.436  1.00  0.00    -0.181 A  
HETATM    9  C   UNL     1      -9.087   7.805  73.820  1.00  0.00    -0.333 A  
HETATM   10  C   UNL     1      -8.062   7.040  74.377  1.00  0.00    -0.163 A  
HETATM   11  C   UNL     1      -8.300   7.268  71.618  1.00  0.00    -0.108 A  
HETATM   12  C   UNL     1      -6.315   5.811  71.205  1.00  0.00    -0.039 C  
HETATM   13  C   UNL     1      -7.256   6.492  72.162  1.00  0.00    -0.086 A  
HETATM   14  C   UNL     1      -7.140   6.374  73.559  1.00  0.00    -0.082 A  
HETATM   15  C   UNL     1      -6.055   5.569  74.217  1.00  0.00    -0.059 C  
ENDBRANCH   4   8
BRANCH   7  16
HETATM   16  N   UNL     1     -12.048  11.043  69.969  1.00  0.00    -0.337 NA 
HETATM   17  H   UNL     1     -12.934  10.920  69.477  1.00  0.00     0.000 HD 
BRANCH  16  18
HETATM   18  N   UNL     1     -11.310  12.185  69.844  1.00  0.00    -0.506 NA 
HETATM   19  H   UNL     1     -10.796  12.547  70.646  1.00  0.00     0.000 HD 
BRANCH  18  20
HETATM   20  C   UNL     1     -11.255  12.867  68.608  1.00  0.00    -0.281 A  
HETATM   21  C   UNL     1     -10.551  14.078  68.458  1.00  0.00    -0.254 A  
HETATM   22  C   UNL     1     -10.403  14.735  67.221  1.00  0.00    -0.247 A  
HETATM   23  O   UNL     1      -9.978  14.634  69.585  1.00  0.00    -0.423 OA 
HETATM   24  C   UNL     1     -11.908  12.350  67.487  1.00  0.00    -0.354 A  
HETATM   25  C   UNL     1     -11.104  14.198  66.131  1.00  0.00    -0.312 A  
HETATM   26  H   UNL     1      -9.504  15.451  69.484  1.00  0.00     0.000 HD 
HETATM   27  C   UNL     1     -11.853  13.023  66.262  1.00  0.00    -0.466 A  
BRANCH  22  28
HETATM   28  C   UNL     1      -9.451  15.852  67.050  1.00  0.00    -0.234 A  
HETATM   29  C   UNL     1      -8.067  15.673  66.904  1.00  0.00    -0.290 A  
HETATM   30  C   UNL     1      -7.208  16.776  66.808  1.00  0.00    -0.270 A  
HETATM   31  C   UNL     1      -7.720  18.075  66.817  1.00  0.00    -0.252 A  
HETATM   32  C   UNL     1      -9.095  18.271  66.927  1.00  0.00    -0.282 A  
HETATM   33  C   UNL     1      -9.935  17.172  67.092  1.00  0.00    -0.283 A  
HETATM   34  C   UNL     1      -9.647  19.647  66.908  1.00  0.00    -0.359 C  
HETATM   35  O   UNL     1     -10.858  19.733  66.308  1.00  0.00    -0.429 OA 
HETATM   36  O   UNL     1      -9.053  20.604  67.355  1.00  0.00    -0.358 OA 
ENDBRANCH  22  28
ENDBRANCH  18  20
ENDBRANCH  16  18
ENDBRANCH   7  16
TORSDOF 5
ENDMDL
MODEL       64
REMARK 921   NORMALIZED FREE ENERGY PREDICTED BY IDOCK:   -7.05 KCAL/MOL
REMARK 922        TOTAL FREE ENERGY PREDICTED BY IDOCK:  -10.42 KCAL/MOL
REMARK 923 INTER-LIGAND FREE ENERGY PREDICTED BY IDOCK:   -9.07 KCAL/MOL
REMARK 924 INTRA-LIGAND FREE ENERGY PREDICTED BY IDOCK:   -1.35 KCAL/MOL
REMARK 927      BINDING AFFINITY PREDICTED BY RF-SCORE:    0.00 PKD
ROOT
HETATM    1  C   UNL     1     -12.390  13.896  70.223  1.00  0.00    -0.413 C  
HETATM    2  C   UNL     1     -11.978  12.487  70.007  1.00  0.00    -0.299 C  
HETATM    3  N   UNL     1     -12.037  11.503  70.857  1.00  0.00    -0.318 NA 
HETATM    4  N   UNL     1     -11.557  10.355  70.196  1.00  0.00    -0.289 N  
HETATM    5  O   UNL     1     -10.729   9.867  67.990  1.00  0.00    -0.224 OA 
HETATM    6  C   UNL     1     -11.176  10.565  68.879  1.00  0.00    -0.266 C  
HETATM    7  C   UNL     1     -11.416  12.024  68.715  1.00  0.00    -0.300 C  
ENDROOT
BRANCH   4   8
HETATM    8  C   UNL     1     -11.460   9.137  70.910  1.00  0.00    -0.296 A  
HETATM    9  C   UNL     1     -12.344   8.086  70.656  1.00  0.00     0.152 A  
HETATM   10  C   UNL     1     -12.239   6.873  71.337  1.00  0.00    -0.418 A  
HETATM   11  C   UNL     1     -10.467   8.943  71.880  1.00  0.00    -0.415 A  
HETATM   12  C   UNL     1      -9.241   7.605  73.596  1.00  0.00    -0.339 C  
HETATM   13  C   UNL     1     -10.346   7.725  72.581  1.00  0.00    -0.352 A  
HETATM   14  C   UNL     1     -11.241   6.677  72.300  1.00  0.00    -0.303 A  
HETATM   15  C   UNL     1     -11.181   5.351  73.004  1.00  0.00    -0.370 C  
ENDBRANCH   4   8
BRANCH   7  16
HETATM   16  N   UNL     1     -11.184  12.790  67.695  1.00  0.00    -0.264 NA 
HETATM   17  H   UNL     1     -11.838  13.520  67.414  1.00  0.00     0.000 HD 
BRANCH  16  18
HETATM   18  N   UNL     1     -10.020  12.568  67.018  1.00  0.00    -0.212 NA 
HETATM   19  H   UNL     1      -9.967  11.814  66.334  1.00  0.00     0.000 HD 
BRANCH  18  20
HETATM   20  C   UNL     1      -8.888  13.377  67.261  1.00  0.00    -0.220 A  
HETATM   21  C   UNL     1      -8.753  14.657  66.689  1.00  0.00    -0.163 A  
HETATM   22  C   UNL     1      -7.680  15.522  66.983  1.00  0.00    -0.246 A  
HETATM   23  O   UNL     1      -9.727  15.074  65.804  1.00  0.00    -0.327 OA 
HETATM   24  C   UNL     1      -7.859  12.920  68.086  1.00  0.00    -0.147 A  
HETATM   25  C   UNL     1      -6.654  15.009  67.789  1.00  0.00    -0.189 A  
HETATM   26  H   UNL     1      -9.635  15.937  65.418  1.00  0.00     0.000 HD 
HETATM   27  C   UNL     1      -6.738  13.721  68.331  1.00  0.00    -0.100 A  
BRANCH  22  28
HETATM   28  C   UNL     1      -7.702  16.943  66.574  1.00  0.00    -0.326 A  
HETATM   29  C   UNL     1      -6.720  17.529  65.762  1.00  0.00    -0.073 A  
HETATM   30  C   UNL     1      -6.762  18.896  65.459  1.00  0.00    -0.292 A  
HETATM   31  C   UNL     1      -7.807  19.693  65.929  1.00  0.00    -0.295 A  
HETATM   32  C   UNL     1      -8.811  19.121  66.708  1.00  0.00    -0.330 A  
HETATM   33  C   UNL     1      -8.724  17.776  67.062  1.00  0.00    -0.254 A  
HETATM   34  C   UNL     1      -9.939  19.955  67.186  1.00  0.00    -0.423 C  
HETATM   35  O   UNL     1     -11.114  19.285  67.255  1.00  0.00    -0.442 OA 
HETATM   36  O   UNL     1      -9.825  21.133  67.454  1.00  0.00    -0.312 OA 
ENDBRANCH  22  28
ENDBRANCH  18  20
ENDBRANCH  16  18
ENDBRANCH   7  16
TORSDOF 5
ENDMDL
MODEL       65
REMARK 921   NORMALIZED FREE ENERGY PREDICTED BY IDOCK:   -7.03 KCAL/MOL
REMARK 922        TOTAL FREE ENERGY PREDICTED BY IDOCK:  -10.38 KCAL/MOL
REMARK 923 INTER-LIGAND FREE ENERGY PREDICTED BY IDOCK:   -8.15 KCAL/MOL
REMARK 924 INTRA-LIGAND FREE ENERGY PREDICTED BY IDOCK:   -2.23 KCAL/MOL
REMARK 927      BINDING AFFINITY PREDICTED BY RF-SCORE:    0.00 PKD
ROOT
HETATM    1  C   UNL     1      -5.721   7.458  70.135  1.00  0.00    -0.024 C  
HETATM    2  C   UNL     1      -7.172   7.316  69.862  1.00  0.00    -0.081 C  
HETATM    3  N   UNL     1      -8.161   7.793  70.561  1.00  0.00    -0.118 NA 
HETATM    4  N   UNL     1      -9.351   7.421  69.903  1.00  0.00    -0.155 N  
HETATM    5  O   UNL     1      -9.894   6.198  67.904  1.00  0.00    -0.117 OA 
HETATM    6  C   UNL     1      -9.162   6.691  68.740  1.00  0.00    -0.129 C  
HETATM    7  C   UNL     1      -7.680   6.565  68.689  1.00  0.00    -0.102 C  
ENDROOT
BRANCH   4   8
HETATM    8  C   UNL     1     -10.596   7.767  70.480  1.00  0.00    -0.226 A  
HETATM    9  C   UNL     1     -11.419   6.791  71.046  1.00  0.00    -0.372 A  
HETATM   10  C   UNL     1     -12.636   7.127  71.639  1.00  0.00    -0.410 A  
HETATM   11  C   UNL     1     -11.034   9.098  70.512  1.00  0.00    -0.307 A  
HETATM   12  C   UNL     1     -12.644  10.914  71.104  1.00  0.00    -0.532 C  
HETATM   13  C   UNL     1     -12.262   9.457  71.105  1.00  0.00    -0.402 A  
HETATM   14  C   UNL     1     -13.069   8.458  71.679  1.00  0.00    -0.355 A  
HETATM   15  C   UNL     1     -14.392   8.758  72.327  1.00  0.00    -0.468 C  
ENDBRANCH   4   8
BRANCH   7  16
HETATM   16  N   UNL     1      -6.934   5.929  67.841  1.00  0.00    -0.064 NA 
HETATM   17  H   UNL     1      -6.237   5.249  68.145  1.00  0.00     0.000 HD 
BRANCH  16  18
HETATM   18  N   UNL     1      -7.129   6.217  66.521  1.00  0.00    -0.067 NA 
HETATM   19  H   UNL     1      -7.413   5.478  65.877  1.00  0.00     0.000 HD 
BRANCH  18  20
HETATM   20  C   UNL     1      -6.938   7.531  66.041  1.00  0.00    -0.061 A  
HETATM   21  C   UNL     1      -7.998   8.287  65.502  1.00  0.00    -0.120 A  
HETATM   22  C   UNL     1      -7.858   9.630  65.099  1.00  0.00    -0.117 A  
HETATM   23  O   UNL     1      -9.228   7.673  65.374  1.00  0.00    -0.375 OA 
HETATM   24  C   UNL     1      -5.674   8.123  66.089  1.00  0.00    -0.040 A  
HETATM   25  C   UNL     1      -6.565  10.172  65.134  1.00  0.00    -0.124 A  
HETATM   26  H   UNL     1      -9.942   8.183  65.010  1.00  0.00     0.000 HD 
HETATM   27  C   UNL     1      -5.484   9.426  65.617  1.00  0.00    -0.040 A  
BRANCH  22  28
HETATM   28  C   UNL     1      -9.036  10.466  64.785  1.00  0.00    -0.228 A  
HETATM   29  C   UNL     1      -9.420  10.801  63.479  1.00  0.00    -0.331 A  
HETATM   30  C   UNL     1     -10.512  11.649  63.247  1.00  0.00    -0.438 A  
HETATM   31  C   UNL     1     -11.261  12.145  64.316  1.00  0.00    -0.409 A  
HETATM   32  C   UNL     1     -10.915  11.796  65.619  1.00  0.00    -0.348 A  
HETATM   33  C   UNL     1      -9.788  11.009  65.844  1.00  0.00    -0.278 A  
HETATM   34  C   UNL     1     -11.725  12.295  66.756  1.00  0.00    -0.342 C  
HETATM   35  O   UNL     1     -11.812  11.416  67.783  1.00  0.00    -0.595 OA 
HETATM   36  O   UNL     1     -12.283  13.372  66.749  1.00  0.00    -0.377 OA 
ENDBRANCH  22  28
ENDBRANCH  18  20
ENDBRANCH  16  18
ENDBRANCH   7  16
TORSDOF 5
ENDMDL
MODEL       66
REMARK 921   NORMALIZED FREE ENERGY PREDICTED BY IDOCK:   -7.02 KCAL/MOL
REMARK 922        TOTAL FREE ENERGY PREDICTED BY IDOCK:  -10.38 KCAL/MOL
REMARK 923 INTER-LIGAND FREE ENERGY PREDICTED BY IDOCK:   -9.43 KCAL/MOL
REMARK 924 INTRA-LIGAND FREE ENERGY PREDICTED BY IDOCK:   -0.94 KCAL/MOL
REMARK 927      BINDING AFFINITY PREDICTED BY RF-SCORE:    0.00 PKD
ROOT
HETATM    1  C   UNL     1      -8.398   7.507  73.481  1.00  0.00    -0.195 C  
HETATM    2  C   UNL     1      -9.132   6.864  72.363  1.00  0.00    -0.133 C  
HETATM    3  N   UNL     1      -8.729   5.885  71.607  1.00  0.00    -0.135 NA 
HETATM    4  N   UNL     1      -9.771   5.603  70.702  1.00  0.00    -0.174 N  
HETATM    5  O   UNL     1     -11.979   6.474  70.304  1.00  0.00    -0.394 OA 
HETATM    6  C   UNL     1     -10.898   6.397  70.855  1.00  0.00    -0.263 C  
HETATM    7  C   UNL     1     -10.492   7.302  71.964  1.00  0.00    -0.201 C  
ENDROOT
BRANCH   4   8
HETATM    8  C   UNL     1      -9.581   4.605  69.718  1.00  0.00    -0.188 A  
HETATM    9  C   UNL     1      -9.273   3.292  70.080  1.00  0.00    -0.221 A  
HETATM   10  C   UNL     1      -9.109   2.296  69.116  1.00  0.00    -0.183 A  
HETATM   11  C   UNL     1      -9.708   4.900  68.353  1.00  0.00    -0.212 A  
HETATM   12  C   UNL     1      -9.712   4.316  65.925  1.00  0.00    -0.211 C  
HETATM   13  C   UNL     1      -9.544   3.908  67.364  1.00  0.00    -0.218 A  
HETATM   14  C   UNL     1      -9.245   2.589  67.753  1.00  0.00    -0.240 A  
HETATM   15  C   UNL     1      -9.052   1.476  66.762  1.00  0.00    -0.077 C  
ENDBRANCH   4   8
BRANCH   7  16
HETATM   16  N   UNL     1     -11.133   8.295  72.497  1.00  0.00    -0.372 NA 
HETATM   17  H   UNL     1     -10.845   8.703  73.386  1.00  0.00     0.000 HD 
BRANCH  16  18
HETATM   18  N   UNL     1     -12.213   8.764  71.807  1.00  0.00    -0.325 NA 
HETATM   19  H   UNL     1     -13.037   8.175  71.691  1.00  0.00     0.000 HD 
BRANCH  18  20
HETATM   20  C   UNL     1     -12.196  10.063  71.252  1.00  0.00    -0.402 A  
HETATM   21  C   UNL     1     -11.565  10.339  70.024  1.00  0.00    -0.276 A  
HETATM   22  C   UNL     1     -11.607  11.602  69.402  1.00  0.00    -0.392 A  
HETATM   23  O   UNL     1     -10.879   9.311  69.407  1.00  0.00    -0.266 OA 
HETATM   24  C   UNL     1     -12.814  11.123  71.920  1.00  0.00    -0.400 A  
HETATM   25  C   UNL     1     -12.209  12.644  70.124  1.00  0.00    -0.310 A  
HETATM   26  H   UNL     1     -10.453   9.497  68.578  1.00  0.00     0.000 HD 
HETATM   27  C   UNL     1     -12.801  12.409  71.371  1.00  0.00    -0.360 A  
BRANCH  22  28
HETATM   28  C   UNL     1     -11.162  11.789  68.006  1.00  0.00    -0.324 A  
HETATM   29  C   UNL     1     -10.099  11.078  67.431  1.00  0.00    -0.216 A  
HETATM   30  C   UNL     1      -9.684  11.344  66.119  1.00  0.00    -0.248 A  
HETATM   31  C   UNL     1     -10.349  12.298  65.346  1.00  0.00    -0.298 A  
HETATM   32  C   UNL     1     -11.429  12.991  65.889  1.00  0.00    -0.374 A  
HETATM   33  C   UNL     1     -11.791  12.769  67.216  1.00  0.00    -0.414 A  
HETATM   34  C   UNL     1     -12.158  13.983  65.064  1.00  0.00    -0.415 C  
HETATM   35  O   UNL     1     -13.484  14.037  65.332  1.00  0.00    -0.679 OA 
HETATM   36  O   UNL     1     -11.621  14.654  64.208  1.00  0.00    -0.314 OA 
ENDBRANCH  22  28
ENDBRANCH  18  20
ENDBRANCH  16  18
ENDBRANCH   7  16
TORSDOF 5
ENDMDL
MODEL       67
REMARK 921   NORMALIZED FREE ENERGY PREDICTED BY IDOCK:   -7.02 KCAL/MOL
REMARK 922        TOTAL FREE ENERGY PREDICTED BY IDOCK:  -10.37 KCAL/MOL
REMARK 923 INTER-LIGAND FREE ENERGY PREDICTED BY IDOCK:   -9.00 KCAL/MOL
REMARK 924 INTRA-LIGAND FREE ENERGY PREDICTED BY IDOCK:   -1.38 KCAL/MOL
REMARK 927      BINDING AFFINITY PREDICTED BY RF-SCORE:    0.00 PKD
ROOT
HETATM    1  C   UNL     1      -5.525   9.420  71.221  1.00  0.00    -0.060 C  
HETATM    2  C   UNL     1      -6.896   9.316  70.665  1.00  0.00    -0.094 C  
HETATM    3  N   UNL     1      -8.007   9.134  71.318  1.00  0.00    -0.325 NA 
HETATM    4  N   UNL     1      -9.049   9.123  70.370  1.00  0.00    -0.212 N  
HETATM    5  O   UNL     1      -9.196   9.369  67.981  1.00  0.00    -0.130 OA 
HETATM    6  C   UNL     1      -8.637   9.309  69.059  1.00  0.00    -0.134 C  
HETATM    7  C   UNL     1      -7.160   9.413  69.208  1.00  0.00    -0.058 C  
ENDROOT
BRANCH   4   8
HETATM    8  C   UNL     1     -10.375   8.887  70.804  1.00  0.00    -0.226 A  
HETATM    9  C   UNL     1     -10.874   7.587  70.906  1.00  0.00    -0.252 A  
HETATM   10  C   UNL     1     -12.172   7.345  71.357  1.00  0.00    -0.374 A  
HETATM   11  C   UNL     1     -11.221   9.948  71.156  1.00  0.00    -0.404 A  
HETATM   12  C   UNL     1     -13.367  10.924  71.980  1.00  0.00    -0.394 C  
HETATM   13  C   UNL     1     -12.537   9.724  71.612  1.00  0.00    -0.509 A  
HETATM   14  C   UNL     1     -13.014   8.405  71.718  1.00  0.00    -0.368 A  
HETATM   15  C   UNL     1     -14.403   8.082  72.191  1.00  0.00    -0.442 C  
ENDBRANCH   4   8
BRANCH   7  16
HETATM   16  N   UNL     1      -6.245   9.538  68.300  1.00  0.00    -0.052 NA 
HETATM   17  H   UNL     1      -6.035   8.786  67.643  1.00  0.00     0.000 HD 
BRANCH  16  18
HETATM   18  N   UNL     1      -5.577  10.728  68.265  1.00  0.00    -0.043 NA 
HETATM   19  H   UNL     1      -4.569  10.740  68.110  1.00  0.00     0.000 HD 
BRANCH  18  20
HETATM   20  C   UNL     1      -6.274  11.943  68.445  1.00  0.00    -0.050 A  
HETATM   21  C   UNL     1      -7.334  12.325  67.599  1.00  0.00    -0.127 A  
HETATM   22  C   UNL     1      -8.105  13.485  67.806  1.00  0.00    -0.177 A  
HETATM   23  O   UNL     1      -7.623  11.511  66.521  1.00  0.00    -0.274 OA 
HETATM   24  C   UNL     1      -5.924  12.810  69.482  1.00  0.00    -0.112 A  
HETATM   25  C   UNL     1      -7.696  14.342  68.839  1.00  0.00    -0.128 A  
HETATM   26  H   UNL     1      -8.337  11.769  65.950  1.00  0.00     0.000 HD 
HETATM   27  C   UNL     1      -6.615  14.012  69.664  1.00  0.00    -0.099 A  
BRANCH  22  28
HETATM   28  C   UNL     1      -9.360  13.719  67.062  1.00  0.00    -0.250 A  
HETATM   29  C   UNL     1     -10.405  12.786  66.996  1.00  0.00    -0.240 A  
HETATM   30  C   UNL     1     -11.546  13.040  66.223  1.00  0.00    -0.408 A  
HETATM   31  C   UNL     1     -11.680  14.248  65.535  1.00  0.00    -0.353 A  
HETATM   32  C   UNL     1     -10.667  15.202  65.617  1.00  0.00    -0.374 A  
HETATM   33  C   UNL     1      -9.507  14.913  66.331  1.00  0.00    -0.327 A  
HETATM   34  C   UNL     1     -10.817  16.498  64.914  1.00  0.00    -0.204 C  
HETATM   35  O   UNL     1     -10.254  17.538  65.574  1.00  0.00    -0.608 OA 
HETATM   36  O   UNL     1     -11.416  16.617  63.866  1.00  0.00    -1.186 OA 
ENDBRANCH  22  28
ENDBRANCH  18  20
ENDBRANCH  16  18
ENDBRANCH   7  16
TORSDOF 5
ENDMDL
MODEL       68
REMARK 921   NORMALIZED FREE ENERGY PREDICTED BY IDOCK:   -7.01 KCAL/MOL
REMARK 922        TOTAL FREE ENERGY PREDICTED BY IDOCK:  -10.36 KCAL/MOL
REMARK 923 INTER-LIGAND FREE ENERGY PREDICTED BY IDOCK:   -9.32 KCAL/MOL
REMARK 924 INTRA-LIGAND FREE ENERGY PREDICTED BY IDOCK:   -1.04 KCAL/MOL
REMARK 927      BINDING AFFINITY PREDICTED BY RF-SCORE:    0.00 PKD
ROOT
HETATM    1  C   UNL     1     -12.000  15.710  64.208  1.00  0.00    -0.121 C  
HETATM    2  C   UNL     1     -10.834  15.943  65.096  1.00  0.00    -0.421 C  
HETATM    3  N   UNL     1     -10.300  17.085  65.422  1.00  0.00    -0.641 NA 
HETATM    4  N   UNL     1      -9.233  16.807  66.300  1.00  0.00    -0.279 N  
HETATM    5  O   UNL     1      -8.276  14.820  67.261  1.00  0.00    -0.188 OA 
HETATM    6  C   UNL     1      -9.050  15.461  66.577  1.00  0.00    -0.300 C  
HETATM    7  C   UNL     1     -10.107  14.825  65.744  1.00  0.00    -0.339 C  
ENDROOT
BRANCH   4   8
HETATM    8  C   UNL     1      -8.435  17.874  66.776  1.00  0.00    -0.249 A  
HETATM    9  C   UNL     1      -8.421  18.208  68.132  1.00  0.00    -0.282 A  
HETATM   10  C   UNL     1      -7.618  19.242  68.613  1.00  0.00    -0.385 A  
HETATM   11  C   UNL     1      -7.625  18.617  65.906  1.00  0.00    -0.184 A  
HETATM   12  C   UNL     1      -5.963  20.400  65.365  1.00  0.00    -0.251 C  
HETATM   13  C   UNL     1      -6.808  19.667  66.372  1.00  0.00    -0.219 A  
HETATM   14  C   UNL     1      -6.801  19.979  67.744  1.00  0.00    -0.301 A  
HETATM   15  C   UNL     1      -5.962  21.083  68.320  1.00  0.00    -0.374 C  
ENDBRANCH   4   8
BRANCH   7  16
HETATM   16  N   UNL     1     -10.372  13.570  65.563  1.00  0.00    -0.292 NA 
HETATM   17  H   UNL     1     -10.136  13.092  64.693  1.00  0.00     0.000 HD 
BRANCH  16  18
HETATM   18  N   UNL     1     -10.982  12.919  66.596  1.00  0.00    -0.271 NA 
HETATM   19  H   UNL     1     -11.704  13.392  67.138  1.00  0.00     0.000 HD 
BRANCH  18  20
HETATM   20  C   UNL     1     -10.617  11.593  66.919  1.00  0.00    -0.241 A  
HETATM   21  C   UNL     1     -10.606  11.128  68.249  1.00  0.00    -0.190 A  
HETATM   22  C   UNL     1     -10.334   9.789  68.594  1.00  0.00    -0.224 A  
HETATM   23  O   UNL     1     -10.881  12.036  69.252  1.00  0.00    -0.393 OA 
HETATM   24  C   UNL     1     -10.252  10.697  65.912  1.00  0.00    -0.314 A  
HETATM   25  C   UNL     1      -9.941   8.934  67.554  1.00  0.00    -0.258 A  
HETATM   26  H   UNL     1     -10.873  11.722  70.148  1.00  0.00     0.000 HD 
HETATM   27  C   UNL     1      -9.894   9.383  66.230  1.00  0.00    -0.351 A  
BRANCH  22  28
HETATM   28  C   UNL     1     -10.583   9.280  69.959  1.00  0.00    -0.256 A  
HETATM   29  C   UNL     1     -11.859   9.206  70.536  1.00  0.00    -0.137 A  
HETATM   30  C   UNL     1     -12.025   8.771  71.858  1.00  0.00    -0.435 A  
HETATM   31  C   UNL     1     -10.922   8.366  72.612  1.00  0.00    -0.318 A  
HETATM   32  C   UNL     1      -9.650   8.400  72.045  1.00  0.00    -0.344 A  
HETATM   33  C   UNL     1      -9.486   8.899  70.754  1.00  0.00    -0.280 A  
HETATM   34  C   UNL     1      -8.479   7.943  72.830  1.00  0.00    -0.168 C  
HETATM   35  O   UNL     1      -7.528   7.339  72.079  1.00  0.00    -0.079 OA 
HETATM   36  O   UNL     1      -8.400   8.068  74.034  1.00  0.00    -0.232 OA 
ENDBRANCH  22  28
ENDBRANCH  18  20
ENDBRANCH  16  18
ENDBRANCH   7  16
TORSDOF 5
ENDMDL
MODEL       69
REMARK 921   NORMALIZED FREE ENERGY PREDICTED BY IDOCK:   -7.00 KCAL/MOL
REMARK 922        TOTAL FREE ENERGY PREDICTED BY IDOCK:  -10.34 KCAL/MOL
REMARK 923 INTER-LIGAND FREE ENERGY PREDICTED BY IDOCK:   -8.98 KCAL/MOL
REMARK 924 INTRA-LIGAND FREE ENERGY PREDICTED BY IDOCK:   -1.37 KCAL/MOL
REMARK 927      BINDING AFFINITY PREDICTED BY RF-SCORE:    0.00 PKD
ROOT
HETATM    1  C   UNL     1     -12.176  13.030  63.137  1.00  0.00    -0.305 C  
HETATM    2  C   UNL     1     -11.476  13.510  64.354  1.00  0.00    -0.394 C  
HETATM    3  N   UNL     1     -11.568  14.682  64.912  1.00  0.00    -0.388 NA 
HETATM    4  N   UNL     1     -10.738  14.665  66.051  1.00  0.00    -0.302 N  
HETATM    5  O   UNL     1      -9.309  13.042  67.107  1.00  0.00    -0.214 OA 
HETATM    6  C   UNL     1     -10.083  13.462  66.269  1.00  0.00    -0.299 C  
HETATM    7  C   UNL     1     -10.534  12.647  65.107  1.00  0.00    -0.296 C  
ENDROOT
BRANCH   4   8
HETATM    8  C   UNL     1     -10.604  15.841  66.826  1.00  0.00    -0.309 A  
HETATM    9  C   UNL     1     -10.572  15.779  68.221  1.00  0.00    -0.271 A  
HETATM   10  C   UNL     1     -10.415  16.930  68.992  1.00  0.00    -0.341 A  
HETATM   11  C   UNL     1     -10.487  17.099  66.220  1.00  0.00    -0.260 A  
HETATM   12  C   UNL     1     -10.200  19.580  66.242  1.00  0.00    -0.582 C  
HETATM   13  C   UNL     1     -10.330  18.275  66.982  1.00  0.00    -0.408 A  
HETATM   14  C   UNL     1     -10.289  18.187  68.386  1.00  0.00    -0.371 A  
HETATM   15  C   UNL     1     -10.128  19.392  69.269  1.00  0.00    -0.243 C  
ENDBRANCH   4   8
BRANCH   7  16
HETATM   16  N   UNL     1     -10.195  11.446  64.761  1.00  0.00    -0.267 NA 
HETATM   17  H   UNL     1     -10.881  10.774  64.415  1.00  0.00     0.000 HD 
BRANCH  16  18
HETATM   18  N   UNL     1      -8.874  11.125  64.881  1.00  0.00    -0.374 NA 
HETATM   19  H   UNL     1      -8.162  11.774  64.548  1.00  0.00     0.000 HD 
BRANCH  18  20
HETATM   20  C   UNL     1      -8.488   9.897  65.463  1.00  0.00    -0.140 A  
HETATM   21  C   UNL     1      -9.071   9.424  66.655  1.00  0.00    -0.149 A  
HETATM   22  C   UNL     1      -8.772   8.164  67.211  1.00  0.00    -0.125 A  
HETATM   23  O   UNL     1      -9.981  10.241  67.296  1.00  0.00    -0.175 OA 
HETATM   24  C   UNL     1      -7.503   9.111  64.862  1.00  0.00    -0.105 A  
HETATM   25  C   UNL     1      -7.753   7.424  66.593  1.00  0.00    -0.101 A  
HETATM   26  H   UNL     1     -10.373   9.921  68.100  1.00  0.00     0.000 HD 
HETATM   27  C   UNL     1      -7.121   7.893  65.435  1.00  0.00    -0.060 A  
BRANCH  22  28
HETATM   28  C   UNL     1      -9.583   7.594  68.307  1.00  0.00    -0.160 A  
HETATM   29  C   UNL     1     -10.441   6.497  68.143  1.00  0.00    -0.264 A  
HETATM   30  C   UNL     1     -11.231   6.039  69.206  1.00  0.00    -0.367 A  
HETATM   31  C   UNL     1     -11.148   6.646  70.461  1.00  0.00    -0.359 A  
HETATM   32  C   UNL     1     -10.276   7.715  70.652  1.00  0.00    -0.199 A  
HETATM   33  C   UNL     1      -9.545   8.207  69.573  1.00  0.00    -0.168 A  
HETATM   34  C   UNL     1     -10.161   8.344  71.989  1.00  0.00    -0.294 C  
HETATM   35  O   UNL     1      -8.913   8.786  72.272  1.00  0.00    -0.360 OA 
HETATM   36  O   UNL     1     -11.090   8.421  72.766  1.00  0.00    -0.327 OA 
ENDBRANCH  22  28
ENDBRANCH  18  20
ENDBRANCH  16  18
ENDBRANCH   7  16
TORSDOF 5
ENDMDL
MODEL       70
REMARK 921   NORMALIZED FREE ENERGY PREDICTED BY IDOCK:   -6.99 KCAL/MOL
REMARK 922        TOTAL FREE ENERGY PREDICTED BY IDOCK:  -10.34 KCAL/MOL
REMARK 923 INTER-LIGAND FREE ENERGY PREDICTED BY IDOCK:   -8.92 KCAL/MOL
REMARK 924 INTRA-LIGAND FREE ENERGY PREDICTED BY IDOCK:   -1.42 KCAL/MOL
REMARK 927      BINDING AFFINITY PREDICTED BY RF-SCORE:    0.00 PKD
ROOT
HETATM    1  C   UNL     1     -12.541  12.344  64.421  1.00  0.00    -0.489 C  
HETATM    2  C   UNL     1     -11.818  13.068  65.495  1.00  0.00    -0.395 C  
HETATM    3  N   UNL     1     -11.500  14.330  65.527  1.00  0.00    -0.322 NA 
HETATM    4  N   UNL     1     -10.842  14.561  66.751  1.00  0.00    -0.299 N  
HETATM    5  O   UNL     1     -10.243  13.218  68.656  1.00  0.00    -0.232 OA 
HETATM    6  C   UNL     1     -10.721  13.441  67.561  1.00  0.00    -0.254 C  
HETATM    7  C   UNL     1     -11.348  12.382  66.723  1.00  0.00    -0.335 C  
ENDROOT
BRANCH   4   8
HETATM    8  C   UNL     1     -10.335  15.852  67.031  1.00  0.00    -0.297 A  
HETATM    9  C   UNL     1     -11.032  16.730  67.863  1.00  0.00    -0.260 A  
HETATM   10  C   UNL     1     -10.527  17.995  68.164  1.00  0.00    -0.373 A  
HETATM   11  C   UNL     1      -9.115  16.283  66.493  1.00  0.00    -0.302 A  
HETATM   12  C   UNL     1      -7.265  17.928  66.169  1.00  0.00    -0.339 C  
HETATM   13  C   UNL     1      -8.588  17.558  66.783  1.00  0.00    -0.276 A  
HETATM   14  C   UNL     1      -9.303  18.422  67.633  1.00  0.00    -0.274 A  
HETATM   15  C   UNL     1      -8.812  19.797  67.989  1.00  0.00    -0.360 C  
ENDBRANCH   4   8
BRANCH   7  16
HETATM   16  N   UNL     1     -11.468  11.113  66.951  1.00  0.00    -0.399 NA 
HETATM   17  H   UNL     1     -11.240  10.417  66.241  1.00  0.00     0.000 HD 
BRANCH  16  18
HETATM   18  N   UNL     1     -11.915  10.754  68.190  1.00  0.00    -0.801 NA 
HETATM   19  H   UNL     1     -12.786  11.145  68.548  1.00  0.00     0.000 HD 
BRANCH  18  20
HETATM   20  C   UNL     1     -11.177   9.845  68.979  1.00  0.00    -0.087 A  
HETATM   21  C   UNL     1     -10.683   8.635  68.454  1.00  0.00    -0.046 A  
HETATM   22  C   UNL     1      -9.869   7.751  69.190  1.00  0.00    -0.173 A  
HETATM   23  O   UNL     1     -11.015   8.314  67.153  1.00  0.00    -0.446 OA 
HETATM   24  C   UNL     1     -10.916  10.127  70.322  1.00  0.00    -0.380 A  
HETATM   25  C   UNL     1      -9.661   8.059  70.543  1.00  0.00    -0.179 A  
HETATM   26  H   UNL     1     -10.682   7.498  66.799  1.00  0.00     0.000 HD 
HETATM   27  C   UNL     1     -10.183   9.230  71.105  1.00  0.00    -0.387 A  
BRANCH  22  28
HETATM   28  C   UNL     1      -9.160   6.631  68.537  1.00  0.00    -0.128 A  
HETATM   29  C   UNL     1      -8.162   6.809  67.568  1.00  0.00    -0.122 A  
HETATM   30  C   UNL     1      -7.569   5.706  66.938  1.00  0.00    -0.096 A  
HETATM   31  C   UNL     1      -7.935   4.406  67.295  1.00  0.00    -0.100 A  
HETATM   32  C   UNL     1      -8.901   4.210  68.281  1.00  0.00    -0.133 A  
HETATM   33  C   UNL     1      -9.534   5.312  68.851  1.00  0.00    -0.173 A  
HETATM   34  C   UNL     1      -9.273   2.833  68.685  1.00  0.00    -0.178 C  
HETATM   35  O   UNL     1      -9.583   2.722  69.998  1.00  0.00    -0.131 OA 
HETATM   36  O   UNL     1      -9.264   1.894  67.918  1.00  0.00    -0.149 OA 
ENDBRANCH  22  28
ENDBRANCH  18  20
ENDBRANCH  16  18
ENDBRANCH   7  16
TORSDOF 5
ENDMDL
MODEL       71
REMARK 921   NORMALIZED FREE ENERGY PREDICTED BY IDOCK:   -6.98 KCAL/MOL
REMARK 922        TOTAL FREE ENERGY PREDICTED BY IDOCK:  -10.32 KCAL/MOL
REMARK 923 INTER-LIGAND FREE ENERGY PREDICTED BY IDOCK:   -8.78 KCAL/MOL
REMARK 924 INTRA-LIGAND FREE ENERGY PREDICTED BY IDOCK:   -1.55 KCAL/MOL
REMARK 927      BINDING AFFINITY PREDICTED BY RF-SCORE:    0.00 PKD
ROOT
HETATM    1  C   UNL     1      -9.543   4.322  64.462  1.00  0.00    -0.149 C  
HETATM    2  C   UNL     1      -9.489   5.070  65.743  1.00  0.00    -0.157 C  
HETATM    3  N   UNL     1      -9.953   4.697  66.900  1.00  0.00    -0.212 NA 
HETATM    4  N   UNL     1      -9.650   5.723  67.818  1.00  0.00    -0.112 N  
HETATM    5  O   UNL     1      -8.528   7.848  67.706  1.00  0.00    -0.124 OA 
HETATM    6  C   UNL     1      -8.965   6.799  67.274  1.00  0.00    -0.117 C  
HETATM    7  C   UNL     1      -8.861   6.410  65.842  1.00  0.00    -0.131 C  
ENDROOT
BRANCH   4   8
HETATM    8  C   UNL     1     -10.090   5.603  69.157  1.00  0.00    -0.208 A  
HETATM    9  C   UNL     1      -9.553   4.630  70.003  1.00  0.00    -0.259 A  
HETATM   10  C   UNL     1      -9.963   4.522  71.332  1.00  0.00    -0.259 A  
HETATM   11  C   UNL     1     -11.065   6.464  69.679  1.00  0.00    -0.465 A  
HETATM   12  C   UNL     1     -12.537   7.345  71.494  1.00  0.00    -0.401 C  
HETATM   13  C   UNL     1     -11.494   6.369  71.019  1.00  0.00    -0.394 A  
HETATM   14  C   UNL     1     -10.931   5.388  71.856  1.00  0.00    -0.219 A  
HETATM   15  C   UNL     1     -11.335   5.220  73.293  1.00  0.00    -0.318 C  
ENDBRANCH   4   8
BRANCH   7  16
HETATM   16  N   UNL     1      -8.362   7.067  64.842  1.00  0.00    -0.308 NA 
HETATM   17  H   UNL     1      -8.221   6.630  63.931  1.00  0.00     0.000 HD 
BRANCH  16  18
HETATM   18  N   UNL     1      -8.037   8.372  65.071  1.00  0.00    -0.139 NA 
HETATM   19  H   UNL     1      -7.284   8.601  65.719  1.00  0.00     0.000 HD 
BRANCH  18  20
HETATM   20  C   UNL     1      -8.737   9.408  64.414  1.00  0.00    -0.199 A  
HETATM   21  C   UNL     1      -9.479  10.371  65.126  1.00  0.00    -0.249 A  
HETATM   22  C   UNL     1     -10.113  11.466  64.506  1.00  0.00    -0.337 A  
HETATM   23  O   UNL     1      -9.577  10.226  66.495  1.00  0.00    -0.169 OA 
HETATM   24  C   UNL     1      -8.712   9.504  63.021  1.00  0.00    -0.233 A  
HETATM   25  C   UNL     1     -10.089  11.503  63.104  1.00  0.00    -0.395 A  
HETATM   26  H   UNL     1     -10.078  10.876  66.975  1.00  0.00     0.000 HD 
HETATM   27  C   UNL     1      -9.402  10.531  62.369  1.00  0.00    -0.281 A  
BRANCH  22  28
HETATM   28  C   UNL     1     -10.658  12.589  65.298  1.00  0.00    -0.319 A  
HETATM   29  C   UNL     1     -11.912  12.557  65.926  1.00  0.00    -0.472 A  
HETATM   30  C   UNL     1     -12.401  13.677  66.611  1.00  0.00    -0.381 A  
HETATM   31  C   UNL     1     -11.628  14.835  66.714  1.00  0.00    -0.333 A  
HETATM   32  C   UNL     1     -10.365  14.875  66.126  1.00  0.00    -0.312 A  
HETATM   33  C   UNL     1      -9.916  13.782  65.388  1.00  0.00    -0.254 A  
HETATM   34  C   UNL     1      -9.528  16.091  66.258  1.00  0.00    -0.315 C  
HETATM   35  O   UNL     1      -8.202  15.827  66.339  1.00  0.00    -0.272 OA 
HETATM   36  O   UNL     1      -9.992  17.210  66.322  1.00  0.00    -0.286 OA 
ENDBRANCH  22  28
ENDBRANCH  18  20
ENDBRANCH  16  18
ENDBRANCH   7  16
TORSDOF 5
ENDMDL
MODEL       72
REMARK 921   NORMALIZED FREE ENERGY PREDICTED BY IDOCK:   -6.95 KCAL/MOL
REMARK 922        TOTAL FREE ENERGY PREDICTED BY IDOCK:  -10.28 KCAL/MOL
REMARK 923 INTER-LIGAND FREE ENERGY PREDICTED BY IDOCK:   -8.99 KCAL/MOL
REMARK 924 INTRA-LIGAND FREE ENERGY PREDICTED BY IDOCK:   -1.30 KCAL/MOL
REMARK 927      BINDING AFFINITY PREDICTED BY RF-SCORE:    0.00 PKD
ROOT
HETATM    1  C   UNL     1      -9.900   3.375  71.773  1.00  0.00    -0.229 C  
HETATM    2  C   UNL     1      -9.909   4.176  70.525  1.00  0.00    -0.182 C  
HETATM    3  N   UNL     1      -9.507   3.809  69.342  1.00  0.00    -0.183 NA 
HETATM    4  N   UNL     1      -9.729   4.896  68.473  1.00  0.00    -0.152 N  
HETATM    5  O   UNL     1     -10.642   7.111  68.696  1.00  0.00    -0.201 OA 
HETATM    6  C   UNL     1     -10.298   6.009  69.075  1.00  0.00    -0.225 C  
HETATM    7  C   UNL     1     -10.409   5.572  70.494  1.00  0.00    -0.272 C  
ENDROOT
BRANCH   4   8
HETATM    8  C   UNL     1      -9.330   4.791  67.120  1.00  0.00    -0.135 A  
HETATM    9  C   UNL     1     -10.277   4.641  66.104  1.00  0.00    -0.308 A  
HETATM   10  C   UNL     1      -9.893   4.562  64.765  1.00  0.00    -0.063 A  
HETATM   11  C   UNL     1      -7.978   4.847  66.757  1.00  0.00    -0.103 A  
HETATM   12  C   UNL     1      -6.096   4.850  65.115  1.00  0.00    -0.030 C  
HETATM   13  C   UNL     1      -7.570   4.767  65.410  1.00  0.00    -0.081 A  
HETATM   14  C   UNL     1      -8.542   4.628  64.402  1.00  0.00    -0.142 A  
HETATM   15  C   UNL     1      -8.190   4.533  62.945  1.00  0.00    -0.090 C  
ENDBRANCH   4   8
BRANCH   7  16
HETATM   16  N   UNL     1     -10.823   6.231  71.530  1.00  0.00    -0.245 NA 
HETATM   17  H   UNL     1     -11.421   5.800  72.235  1.00  0.00     0.000 HD 
BRANCH  16  18
HETATM   18  N   UNL     1     -10.416   7.530  71.630  1.00  0.00    -0.200 NA 
HETATM   19  H   UNL     1      -9.422   7.746  71.706  1.00  0.00     0.000 HD 
BRANCH  18  20
HETATM   20  C   UNL     1     -11.364   8.577  71.630  1.00  0.00    -0.295 A  
HETATM   21  C   UNL     1     -11.133   9.790  70.952  1.00  0.00    -0.357 A  
HETATM   22  C   UNL     1     -12.094  10.815  70.859  1.00  0.00    -0.475 A  
HETATM   23  O   UNL     1      -9.903   9.967  70.350  1.00  0.00    -0.381 OA 
HETATM   24  C   UNL     1     -12.573   8.433  72.314  1.00  0.00    -0.401 A  
HETATM   25  C   UNL     1     -13.280  10.641  71.588  1.00  0.00    -0.495 A  
HETATM   26  H   UNL     1      -9.747  10.785  69.893  1.00  0.00     0.000 HD 
HETATM   27  C   UNL     1     -13.515   9.467  72.312  1.00  0.00    -0.539 A  
BRANCH  22  28
HETATM   28  C   UNL     1     -11.920  11.953  69.932  1.00  0.00    -0.398 A  
HETATM   29  C   UNL     1     -11.887  13.292  70.349  1.00  0.00    -0.270 A  
HETATM   30  C   UNL     1     -11.780  14.332  69.415  1.00  0.00    -0.363 A  
HETATM   31  C   UNL     1     -11.666  14.049  68.052  1.00  0.00    -0.394 A  
HETATM   32  C   UNL     1     -11.662  12.724  67.622  1.00  0.00    -0.422 A  
HETATM   33  C   UNL     1     -11.838  11.700  68.550  1.00  0.00    -0.357 A  
HETATM   34  C   UNL     1     -11.511  12.417  66.180  1.00  0.00    -0.379 C  
HETATM   35  O   UNL     1     -10.819  11.277  65.941  1.00  0.00    -0.264 OA 
HETATM   36  O   UNL     1     -11.936  13.137  65.302  1.00  0.00    -0.352 OA 
ENDBRANCH  22  28
ENDBRANCH  18  20
ENDBRANCH  16  18
ENDBRANCH   7  16
TORSDOF 5
ENDMDL
MODEL       73
REMARK 921   NORMALIZED FREE ENERGY PREDICTED BY IDOCK:   -6.91 KCAL/MOL
REMARK 922        TOTAL FREE ENERGY PREDICTED BY IDOCK:  -10.23 KCAL/MOL
REMARK 923 INTER-LIGAND FREE ENERGY PREDICTED BY IDOCK:   -9.26 KCAL/MOL
REMARK 924 INTRA-LIGAND FREE ENERGY PREDICTED BY IDOCK:   -0.96 KCAL/MOL
REMARK 927      BINDING AFFINITY PREDICTED BY RF-SCORE:    0.00 PKD
ROOT
HETATM    1  C   UNL     1     -13.345   9.744  72.057  1.00  0.00    -0.547 C  
HETATM    2  C   UNL     1     -12.378   8.766  71.500  1.00  0.00    -0.328 C  
HETATM    3  N   UNL     1     -12.182   7.537  71.883  1.00  0.00    -0.300 NA 
HETATM    4  N   UNL     1     -11.183   6.998  71.048  1.00  0.00    -0.263 N  
HETATM    5  O   UNL     1      -9.876   7.805  69.195  1.00  0.00    -0.167 OA 
HETATM    6  C   UNL     1     -10.704   7.872  70.083  1.00  0.00    -0.244 C  
HETATM    7  C   UNL     1     -11.473   9.111  70.377  1.00  0.00    -0.194 C  
ENDROOT
BRANCH   4   8
HETATM    8  C   UNL     1     -10.730   5.677  71.277  1.00  0.00    -0.244 A  
HETATM    9  C   UNL     1     -10.197   4.913  70.237  1.00  0.00    -0.299 A  
HETATM   10  C   UNL     1      -9.725   3.619  70.460  1.00  0.00    -0.210 A  
HETATM   11  C   UNL     1     -10.790   5.103  72.554  1.00  0.00    -0.282 A  
HETATM   12  C   UNL     1     -10.414   3.268  74.206  1.00  0.00    -0.253 C  
HETATM   13  C   UNL     1     -10.320   3.796  72.799  1.00  0.00    -0.238 A  
HETATM   14  C   UNL     1      -9.776   3.048  71.739  1.00  0.00    -0.231 A  
HETATM   15  C   UNL     1      -9.257   1.650  71.916  1.00  0.00    -0.139 C  
ENDBRANCH   4   8
BRANCH   7  16
HETATM   16  N   UNL     1     -11.398  10.280  69.823  1.00  0.00    -0.261 NA 
HETATM   17  H   UNL     1     -12.207  10.899  69.766  1.00  0.00     0.000 HD 
BRANCH  16  18
HETATM   18  N   UNL     1     -10.182  10.641  69.319  1.00  0.00    -0.245 NA 
HETATM   19  H   UNL     1      -9.332  10.412  69.833  1.00  0.00     0.000 HD 
BRANCH  18  20
HETATM   20  C   UNL     1     -10.095  11.329  68.089  1.00  0.00    -0.182 A  
HETATM   21  C   UNL     1      -9.833  12.712  68.028  1.00  0.00    -0.218 A  
HETATM   22  C   UNL     1      -9.652  13.408  66.817  1.00  0.00    -0.262 A  
HETATM   23  O   UNL     1      -9.748  13.405  69.219  1.00  0.00    -0.270 OA 
HETATM   24  C   UNL     1     -10.268  10.645  66.884  1.00  0.00    -0.272 A  
HETATM   25  C   UNL     1      -9.869  12.688  65.632  1.00  0.00    -0.213 A  
HETATM   26  H   UNL     1      -9.573  14.338  69.177  1.00  0.00     0.000 HD 
HETATM   27  C   UNL     1     -10.179  11.324  65.665  1.00  0.00    -0.304 A  
BRANCH  22  28
HETATM   28  C   UNL     1      -9.127  14.790  66.794  1.00  0.00    -0.291 A  
HETATM   29  C   UNL     1      -7.832  15.132  67.209  1.00  0.00    -0.241 A  
HETATM   30  C   UNL     1      -7.413  16.470  67.222  1.00  0.00    -0.195 A  
HETATM   31  C   UNL     1      -8.267  17.483  66.783  1.00  0.00    -0.273 A  
HETATM   32  C   UNL     1      -9.546  17.158  66.334  1.00  0.00    -0.296 A  
HETATM   33  C   UNL     1      -9.978  15.835  66.390  1.00  0.00    -0.294 A  
HETATM   34  C   UNL     1     -10.447  18.226  65.839  1.00  0.00    -0.307 C  
HETATM   35  O   UNL     1     -11.254  17.825  64.828  1.00  0.00    -0.767 OA 
HETATM   36  O   UNL     1     -10.434  19.357  66.275  1.00  0.00    -0.433 OA 
ENDBRANCH  22  28
ENDBRANCH  18  20
ENDBRANCH  16  18
ENDBRANCH   7  16
TORSDOF 5
ENDMDL
MODEL       74
REMARK 921   NORMALIZED FREE ENERGY PREDICTED BY IDOCK:   -6.89 KCAL/MOL
REMARK 922        TOTAL FREE ENERGY PREDICTED BY IDOCK:  -10.20 KCAL/MOL
REMARK 923 INTER-LIGAND FREE ENERGY PREDICTED BY IDOCK:   -8.89 KCAL/MOL
REMARK 924 INTRA-LIGAND FREE ENERGY PREDICTED BY IDOCK:   -1.32 KCAL/MOL
REMARK 927      BINDING AFFINITY PREDICTED BY RF-SCORE:    0.00 PKD
ROOT
HETATM    1  C   UNL     1      -8.524   9.254  70.652  1.00  0.00    -0.258 C  
HETATM    2  C   UNL     1      -9.685   9.919  70.010  1.00  0.00    -0.227 C  
HETATM    3  N   UNL     1      -9.678  10.688  68.960  1.00  0.00    -0.202 NA 
HETATM    4  N   UNL     1     -11.014  11.064  68.714  1.00  0.00    -0.203 N  
HETATM    5  O   UNL     1     -13.141  10.606  69.739  1.00  0.00    -0.081 OA 
HETATM    6  C   UNL     1     -11.935  10.536  69.605  1.00  0.00    -0.208 C  
HETATM    7  C   UNL     1     -11.064   9.768  70.535  1.00  0.00    -0.321 C  
ENDROOT
BRANCH   4   8
HETATM    8  C   UNL     1     -11.296  11.953  67.649  1.00  0.00    -0.304 A  
HETATM    9  C   UNL     1     -11.775  13.241  67.899  1.00  0.00    -0.395 A  
HETATM   10  C   UNL     1     -12.032  14.131  66.857  1.00  0.00    -0.479 A  
HETATM   11  C   UNL     1     -11.090  11.574  66.316  1.00  0.00    -0.321 A  
HETATM   12  C   UNL     1     -11.082  11.967  63.850  1.00  0.00    -0.474 C  
HETATM   13  C   UNL     1     -11.345  12.459  65.248  1.00  0.00    -0.374 A  
HETATM   14  C   UNL     1     -11.817  13.755  65.524  1.00  0.00    -0.378 A  
HETATM   15  C   UNL     1     -12.116  14.756  64.444  1.00  0.00    -0.457 C  
ENDBRANCH   4   8
BRANCH   7  16
HETATM   16  N   UNL     1     -11.377   9.107  71.605  1.00  0.00    -0.355 NA 
HETATM   17  H   UNL     1     -11.171   9.468  72.537  1.00  0.00     0.000 HD 
BRANCH  16  18
HETATM   18  N   UNL     1     -11.998   7.906  71.421  1.00  0.00    -0.297 NA 
HETATM   19  H   UNL     1     -13.005   7.873  71.266  1.00  0.00     0.000 HD 
BRANCH  18  20
HETATM   20  C   UNL     1     -11.252   6.707  71.444  1.00  0.00    -0.274 A  
HETATM   21  C   UNL     1     -10.922   6.013  70.263  1.00  0.00    -0.342 A  
HETATM   22  C   UNL     1     -10.104   4.866  70.247  1.00  0.00    -0.322 A  
HETATM   23  O   UNL     1     -11.426   6.494  69.071  1.00  0.00    -0.587 OA 
HETATM   24  C   UNL     1     -10.816   6.170  72.658  1.00  0.00    -0.279 A  
HETATM   25  C   UNL     1      -9.719   4.344  71.491  1.00  0.00    -0.244 A  
HETATM   26  H   UNL     1     -11.203   6.026  68.275  1.00  0.00     0.000 HD 
HETATM   27  C   UNL     1     -10.075   4.985  72.683  1.00  0.00    -0.227 A  
BRANCH  22  28
HETATM   28  C   UNL     1      -9.569   4.319  68.982  1.00  0.00    -0.240 A  
HETATM   29  C   UNL     1      -9.533   2.949  68.686  1.00  0.00    -0.192 A  
HETATM   30  C   UNL     1      -8.956   2.487  67.495  1.00  0.00    -0.191 A  
HETATM   31  C   UNL     1      -8.441   3.390  66.562  1.00  0.00    -0.109 A  
HETATM   32  C   UNL     1      -8.499   4.757  66.824  1.00  0.00    -0.105 A  
HETATM   33  C   UNL     1      -9.011   5.203  68.040  1.00  0.00    -0.117 A  
HETATM   34  C   UNL     1      -7.981   5.721  65.825  1.00  0.00    -0.110 C  
HETATM   35  O   UNL     1      -8.679   6.881  65.783  1.00  0.00    -0.152 OA 
HETATM   36  O   UNL     1      -7.045   5.477  65.093  1.00  0.00    -0.062 OA 
ENDBRANCH  22  28
ENDBRANCH  18  20
ENDBRANCH  16  18
ENDBRANCH   7  16
TORSDOF 5
ENDMDL
MODEL       75
REMARK 921   NORMALIZED FREE ENERGY PREDICTED BY IDOCK:   -6.88 KCAL/MOL
REMARK 922        TOTAL FREE ENERGY PREDICTED BY IDOCK:  -10.19 KCAL/MOL
REMARK 923 INTER-LIGAND FREE ENERGY PREDICTED BY IDOCK:   -9.32 KCAL/MOL
REMARK 924 INTRA-LIGAND FREE ENERGY PREDICTED BY IDOCK:   -0.86 KCAL/MOL
REMARK 927      BINDING AFFINITY PREDICTED BY RF-SCORE:    0.00 PKD
ROOT
HETATM    1  C   UNL     1      -8.950   8.404  72.335  1.00  0.00    -0.309 C  
HETATM    2  C   UNL     1     -10.046   9.132  71.649  1.00  0.00    -0.276 C  
HETATM    3  N   UNL     1      -9.939  10.020  70.704  1.00  0.00    -0.018 NA 
HETATM    4  N   UNL     1     -11.246  10.414  70.356  1.00  0.00    -0.314 N  
HETATM    5  O   UNL     1     -13.465   9.822  71.075  1.00  0.00    -0.347 OA 
HETATM    6  C   UNL     1     -12.250   9.776  71.070  1.00  0.00    -0.347 C  
HETATM    7  C   UNL     1     -11.471   8.910  71.995  1.00  0.00    -0.361 C  
ENDROOT
BRANCH   4   8
HETATM    8  C   UNL     1     -11.427  11.421  69.378  1.00  0.00    -0.310 A  
HETATM    9  C   UNL     1     -11.445  11.103  68.018  1.00  0.00    -0.366 A  
HETATM   10  C   UNL     1     -11.648  12.086  67.050  1.00  0.00    -0.387 A  
HETATM   11  C   UNL     1     -11.607  12.762  69.744  1.00  0.00    -0.288 A  
HETATM   12  C   UNL     1     -12.008  15.180  69.269  1.00  0.00    -0.322 C  
HETATM   13  C   UNL     1     -11.811  13.770  68.780  1.00  0.00    -0.398 A  
HETATM   14  C   UNL     1     -11.837  13.425  67.416  1.00  0.00    -0.418 A  
HETATM   15  C   UNL     1     -12.046  14.439  66.328  1.00  0.00    -0.384 C  
ENDBRANCH   4   8
BRANCH   7  16
HETATM   16  N   UNL     1     -11.888   8.124  72.938  1.00  0.00    -0.551 NA 
HETATM   17  H   UNL     1     -11.890   8.416  73.915  1.00  0.00     0.000 HD 
BRANCH  16  18
HETATM   18  N   UNL     1     -12.323   6.888  72.556  1.00  0.00    -0.493 NA 
HETATM   19  H   UNL     1     -13.315   6.661  72.610  1.00  0.00     0.000 HD 
BRANCH  18  20
HETATM   20  C   UNL     1     -11.406   5.923  72.085  1.00  0.00    -0.288 A  
HETATM   21  C   UNL     1     -11.133   5.762  70.713  1.00  0.00    -0.201 A  
HETATM   22  C   UNL     1     -10.159   4.871  70.220  1.00  0.00    -0.322 A  
HETATM   23  O   UNL     1     -11.858   6.524  69.818  1.00  0.00    -0.628 OA 
HETATM   24  C   UNL     1     -10.736   5.090  72.984  1.00  0.00    -0.307 A  
HETATM   25  C   UNL     1      -9.537   4.032  71.156  1.00  0.00    -0.242 A  
HETATM   26  H   UNL     1     -11.674   6.416  68.893  1.00  0.00     0.000 HD 
HETATM   27  C   UNL     1      -9.825   4.135  72.522  1.00  0.00    -0.213 A  
BRANCH  22  28
HETATM   28  C   UNL     1      -9.719   4.914  68.810  1.00  0.00    -0.232 A  
HETATM   29  C   UNL     1      -9.766   6.072  68.020  1.00  0.00    -0.126 A  
HETATM   30  C   UNL     1      -9.392   6.035  66.670  1.00  0.00    -0.156 A  
HETATM   31  C   UNL     1      -8.927   4.849  66.097  1.00  0.00    -0.125 A  
HETATM   32  C   UNL     1      -8.841   3.697  66.875  1.00  0.00    -0.140 A  
HETATM   33  C   UNL     1      -9.280   3.726  68.197  1.00  0.00    -0.214 A  
HETATM   34  C   UNL     1      -8.320   2.443  66.281  1.00  0.00    -0.094 C  
HETATM   35  O   UNL     1      -7.617   1.683  67.155  1.00  0.00    -0.058 OA 
HETATM   36  O   UNL     1      -8.480   2.146  65.116  1.00  0.00    -0.089 OA 
ENDBRANCH  22  28
ENDBRANCH  18  20
ENDBRANCH  16  18
ENDBRANCH   7  16
TORSDOF 5
ENDMDL
MODEL       76
REMARK 921   NORMALIZED FREE ENERGY PREDICTED BY IDOCK:   -6.88 KCAL/MOL
REMARK 922        TOTAL FREE ENERGY PREDICTED BY IDOCK:  -10.19 KCAL/MOL
REMARK 923 INTER-LIGAND FREE ENERGY PREDICTED BY IDOCK:   -8.50 KCAL/MOL
REMARK 924 INTRA-LIGAND FREE ENERGY PREDICTED BY IDOCK:   -1.69 KCAL/MOL
REMARK 927      BINDING AFFINITY PREDICTED BY RF-SCORE:    0.00 PKD
ROOT
HETATM    1  C   UNL     1     -11.651  12.368  66.170  1.00  0.00    -0.452 C  
HETATM    2  C   UNL     1     -10.948  11.307  66.930  1.00  0.00    -0.290 C  
HETATM    3  N   UNL     1     -11.451  10.503  67.822  1.00  0.00    -0.438 NA 
HETATM    4  N   UNL     1     -10.409   9.657  68.252  1.00  0.00    -0.195 N  
HETATM    5  O   UNL     1      -8.079   9.396  67.713  1.00  0.00    -0.106 OA 
HETATM    6  C   UNL     1      -9.188   9.887  67.636  1.00  0.00    -0.133 C  
HETATM    7  C   UNL     1      -9.502  11.035  66.743  1.00  0.00    -0.182 C  
ENDROOT
BRANCH   4   8
HETATM    8  C   UNL     1     -10.666   8.708  69.270  1.00  0.00    -0.136 A  
HETATM    9  C   UNL     1     -11.249   9.094  70.478  1.00  0.00    -0.309 A  
HETATM   10  C   UNL     1     -11.529   8.160  71.476  1.00  0.00    -0.310 A  
HETATM   11  C   UNL     1     -10.355   7.353  69.091  1.00  0.00    -0.208 A  
HETATM   12  C   UNL     1     -10.271   4.960  69.802  1.00  0.00    -0.284 C  
HETATM   13  C   UNL     1     -10.628   6.394  70.089  1.00  0.00    -0.294 A  
HETATM   14  C   UNL     1     -11.227   6.804  71.294  1.00  0.00    -0.319 A  
HETATM   15  C   UNL     1     -11.547   5.847  72.407  1.00  0.00    -0.341 C  
ENDBRANCH   4   8
BRANCH   7  16
HETATM   16  N   UNL     1      -8.719  11.712  65.962  1.00  0.00    -0.371 NA 
HETATM   17  H   UNL     1      -9.031  12.047  65.051  1.00  0.00     0.000 HD 
BRANCH  16  18
HETATM   18  N   UNL     1      -7.457  11.953  66.423  1.00  0.00    -0.365 NA 
HETATM   19  H   UNL     1      -6.665  11.461  66.010  1.00  0.00     0.000 HD 
BRANCH  18  20
HETATM   20  C   UNL     1      -7.243  12.879  67.467  1.00  0.00    -0.148 A  
HETATM   21  C   UNL     1      -7.844  14.153  67.466  1.00  0.00    -0.192 A  
HETATM   22  C   UNL     1      -7.721  15.063  68.535  1.00  0.00    -0.121 A  
HETATM   23  O   UNL     1      -8.589  14.513  66.361  1.00  0.00    -0.445 OA 
HETATM   24  C   UNL     1      -6.417  12.549  68.544  1.00  0.00    -0.073 A  
HETATM   25  C   UNL     1      -6.856  14.702  69.578  1.00  0.00    -0.165 A  
HETATM   26  H   UNL     1      -8.993  15.373  66.360  1.00  0.00     0.000 HD 
HETATM   27  C   UNL     1      -6.206  13.463  69.581  1.00  0.00    -0.120 A  
BRANCH  22  28
HETATM   28  C   UNL     1      -8.566  16.273  68.617  1.00  0.00    -0.222 A  
HETATM   29  C   UNL     1      -9.885  16.264  69.094  1.00  0.00    -0.258 A  
HETATM   30  C   UNL     1     -10.656  17.434  69.090  1.00  0.00    -0.161 A  
HETATM   31  C   UNL     1     -10.110  18.640  68.645  1.00  0.00    -0.412 A  
HETATM   32  C   UNL     1      -8.791  18.675  68.200  1.00  0.00    -0.335 A  
HETATM   33  C   UNL     1      -8.053  17.495  68.143  1.00  0.00    -0.249 A  
HETATM   34  C   UNL     1      -8.196  19.958  67.756  1.00  0.00    -0.301 C  
HETATM   35  O   UNL     1      -6.878  20.070  68.044  1.00  0.00    -0.261 OA 
HETATM   36  O   UNL     1      -8.840  20.834  67.218  1.00  0.00    -0.304 OA 
ENDBRANCH  22  28
ENDBRANCH  18  20
ENDBRANCH  16  18
ENDBRANCH   7  16
TORSDOF 5
ENDMDL
MODEL       77
REMARK 921   NORMALIZED FREE ENERGY PREDICTED BY IDOCK:   -6.85 KCAL/MOL
REMARK 922        TOTAL FREE ENERGY PREDICTED BY IDOCK:  -10.15 KCAL/MOL
REMARK 923 INTER-LIGAND FREE ENERGY PREDICTED BY IDOCK:   -9.34 KCAL/MOL
REMARK 924 INTRA-LIGAND FREE ENERGY PREDICTED BY IDOCK:   -0.81 KCAL/MOL
REMARK 927      BINDING AFFINITY PREDICTED BY RF-SCORE:    0.00 PKD
ROOT
HETATM    1  C   UNL     1     -13.909   9.207  72.545  1.00  0.00    -0.485 C  
HETATM    2  C   UNL     1     -12.698   8.591  71.950  1.00  0.00    -0.360 C  
HETATM    3  N   UNL     1     -12.093   7.502  72.329  1.00  0.00    -0.265 NA 
HETATM    4  N   UNL     1     -11.007   7.305  71.453  1.00  0.00    -0.231 N  
HETATM    5  O   UNL     1     -10.114   8.462  69.542  1.00  0.00    -0.190 OA 
HETATM    6  C   UNL     1     -10.881   8.270  70.465  1.00  0.00    -0.232 C  
HETATM    7  C   UNL     1     -12.003   9.193  70.787  1.00  0.00    -0.191 C  
ENDROOT
BRANCH   4   8
HETATM    8  C   UNL     1     -10.136   6.211  71.668  1.00  0.00    -0.187 A  
HETATM    9  C   UNL     1      -9.316   6.159  72.797  1.00  0.00    -0.148 A  
HETATM   10  C   UNL     1      -8.474   5.071  73.029  1.00  0.00    -0.111 A  
HETATM   11  C   UNL     1     -10.081   5.141  70.764  1.00  0.00    -0.303 A  
HETATM   12  C   UNL     1      -9.253   2.927  69.959  1.00  0.00    -0.211 C  
HETATM   13  C   UNL     1      -9.235   4.034  70.979  1.00  0.00    -0.203 A  
HETATM   14  C   UNL     1      -8.425   3.998  72.129  1.00  0.00    -0.109 A  
HETATM   15  C   UNL     1      -7.495   2.858  72.430  1.00  0.00    -0.052 C  
ENDBRANCH   4   8
BRANCH   7  16
HETATM   16  N   UNL     1     -12.339  10.312  70.225  1.00  0.00    -0.465 NA 
HETATM   17  H   UNL     1     -13.284  10.474  69.877  1.00  0.00     0.000 HD 
BRANCH  16  18
HETATM   18  N   UNL     1     -11.363  11.261  70.124  1.00  0.00    -0.480 NA 
HETATM   19  H   UNL     1     -10.390  10.979  70.014  1.00  0.00     0.000 HD 
BRANCH  18  20
HETATM   20  C   UNL     1     -11.695  12.633  70.171  1.00  0.00    -0.168 A  
HETATM   21  C   UNL     1     -11.079  13.577  69.326  1.00  0.00    -0.179 A  
HETATM   22  C   UNL     1     -11.452  14.935  69.287  1.00  0.00    -0.324 A  
HETATM   23  O   UNL     1     -10.066  13.136  68.498  1.00  0.00    -0.249 OA 
HETATM   24  C   UNL     1     -12.658  13.095  71.071  1.00  0.00    -0.397 A  
HETATM   25  C   UNL     1     -12.399  15.360  70.231  1.00  0.00    -0.425 A  
HETATM   26  H   UNL     1      -9.651  13.773  67.928  1.00  0.00     0.000 HD 
HETATM   27  C   UNL     1     -12.991  14.453  71.117  1.00  0.00    -0.419 A  
BRANCH  22  28
HETATM   28  C   UNL     1     -10.972  15.835  68.218  1.00  0.00    -0.325 A  
HETATM   29  C   UNL     1     -10.821  15.437  66.881  1.00  0.00    -0.313 A  
HETATM   30  C   UNL     1     -10.303  16.320  65.924  1.00  0.00    -0.381 A  
HETATM   31  C   UNL     1      -9.963  17.627  66.278  1.00  0.00    -0.324 A  
HETATM   32  C   UNL     1     -10.139  18.051  67.593  1.00  0.00    -0.352 A  
HETATM   33  C   UNL     1     -10.590  17.147  68.553  1.00  0.00    -0.361 A  
HETATM   34  C   UNL     1      -9.808  19.447  67.969  1.00  0.00    -0.369 C  
HETATM   35  O   UNL     1     -10.622  19.955  68.924  1.00  0.00    -0.202 OA 
HETATM   36  O   UNL     1      -8.918  20.080  67.443  1.00  0.00    -0.323 OA 
ENDBRANCH  22  28
ENDBRANCH  18  20
ENDBRANCH  16  18
ENDBRANCH   7  16
TORSDOF 5
ENDMDL
MODEL       78
REMARK 921   NORMALIZED FREE ENERGY PREDICTED BY IDOCK:   -6.83 KCAL/MOL
REMARK 922        TOTAL FREE ENERGY PREDICTED BY IDOCK:  -10.13 KCAL/MOL
REMARK 923 INTER-LIGAND FREE ENERGY PREDICTED BY IDOCK:   -8.70 KCAL/MOL
REMARK 924 INTRA-LIGAND FREE ENERGY PREDICTED BY IDOCK:   -1.43 KCAL/MOL
REMARK 927      BINDING AFFINITY PREDICTED BY RF-SCORE:    0.00 PKD
ROOT
HETATM    1  C   UNL     1      -5.455   9.397  71.013  1.00  0.00    -0.051 C  
HETATM    2  C   UNL     1      -6.864   9.561  70.580  1.00  0.00    -0.112 C  
HETATM    3  N   UNL     1      -7.938   9.175  71.207  1.00  0.00    -0.325 NA 
HETATM    4  N   UNL     1      -9.040   9.566  70.420  1.00  0.00    -0.253 N  
HETATM    5  O   UNL     1      -9.331  10.721  68.330  1.00  0.00    -0.153 OA 
HETATM    6  C   UNL     1      -8.706  10.232  69.250  1.00  0.00    -0.174 C  
HETATM    7  C   UNL     1      -7.219  10.222  69.301  1.00  0.00    -0.093 C  
ENDROOT
BRANCH   4   8
HETATM    8  C   UNL     1     -10.346   9.223  70.843  1.00  0.00    -0.296 A  
HETATM    9  C   UNL     1     -11.377  10.165  70.820  1.00  0.00    -0.436 A  
HETATM   10  C   UNL     1     -12.672   9.828  71.210  1.00  0.00    -0.464 A  
HETATM   11  C   UNL     1     -10.648   7.927  71.283  1.00  0.00    -0.241 A  
HETATM   12  C   UNL     1     -12.183   6.148  72.129  1.00  0.00    -0.202 C  
HETATM   13  C   UNL     1     -11.951   7.567  71.684  1.00  0.00    -0.333 A  
HETATM   14  C   UNL     1     -12.976   8.530  71.641  1.00  0.00    -0.369 A  
HETATM   15  C   UNL     1     -14.389   8.229  72.054  1.00  0.00    -0.541 C  
ENDBRANCH   4   8
BRANCH   7  16
HETATM   16  N   UNL     1      -6.361  10.660  68.434  1.00  0.00    -0.054 NA 
HETATM   17  H   UNL     1      -6.173  10.159  67.566  1.00  0.00     0.000 HD 
BRANCH  16  18
HETATM   18  N   UNL     1      -5.722  11.826  68.743  1.00  0.00    -0.049 NA 
HETATM   19  H   UNL     1      -4.725  11.818  68.954  1.00  0.00     0.000 HD 
BRANCH  18  20
HETATM   20  C   UNL     1      -6.435  13.045  68.771  1.00  0.00    -0.085 A  
HETATM   21  C   UNL     1      -7.305  13.421  67.729  1.00  0.00    -0.157 A  
HETATM   22  C   UNL     1      -8.097  14.586  67.770  1.00  0.00    -0.166 A  
HETATM   23  O   UNL     1      -7.380  12.599  66.622  1.00  0.00    -0.329 OA 
HETATM   24  C   UNL     1      -6.293  13.921  69.849  1.00  0.00    -0.115 A  
HETATM   25  C   UNL     1      -7.896  15.451  68.855  1.00  0.00    -0.177 A  
HETATM   26  H   UNL     1      -7.966  12.853  65.920  1.00  0.00     0.000 HD 
HETATM   27  C   UNL     1      -7.001  15.126  69.881  1.00  0.00    -0.140 A  
BRANCH  22  28
HETATM   28  C   UNL     1      -9.180  14.816  66.791  1.00  0.00    -0.282 A  
HETATM   29  C   UNL     1      -9.358  16.026  66.105  1.00  0.00    -0.377 A  
HETATM   30  C   UNL     1     -10.441  16.205  65.234  1.00  0.00    -0.356 A  
HETATM   31  C   UNL     1     -11.342  15.163  65.003  1.00  0.00    -0.381 A  
HETATM   32  C   UNL     1     -11.162  13.942  65.649  1.00  0.00    -0.306 A  
HETATM   33  C   UNL     1     -10.123  13.796  66.566  1.00  0.00    -0.286 A  
HETATM   34  C   UNL     1     -12.098  12.824  65.387  1.00  0.00    -0.462 C  
HETATM   35  O   UNL     1     -11.506  11.606  65.421  1.00  0.00    -0.231 OA 
HETATM   36  O   UNL     1     -13.272  12.989  65.131  1.00  0.00    -0.703 OA 
ENDBRANCH  22  28
ENDBRANCH  18  20
ENDBRANCH  16  18
ENDBRANCH   7  16
TORSDOF 5
ENDMDL
MODEL       79
REMARK 921   NORMALIZED FREE ENERGY PREDICTED BY IDOCK:   -6.82 KCAL/MOL
REMARK 922        TOTAL FREE ENERGY PREDICTED BY IDOCK:  -10.12 KCAL/MOL
REMARK 923 INTER-LIGAND FREE ENERGY PREDICTED BY IDOCK:   -9.05 KCAL/MOL
REMARK 924 INTRA-LIGAND FREE ENERGY PREDICTED BY IDOCK:   -1.07 KCAL/MOL
REMARK 927      BINDING AFFINITY PREDICTED BY RF-SCORE:    0.00 PKD
ROOT
HETATM    1  C   UNL     1     -12.823  15.488  70.255  1.00  0.00    -0.239 C  
HETATM    2  C   UNL     1     -11.711  15.699  69.296  1.00  0.00    -0.375 C  
HETATM    3  N   UNL     1     -10.997  16.776  69.132  1.00  0.00    -0.274 NA 
HETATM    4  N   UNL     1     -10.050  16.496  68.126  1.00  0.00    -0.247 N  
HETATM    5  O   UNL     1      -9.507  14.588  66.766  1.00  0.00    -0.245 OA 
HETATM    6  C   UNL     1     -10.120  15.210  67.611  1.00  0.00    -0.231 C  
HETATM    7  C   UNL     1     -11.269  14.636  68.361  1.00  0.00    -0.274 C  
ENDROOT
BRANCH   4   8
HETATM    8  C   UNL     1      -9.168  17.519  67.705  1.00  0.00    -0.243 A  
HETATM    9  C   UNL     1      -9.274  18.073  66.427  1.00  0.00    -0.256 A  
HETATM   10  C   UNL     1      -8.425  19.099  66.013  1.00  0.00    -0.129 A  
HETATM   11  C   UNL     1      -8.174  18.015  68.559  1.00  0.00    -0.311 A  
HETATM   12  C   UNL     1      -6.275  19.527  69.147  1.00  0.00    -0.318 C  
HETATM   13  C   UNL     1      -7.304  19.051  68.157  1.00  0.00    -0.298 A  
HETATM   14  C   UNL     1      -7.436  19.602  66.870  1.00  0.00    -0.258 A  
HETATM   15  C   UNL     1      -6.549  20.704  66.365  1.00  0.00    -0.307 C  
ENDBRANCH   4   8
BRANCH   7  16
HETATM   16  N   UNL     1     -11.827  13.472  68.252  1.00  0.00    -0.356 NA 
HETATM   17  H   UNL     1     -12.737  13.353  67.806  1.00  0.00     0.000 HD 
BRANCH  16  18
HETATM   18  N   UNL     1     -11.135  12.412  68.763  1.00  0.00    -0.249 NA 
HETATM   19  H   UNL     1     -10.197  12.206  68.420  1.00  0.00     0.000 HD 
BRANCH  18  20
HETATM   20  C   UNL     1     -11.711  11.598  69.762  1.00  0.00    -0.352 A  
HETATM   21  C   UNL     1     -11.341  10.249  69.929  1.00  0.00    -0.290 A  
HETATM   22  C   UNL     1     -11.831   9.439  70.972  1.00  0.00    -0.396 A  
HETATM   23  O   UNL     1     -10.450   9.709  69.023  1.00  0.00    -0.200 OA 
HETATM   24  C   UNL     1     -12.679  12.119  70.624  1.00  0.00    -0.150 A  
HETATM   25  C   UNL     1     -12.825   9.993  71.792  1.00  0.00    -0.546 A  
HETATM   26  H   UNL     1     -10.200   8.800  69.135  1.00  0.00     0.000 HD 
HETATM   27  C   UNL     1     -13.249  11.316  71.617  1.00  0.00    -0.431 A  
BRANCH  22  28
HETATM   28  C   UNL     1     -11.232   8.121  71.270  1.00  0.00    -0.297 A  
HETATM   29  C   UNL     1     -11.577   6.943  70.592  1.00  0.00    -0.402 A  
HETATM   30  C   UNL     1     -11.018   5.712  70.963  1.00  0.00    -0.247 A  
HETATM   31  C   UNL     1     -10.076   5.644  71.991  1.00  0.00    -0.230 A  
HETATM   32  C   UNL     1      -9.695   6.809  72.654  1.00  0.00    -0.164 A  
HETATM   33  C   UNL     1     -10.307   8.017  72.326  1.00  0.00    -0.336 A  
HETATM   34  C   UNL     1      -8.674   6.748  73.726  1.00  0.00    -0.138 C  
HETATM   35  O   UNL     1      -7.882   7.845  73.780  1.00  0.00    -0.142 OA 
HETATM   36  O   UNL     1      -8.541   5.790  74.459  1.00  0.00    -0.117 OA 
ENDBRANCH  22  28
ENDBRANCH  18  20
ENDBRANCH  16  18
ENDBRANCH   7  16
TORSDOF 5
ENDMDL
MODEL       80
REMARK 921   NORMALIZED FREE ENERGY PREDICTED BY IDOCK:   -6.81 KCAL/MOL
REMARK 922        TOTAL FREE ENERGY PREDICTED BY IDOCK:  -10.10 KCAL/MOL
REMARK 923 INTER-LIGAND FREE ENERGY PREDICTED BY IDOCK:   -8.95 KCAL/MOL
REMARK 924 INTRA-LIGAND FREE ENERGY PREDICTED BY IDOCK:   -1.15 KCAL/MOL
REMARK 927      BINDING AFFINITY PREDICTED BY RF-SCORE:    0.00 PKD
ROOT
HETATM    1  C   UNL     1      -8.085  11.570  68.217  1.00  0.00    -0.148 C  
HETATM    2  C   UNL     1      -8.986  12.743  68.100  1.00  0.00    -0.199 C  
HETATM    3  N   UNL     1      -8.685  13.935  67.673  1.00  0.00    -0.175 NA 
HETATM    4  N   UNL     1      -9.865  14.703  67.723  1.00  0.00    -0.214 N  
HETATM    5  O   UNL     1     -12.148  14.300  68.369  1.00  0.00    -0.335 OA 
HETATM    6  C   UNL     1     -10.980  14.018  68.183  1.00  0.00    -0.252 C  
HETATM    7  C   UNL     1     -10.416  12.675  68.487  1.00  0.00    -0.234 C  
ENDROOT
BRANCH   4   8
HETATM    8  C   UNL     1      -9.816  16.070  67.360  1.00  0.00    -0.236 A  
HETATM    9  C   UNL     1     -10.541  16.547  66.266  1.00  0.00    -0.223 A  
HETATM   10  C   UNL     1     -10.518  17.897  65.917  1.00  0.00    -0.253 A  
HETATM   11  C   UNL     1      -9.051  16.987  68.094  1.00  0.00    -0.237 A  
HETATM   12  C   UNL     1      -8.173  19.267  68.609  1.00  0.00    -0.408 C  
HETATM   13  C   UNL     1      -9.013  18.356  67.756  1.00  0.00    -0.292 A  
HETATM   14  C   UNL     1      -9.761  18.815  66.656  1.00  0.00    -0.370 A  
HETATM   15  C   UNL     1      -9.772  20.256  66.229  1.00  0.00    -0.455 C  
ENDBRANCH   4   8
BRANCH   7  16
HETATM   16  N   UNL     1     -10.992  11.634  69.001  1.00  0.00    -0.228 NA 
HETATM   17  H   UNL     1     -10.978  10.728  68.533  1.00  0.00     0.000 HD 
BRANCH  16  18
HETATM   18  N   UNL     1     -11.619  11.814  70.200  1.00  0.00    -0.508 NA 
HETATM   19  H   UNL     1     -11.773  12.757  70.556  1.00  0.00     0.000 HD 
BRANCH  18  20
HETATM   20  C   UNL     1     -12.055  10.700  70.951  1.00  0.00    -0.385 A  
HETATM   21  C   UNL     1     -11.176   9.663  71.322  1.00  0.00    -0.376 A  
HETATM   22  C   UNL     1     -11.560   8.586  72.145  1.00  0.00    -0.447 A  
HETATM   23  O   UNL     1      -9.878   9.720  70.854  1.00  0.00    -0.312 OA 
HETATM   24  C   UNL     1     -13.389  10.597  71.351  1.00  0.00    -0.299 A  
HETATM   25  C   UNL     1     -12.916   8.507  72.494  1.00  0.00    -0.300 A  
HETATM   26  H   UNL     1      -9.286   9.020  71.104  1.00  0.00     0.000 HD 
HETATM   27  C   UNL     1     -13.822   9.497  72.097  1.00  0.00    -0.376 A  
BRANCH  22  28
HETATM   28  C   UNL     1     -10.560   7.664  72.723  1.00  0.00    -0.381 A  
HETATM   29  C   UNL     1      -9.377   8.095  73.342  1.00  0.00    -0.267 A  
HETATM   30  C   UNL     1      -8.437   7.169  73.816  1.00  0.00    -0.176 A  
HETATM   31  C   UNL     1      -8.682   5.798  73.716  1.00  0.00    -0.121 A  
HETATM   32  C   UNL     1      -9.868   5.352  73.136  1.00  0.00    -0.179 A  
HETATM   33  C   UNL     1     -10.764   6.277  72.605  1.00  0.00    -0.260 A  
HETATM   34  C   UNL     1     -10.147   3.898  73.054  1.00  0.00    -0.150 C  
HETATM   35  O   UNL     1     -11.460   3.593  73.186  1.00  0.00    -0.064 OA 
HETATM   36  O   UNL     1      -9.277   3.064  72.917  1.00  0.00    -0.089 OA 
ENDBRANCH  22  28
ENDBRANCH  18  20
ENDBRANCH  16  18
ENDBRANCH   7  16
TORSDOF 5
ENDMDL
MODEL       81
REMARK 921   NORMALIZED FREE ENERGY PREDICTED BY IDOCK:   -6.74 KCAL/MOL
REMARK 922        TOTAL FREE ENERGY PREDICTED BY IDOCK:  -10.01 KCAL/MOL
REMARK 923 INTER-LIGAND FREE ENERGY PREDICTED BY IDOCK:   -8.99 KCAL/MOL
REMARK 924 INTRA-LIGAND FREE ENERGY PREDICTED BY IDOCK:   -1.02 KCAL/MOL
REMARK 927      BINDING AFFINITY PREDICTED BY RF-SCORE:    0.00 PKD
ROOT
HETATM    1  C   UNL     1     -12.557  13.476  65.828  1.00  0.00    -0.490 C  
HETATM    2  C   UNL     1     -11.704  12.698  66.760  1.00  0.00    -0.392 C  
HETATM    3  N   UNL     1     -11.982  11.562  67.330  1.00  0.00    -0.597 NA 
HETATM    4  N   UNL     1     -10.863  11.204  68.108  1.00  0.00    -0.202 N  
HETATM    5  O   UNL     1      -8.705  12.170  68.555  1.00  0.00    -0.157 OA 
HETATM    6  C   UNL     1      -9.811  12.107  68.055  1.00  0.00    -0.202 C  
HETATM    7  C   UNL     1     -10.357  13.168  67.166  1.00  0.00    -0.247 C  
ENDROOT
BRANCH   4   8
HETATM    8  C   UNL     1     -10.912  10.024  68.887  1.00  0.00    -0.207 A  
HETATM    9  C   UNL     1     -10.318   8.843  68.437  1.00  0.00    -0.237 A  
HETATM   10  C   UNL     1     -10.340   7.682  69.211  1.00  0.00    -0.218 A  
HETATM   11  C   UNL     1     -11.545  10.008  70.138  1.00  0.00    -0.320 A  
HETATM   12  C   UNL     1     -12.272   8.926  72.268  1.00  0.00    -0.413 C  
HETATM   13  C   UNL     1     -11.580   8.844  70.934  1.00  0.00    -0.331 A  
HETATM   14  C   UNL     1     -10.965   7.669  70.465  1.00  0.00    -0.259 A  
HETATM   15  C   UNL     1     -10.960   6.388  71.249  1.00  0.00    -0.321 C  
ENDBRANCH   4   8
BRANCH   7  16
HETATM   16  N   UNL     1      -9.829  14.295  66.805  1.00  0.00    -0.261 NA 
HETATM   17  H   UNL     1      -9.506  14.454  65.851  1.00  0.00     0.000 HD 
BRANCH  16  18
HETATM   18  N   UNL     1      -9.727  15.258  67.767  1.00  0.00    -0.214 NA 
HETATM   19  H   UNL     1     -10.555  15.538  68.294  1.00  0.00     0.000 HD 
BRANCH  18  20
HETATM   20  C   UNL     1      -8.483  15.868  68.037  1.00  0.00    -0.162 A  
HETATM   21  C   UNL     1      -8.004  16.950  67.272  1.00  0.00    -0.174 A  
HETATM   22  C   UNL     1      -6.811  17.636  67.572  1.00  0.00    -0.185 A  
HETATM   23  O   UNL     1      -8.751  17.349  66.182  1.00  0.00    -0.439 OA 
HETATM   24  C   UNL     1      -7.684  15.408  69.086  1.00  0.00    -0.207 A  
HETATM   25  C   UNL     1      -6.025  17.118  68.612  1.00  0.00    -0.150 A  
HETATM   26  H   UNL     1      -8.427  18.078  65.666  1.00  0.00     0.000 HD 
HETATM   27  C   UNL     1      -6.453  16.013  69.357  1.00  0.00    -0.176 A  
BRANCH  22  28
HETATM   28  C   UNL     1      -6.472  18.916  66.915  1.00  0.00    -0.198 A  
HETATM   29  C   UNL     1      -6.308  20.123  67.610  1.00  0.00    -0.260 A  
HETATM   30  C   UNL     1      -6.047  21.317  66.923  1.00  0.00    -0.401 A  
HETATM   31  C   UNL     1      -5.908  21.317  65.534  1.00  0.00    -0.198 A  
HETATM   32  C   UNL     1      -6.034  20.122  64.829  1.00  0.00    -0.289 A  
HETATM   33  C   UNL     1      -6.361  18.953  65.512  1.00  0.00    -0.307 A  
HETATM   34  C   UNL     1      -5.858  20.112  63.358  1.00  0.00    -0.234 C  
HETATM   35  O   UNL     1      -5.288  18.975  62.891  1.00  0.00    -0.296 OA 
HETATM   36  O   UNL     1      -6.163  21.047  62.648  1.00  0.00    -0.238 OA 
ENDBRANCH  22  28
ENDBRANCH  18  20
ENDBRANCH  16  18
ENDBRANCH   7  16
TORSDOF 5
ENDMDL
MODEL       82
REMARK 921   NORMALIZED FREE ENERGY PREDICTED BY IDOCK:   -6.73 KCAL/MOL
REMARK 922        TOTAL FREE ENERGY PREDICTED BY IDOCK:  -10.00 KCAL/MOL
REMARK 923 INTER-LIGAND FREE ENERGY PREDICTED BY IDOCK:   -8.95 KCAL/MOL
REMARK 924 INTRA-LIGAND FREE ENERGY PREDICTED BY IDOCK:   -1.05 KCAL/MOL
REMARK 927      BINDING AFFINITY PREDICTED BY RF-SCORE:    0.00 PKD
ROOT
HETATM    1  C   UNL     1      -6.866   9.451  68.346  1.00  0.00    -0.063 C  
HETATM    2  C   UNL     1      -7.951   9.046  69.273  1.00  0.00    -0.096 C  
HETATM    3  N   UNL     1      -8.119   7.888  69.842  1.00  0.00    -0.116 NA 
HETATM    4  N   UNL     1      -9.270   7.985  70.648  1.00  0.00    -0.152 N  
HETATM    5  O   UNL     1     -10.859   9.715  71.169  1.00  0.00    -0.337 OA 
HETATM    6  C   UNL     1      -9.883   9.229  70.631  1.00  0.00    -0.270 C  
HETATM    7  C   UNL     1      -9.030   9.983  69.672  1.00  0.00    -0.202 C  
ENDROOT
BRANCH   4   8
HETATM    8  C   UNL     1      -9.721   6.841  71.349  1.00  0.00    -0.171 A  
HETATM    9  C   UNL     1     -10.474   6.969  72.518  1.00  0.00    -0.243 A  
HETATM   10  C   UNL     1     -10.944   5.847  73.200  1.00  0.00    -0.286 A  
HETATM   11  C   UNL     1      -9.438   5.549  70.885  1.00  0.00    -0.208 A  
HETATM   12  C   UNL     1      -9.558   3.057  70.981  1.00  0.00    -0.224 C  
HETATM   13  C   UNL     1      -9.902   4.402  71.562  1.00  0.00    -0.259 A  
HETATM   14  C   UNL     1     -10.669   4.555  72.732  1.00  0.00    -0.258 A  
HETATM   15  C   UNL     1     -11.198   3.386  73.512  1.00  0.00    -0.280 C  
ENDBRANCH   4   8
BRANCH   7  16
HETATM   16  N   UNL     1      -9.162  11.191  69.224  1.00  0.00    -0.399 NA 
HETATM   17  H   UNL     1      -8.353  11.762  68.978  1.00  0.00     0.000 HD 
BRANCH  16  18
HETATM   18  N   UNL     1     -10.437  11.660  69.097  1.00  0.00    -0.405 NA 
HETATM   19  H   UNL     1     -11.164  11.332  69.733  1.00  0.00     0.000 HD 
BRANCH  18  20
HETATM   20  C   UNL     1     -10.757  12.596  68.089  1.00  0.00    -0.225 A  
HETATM   21  C   UNL     1     -10.167  13.875  68.048  1.00  0.00    -0.246 A  
HETATM   22  C   UNL     1     -10.397  14.796  67.007  1.00  0.00    -0.255 A  
HETATM   23  O   UNL     1      -9.322  14.228  69.081  1.00  0.00    -0.397 OA 
HETATM   24  C   UNL     1     -11.680  12.272  67.092  1.00  0.00    -0.396 A  
HETATM   25  C   UNL     1     -11.357  14.440  66.047  1.00  0.00    -0.335 A  
HETATM   26  H   UNL     1      -8.925  15.090  69.053  1.00  0.00     0.000 HD 
HETATM   27  C   UNL     1     -11.995  13.196  66.091  1.00  0.00    -0.478 A  
BRANCH  22  28
HETATM   28  C   UNL     1      -9.572  16.013  66.859  1.00  0.00    -0.239 A  
HETATM   29  C   UNL     1      -8.193  15.986  66.608  1.00  0.00    -0.324 A  
HETATM   30  C   UNL     1      -7.453  17.175  66.539  1.00  0.00    -0.318 A  
HETATM   31  C   UNL     1      -8.086  18.411  66.680  1.00  0.00    -0.282 A  
HETATM   32  C   UNL     1      -9.462  18.459  66.895  1.00  0.00    -0.291 A  
HETATM   33  C   UNL     1     -10.178  17.271  67.031  1.00  0.00    -0.320 A  
HETATM   34  C   UNL     1     -10.145  19.769  67.016  1.00  0.00    -0.425 C  
HETATM   35  O   UNL     1     -11.399  19.772  66.505  1.00  0.00    -0.037 OA 
HETATM   36  O   UNL     1      -9.615  20.749  67.494  1.00  0.00    -0.412 OA 
ENDBRANCH  22  28
ENDBRANCH  18  20
ENDBRANCH  16  18
ENDBRANCH   7  16
TORSDOF 5
ENDMDL
MODEL       83
REMARK 921   NORMALIZED FREE ENERGY PREDICTED BY IDOCK:   -6.72 KCAL/MOL
REMARK 922        TOTAL FREE ENERGY PREDICTED BY IDOCK:   -9.99 KCAL/MOL
REMARK 923 INTER-LIGAND FREE ENERGY PREDICTED BY IDOCK:   -8.89 KCAL/MOL
REMARK 924 INTRA-LIGAND FREE ENERGY PREDICTED BY IDOCK:   -1.10 KCAL/MOL
REMARK 927      BINDING AFFINITY PREDICTED BY RF-SCORE:    0.00 PKD
ROOT
HETATM    1  C   UNL     1     -12.814  14.655  71.686  1.00  0.00    -0.403 C  
HETATM    2  C   UNL     1     -11.912  14.963  70.549  1.00  0.00    -0.309 C  
HETATM    3  N   UNL     1     -11.350  16.103  70.266  1.00  0.00    -0.367 NA 
HETATM    4  N   UNL     1     -10.569  15.904  69.111  1.00  0.00    -0.228 N  
HETATM    5  O   UNL     1     -10.080  14.040  67.670  1.00  0.00    -0.236 OA 
HETATM    6  C   UNL     1     -10.596  14.611  68.611  1.00  0.00    -0.252 C  
HETATM    7  C   UNL     1     -11.534  13.935  69.548  1.00  0.00    -0.274 C  
ENDROOT
BRANCH   4   8
HETATM    8  C   UNL     1      -9.881  17.004  68.545  1.00  0.00    -0.290 A  
HETATM    9  C   UNL     1      -8.528  17.219  68.817  1.00  0.00    -0.233 A  
HETATM   10  C   UNL     1      -7.836  18.285  68.243  1.00  0.00    -0.310 A  
HETATM   11  C   UNL     1     -10.531  17.900  67.686  1.00  0.00    -0.406 A  
HETATM   12  C   UNL     1     -10.628  19.888  66.178  1.00  0.00    -0.526 C  
HETATM   13  C   UNL     1      -9.850  18.986  67.097  1.00  0.00    -0.383 A  
HETATM   14  C   UNL     1      -8.484  19.176  67.377  1.00  0.00    -0.308 A  
HETATM   15  C   UNL     1      -7.688  20.309  66.793  1.00  0.00    -0.333 C  
ENDBRANCH   4   8
BRANCH   7  16
HETATM   16  N   UNL     1     -11.983  12.720  69.534  1.00  0.00    -0.301 NA 
HETATM   17  H   UNL     1     -12.888  12.487  69.126  1.00  0.00     0.000 HD 
BRANCH  16  18
HETATM   18  N   UNL     1     -11.181  11.766  70.092  1.00  0.00    -0.456 NA 
HETATM   19  H   UNL     1     -10.859  11.874  71.053  1.00  0.00     0.000 HD 
BRANCH  18  20
HETATM   20  C   UNL     1     -10.796  10.631  69.345  1.00  0.00    -0.246 A  
HETATM   21  C   UNL     1     -10.048   9.583  69.918  1.00  0.00    -0.232 A  
HETATM   22  C   UNL     1      -9.726   8.400  69.225  1.00  0.00    -0.177 A  
HETATM   23  O   UNL     1      -9.621   9.734  71.222  1.00  0.00    -0.270 OA 
HETATM   24  C   UNL     1     -11.151  10.519  68.000  1.00  0.00    -0.361 A  
HETATM   25  C   UNL     1     -10.075   8.345  67.867  1.00  0.00    -0.254 A  
HETATM   26  H   UNL     1      -9.117   9.027  71.607  1.00  0.00     0.000 HD 
HETATM   27  C   UNL     1     -10.774   9.394  67.259  1.00  0.00    -0.258 A  
BRANCH  22  28
HETATM   28  C   UNL     1      -9.172   7.223  69.926  1.00  0.00    -0.141 A  
HETATM   29  C   UNL     1      -7.841   6.801  69.796  1.00  0.00    -0.115 A  
HETATM   30  C   UNL     1      -7.391   5.640  70.439  1.00  0.00    -0.079 A  
HETATM   31  C   UNL     1      -8.252   4.903  71.254  1.00  0.00    -0.110 A  
HETATM   32  C   UNL     1      -9.569   5.326  71.423  1.00  0.00    -0.209 A  
HETATM   33  C   UNL     1     -10.027   6.442  70.725  1.00  0.00    -0.212 A  
HETATM   34  C   UNL     1     -10.480   4.565  72.311  1.00  0.00    -0.145 C  
HETATM   35  O   UNL     1     -11.373   5.346  72.965  1.00  0.00    -0.302 OA 
HETATM   36  O   UNL     1     -10.407   3.364  72.461  1.00  0.00    -0.165 OA 
ENDBRANCH  22  28
ENDBRANCH  18  20
ENDBRANCH  16  18
ENDBRANCH   7  16
TORSDOF 5
ENDMDL
MODEL       84
REMARK 921   NORMALIZED FREE ENERGY PREDICTED BY IDOCK:   -6.71 KCAL/MOL
REMARK 922        TOTAL FREE ENERGY PREDICTED BY IDOCK:   -9.98 KCAL/MOL
REMARK 923 INTER-LIGAND FREE ENERGY PREDICTED BY IDOCK:   -8.57 KCAL/MOL
REMARK 924 INTRA-LIGAND FREE ENERGY PREDICTED BY IDOCK:   -1.40 KCAL/MOL
REMARK 927      BINDING AFFINITY PREDICTED BY RF-SCORE:    0.00 PKD
ROOT
HETATM    1  C   UNL     1     -11.917  11.135  70.594  1.00  0.00    -0.459 C  
HETATM    2  C   UNL     1     -11.074  10.322  69.684  1.00  0.00    -0.274 C  
HETATM    3  N   UNL     1     -11.138   9.038  69.477  1.00  0.00    -0.100 NA 
HETATM    4  N   UNL     1     -10.155   8.724  68.517  1.00  0.00    -0.184 N  
HETATM    5  O   UNL     1      -8.520   9.969  67.265  1.00  0.00    -0.121 OA 
HETATM    6  C   UNL     1      -9.423   9.811  68.064  1.00  0.00    -0.131 C  
HETATM    7  C   UNL     1      -9.997  10.928  68.863  1.00  0.00    -0.196 C  
ENDROOT
BRANCH   4   8
HETATM    8  C   UNL     1      -9.966   7.374  68.139  1.00  0.00    -0.166 A  
HETATM    9  C   UNL     1     -10.824   6.760  67.223  1.00  0.00    -0.443 A  
HETATM   10  C   UNL     1     -10.629   5.437  66.826  1.00  0.00    -0.339 A  
HETATM   11  C   UNL     1      -8.907   6.618  68.659  1.00  0.00    -0.122 A  
HETATM   12  C   UNL     1      -7.523   4.550  68.874  1.00  0.00    -0.056 C  
HETATM   13  C   UNL     1      -8.694   5.278  68.271  1.00  0.00    -0.101 A  
HETATM   14  C   UNL     1      -9.565   4.684  67.339  1.00  0.00    -0.198 A  
HETATM   15  C   UNL     1      -9.409   3.263  66.877  1.00  0.00    -0.184 C  
ENDBRANCH   4   8
BRANCH   7  16
HETATM   16  N   UNL     1      -9.658  12.178  68.898  1.00  0.00    -0.413 NA 
HETATM   17  H   UNL     1      -9.840  12.760  69.716  1.00  0.00     0.000 HD 
BRANCH  16  18
HETATM   18  N   UNL     1      -9.044  12.675  67.785  1.00  0.00    -0.184 NA 
HETATM   19  H   UNL     1      -8.137  12.307  67.499  1.00  0.00     0.000 HD 
BRANCH  18  20
HETATM   20  C   UNL     1      -9.658  13.697  67.027  1.00  0.00    -0.251 A  
HETATM   21  C   UNL     1      -9.569  15.053  67.398  1.00  0.00    -0.205 A  
HETATM   22  C   UNL     1     -10.094  16.101  66.616  1.00  0.00    -0.283 A  
HETATM   23  O   UNL     1      -8.930  15.357  68.583  1.00  0.00    -0.173 OA 
HETATM   24  C   UNL     1     -10.381  13.382  65.875  1.00  0.00    -0.290 A  
HETATM   25  C   UNL     1     -10.840  15.736  65.485  1.00  0.00    -0.343 A  
HETATM   26  H   UNL     1      -8.870  16.271  68.833  1.00  0.00     0.000 HD 
HETATM   27  C   UNL     1     -10.988  14.393  65.121  1.00  0.00    -0.380 A  
BRANCH  22  28
HETATM   28  C   UNL     1      -9.760  17.513  66.896  1.00  0.00    -0.291 A  
HETATM   29  C   UNL     1     -10.637  18.403  67.534  1.00  0.00    -0.447 A  
HETATM   30  C   UNL     1     -10.288  19.747  67.717  1.00  0.00    -0.573 A  
HETATM   31  C   UNL     1      -9.040  20.216  67.301  1.00  0.00    -0.480 A  
HETATM   32  C   UNL     1      -8.141  19.339  66.697  1.00  0.00    -0.300 A  
HETATM   33  C   UNL     1      -8.524  18.021  66.457  1.00  0.00    -0.285 A  
HETATM   34  C   UNL     1      -6.804  19.824  66.281  1.00  0.00    -0.225 C  
HETATM   35  O   UNL     1      -5.829  18.893  66.408  1.00  0.00    -0.159 OA 
HETATM   36  O   UNL     1      -6.601  20.957  65.898  1.00  0.00    -0.217 OA 
ENDBRANCH  22  28
ENDBRANCH  18  20
ENDBRANCH  16  18
ENDBRANCH   7  16
TORSDOF 5
ENDMDL
MODEL       85
REMARK 921   NORMALIZED FREE ENERGY PREDICTED BY IDOCK:   -6.71 KCAL/MOL
REMARK 922        TOTAL FREE ENERGY PREDICTED BY IDOCK:   -9.97 KCAL/MOL
REMARK 923 INTER-LIGAND FREE ENERGY PREDICTED BY IDOCK:   -8.73 KCAL/MOL
REMARK 924 INTRA-LIGAND FREE ENERGY PREDICTED BY IDOCK:   -1.24 KCAL/MOL
REMARK 927      BINDING AFFINITY PREDICTED BY RF-SCORE:    0.00 PKD
ROOT
HETATM    1  C   UNL     1     -12.018  14.392  64.396  1.00  0.00    -0.471 C  
HETATM    2  C   UNL     1     -11.183  15.023  65.447  1.00  0.00    -0.356 C  
HETATM    3  N   UNL     1     -10.545  16.156  65.382  1.00  0.00    -0.473 NA 
HETATM    4  N   UNL     1      -9.911  16.346  66.626  1.00  0.00    -0.248 N  
HETATM    5  O   UNL     1      -9.783  15.119  68.692  1.00  0.00    -0.202 OA 
HETATM    6  C   UNL     1     -10.130  15.332  67.547  1.00  0.00    -0.232 C  
HETATM    7  C   UNL     1     -10.973  14.383  66.769  1.00  0.00    -0.314 C  
ENDROOT
BRANCH   4   8
HETATM    8  C   UNL     1      -9.095  17.486  66.818  1.00  0.00    -0.262 A  
HETATM    9  C   UNL     1      -9.542  18.566  67.583  1.00  0.00    -0.304 A  
HETATM   10  C   UNL     1      -8.734  19.682  67.798  1.00  0.00    -0.372 A  
HETATM   11  C   UNL     1      -7.812  17.560  66.259  1.00  0.00    -0.322 A  
HETATM   12  C   UNL     1      -5.613  18.666  65.834  1.00  0.00    -0.199 C  
HETATM   13  C   UNL     1      -6.981  18.681  66.463  1.00  0.00    -0.240 A  
HETATM   14  C   UNL     1      -7.448  19.753  67.247  1.00  0.00    -0.285 A  
HETATM   15  C   UNL     1      -6.626  20.983  67.509  1.00  0.00    -0.438 C  
ENDBRANCH   4   8
BRANCH   7  16
HETATM   16  N   UNL     1     -11.436  13.222  67.108  1.00  0.00    -0.323 NA 
HETATM   17  H   UNL     1     -12.413  12.971  66.962  1.00  0.00     0.000 HD 
BRANCH  16  18
HETATM   18  N   UNL     1     -10.548  12.351  67.672  1.00  0.00    -0.213 NA 
HETATM   19  H   UNL     1      -9.611  12.257  67.280  1.00  0.00     0.000 HD 
BRANCH  18  20
HETATM   20  C   UNL     1     -10.919  11.579  68.794  1.00  0.00    -0.222 A  
HETATM   21  C   UNL     1     -10.196  10.435  69.182  1.00  0.00    -0.222 A  
HETATM   22  C   UNL     1     -10.488   9.697  70.347  1.00  0.00    -0.352 A  
HETATM   23  O   UNL     1      -9.150  10.029  68.377  1.00  0.00    -0.119 OA 
HETATM   24  C   UNL     1     -12.032  11.937  69.559  1.00  0.00    -0.355 A  
HETATM   25  C   UNL     1     -11.633  10.073  71.065  1.00  0.00    -0.476 A  
HETATM   26  H   UNL     1      -8.663   9.257  68.639  1.00  0.00     0.000 HD 
HETATM   27  C   UNL     1     -12.400  11.177  70.673  1.00  0.00    -0.482 A  
BRANCH  22  28
HETATM   28  C   UNL     1      -9.560   8.668  70.860  1.00  0.00    -0.252 A  
HETATM   29  C   UNL     1      -8.526   8.942  71.766  1.00  0.00    -0.091 A  
HETATM   30  C   UNL     1      -7.639   7.934  72.169  1.00  0.00    -0.103 A  
HETATM   31  C   UNL     1      -7.795   6.627  71.703  1.00  0.00    -0.102 A  
HETATM   32  C   UNL     1      -8.838   6.328  70.828  1.00  0.00    -0.144 A  
HETATM   33  C   UNL     1      -9.672   7.350  70.379  1.00  0.00    -0.175 A  
HETATM   34  C   UNL     1      -9.027   4.937  70.354  1.00  0.00    -0.112 C  
HETATM   35  O   UNL     1     -10.326   4.601  70.170  1.00  0.00    -0.208 OA 
HETATM   36  O   UNL     1      -8.106   4.166  70.182  1.00  0.00    -0.057 OA 
ENDBRANCH  22  28
ENDBRANCH  18  20
ENDBRANCH  16  18
ENDBRANCH   7  16
TORSDOF 5
ENDMDL
MODEL       86
REMARK 921   NORMALIZED FREE ENERGY PREDICTED BY IDOCK:   -6.68 KCAL/MOL
REMARK 922        TOTAL FREE ENERGY PREDICTED BY IDOCK:   -9.93 KCAL/MOL
REMARK 923 INTER-LIGAND FREE ENERGY PREDICTED BY IDOCK:   -8.80 KCAL/MOL
REMARK 924 INTRA-LIGAND FREE ENERGY PREDICTED BY IDOCK:   -1.13 KCAL/MOL
REMARK 927      BINDING AFFINITY PREDICTED BY RF-SCORE:    0.00 PKD
ROOT
HETATM    1  C   UNL     1     -10.724   4.799  65.806  1.00  0.00    -0.220 C  
HETATM    2  C   UNL     1     -10.332   5.106  67.203  1.00  0.00    -0.192 C  
HETATM    3  N   UNL     1      -9.980   4.265  68.132  1.00  0.00    -0.033 NA 
HETATM    4  N   UNL     1      -9.678   5.021  69.282  1.00  0.00    -0.162 N  
HETATM    5  O   UNL     1      -9.661   7.361  69.841  1.00  0.00    -0.170 OA 
HETATM    6  C   UNL     1      -9.819   6.392  69.125  1.00  0.00    -0.140 C  
HETATM    7  C   UNL     1     -10.300   6.496  67.721  1.00  0.00    -0.192 C  
ENDROOT
BRANCH   4   8
HETATM    8  C   UNL     1      -9.314   4.350  70.474  1.00  0.00    -0.143 A  
HETATM    9  C   UNL     1      -8.071   3.723  70.591  1.00  0.00    -0.060 A  
HETATM   10  C   UNL     1      -7.694   3.081  71.771  1.00  0.00    -0.053 A  
HETATM   11  C   UNL     1     -10.181   4.306  71.574  1.00  0.00    -0.138 A  
HETATM   12  C   UNL     1     -10.810   3.675  73.907  1.00  0.00    -0.301 C  
HETATM   13  C   UNL     1      -9.819   3.660  72.775  1.00  0.00    -0.204 A  
HETATM   14  C   UNL     1      -8.557   3.045  72.874  1.00  0.00    -0.081 A  
HETATM   15  C   UNL     1      -8.098   2.335  74.115  1.00  0.00    -0.055 C  
ENDBRANCH   4   8
BRANCH   7  16
HETATM   16  N   UNL     1     -10.653   7.543  67.045  1.00  0.00    -0.346 NA 
HETATM   17  H   UNL     1     -11.466   7.534  66.429  1.00  0.00     0.000 HD 
BRANCH  16  18
HETATM   18  N   UNL     1      -9.882   8.659  67.200  1.00  0.00    -0.187 NA 
HETATM   19  H   UNL     1      -8.867   8.571  67.253  1.00  0.00     0.000 HD 
BRANCH  18  20
HETATM   20  C   UNL     1     -10.482   9.934  67.287  1.00  0.00    -0.258 A  
HETATM   21  C   UNL     1     -11.181  10.350  68.437  1.00  0.00    -0.258 A  
HETATM   22  C   UNL     1     -11.712  11.646  68.588  1.00  0.00    -0.386 A  
HETATM   23  O   UNL     1     -11.342   9.436  69.459  1.00  0.00    -0.430 OA 
HETATM   24  C   UNL     1     -10.396  10.829  66.218  1.00  0.00    -0.303 A  
HETATM   25  C   UNL     1     -11.631  12.499  67.477  1.00  0.00    -0.424 A  
HETATM   26  H   UNL     1     -11.814   9.717  70.234  1.00  0.00     0.000 HD 
HETATM   27  C   UNL     1     -10.986  12.094  66.303  1.00  0.00    -0.332 A  
BRANCH  22  28
HETATM   28  C   UNL     1     -12.207  12.128  69.895  1.00  0.00    -0.240 A  
HETATM   29  C   UNL     1     -12.775  11.289  70.864  1.00  0.00    -0.412 A  
HETATM   30  C   UNL     1     -13.282  11.814  72.060  1.00  0.00    -0.460 A  
HETATM   31  C   UNL     1     -13.196  13.183  72.325  1.00  0.00    -0.555 A  
HETATM   32  C   UNL     1     -12.604  14.028  71.388  1.00  0.00    -0.451 A  
HETATM   33  C   UNL     1     -12.164  13.507  70.173  1.00  0.00    -0.400 A  
HETATM   34  C   UNL     1     -12.482  15.477  71.676  1.00  0.00    -0.406 C  
HETATM   35  O   UNL     1     -11.359  16.036  71.164  1.00  0.00    -0.387 OA 
HETATM   36  O   UNL     1     -13.293  16.091  72.336  1.00  0.00    -0.420 OA 
ENDBRANCH  22  28
ENDBRANCH  18  20
ENDBRANCH  16  18
ENDBRANCH   7  16
TORSDOF 5
ENDMDL
MODEL       87
REMARK 921   NORMALIZED FREE ENERGY PREDICTED BY IDOCK:   -6.66 KCAL/MOL
REMARK 922        TOTAL FREE ENERGY PREDICTED BY IDOCK:   -9.91 KCAL/MOL
REMARK 923 INTER-LIGAND FREE ENERGY PREDICTED BY IDOCK:   -8.73 KCAL/MOL
REMARK 924 INTRA-LIGAND FREE ENERGY PREDICTED BY IDOCK:   -1.18 KCAL/MOL
REMARK 927      BINDING AFFINITY PREDICTED BY RF-SCORE:    0.00 PKD
ROOT
HETATM    1  C   UNL     1     -11.995  12.586  63.887  1.00  0.00    -0.563 C  
HETATM    2  C   UNL     1     -11.271  13.254  64.996  1.00  0.00    -0.305 C  
HETATM    3  N   UNL     1     -11.389  14.489  65.392  1.00  0.00    -0.331 NA 
HETATM    4  N   UNL     1     -10.519  14.658  66.487  1.00  0.00    -0.284 N  
HETATM    5  O   UNL     1      -8.991  13.247  67.697  1.00  0.00    -0.178 OA 
HETATM    6  C   UNL     1      -9.810  13.519  66.842  1.00  0.00    -0.257 C  
HETATM    7  C   UNL     1     -10.270  12.537  65.823  1.00  0.00    -0.270 C  
ENDROOT
BRANCH   4   8
HETATM    8  C   UNL     1     -10.404  15.934  67.087  1.00  0.00    -0.300 A  
HETATM    9  C   UNL     1     -10.794  16.140  68.412  1.00  0.00    -0.318 A  
HETATM   10  C   UNL     1     -10.660  17.388  69.019  1.00  0.00    -0.207 A  
HETATM   11  C   UNL     1      -9.883  17.024  66.377  1.00  0.00    -0.312 A  
HETATM   12  C   UNL     1      -9.162  19.403  66.134  1.00  0.00    -0.323 C  
HETATM   13  C   UNL     1      -9.742  18.295  66.972  1.00  0.00    -0.305 A  
HETATM   14  C   UNL     1     -10.132  18.476  68.312  1.00  0.00    -0.424 A  
HETATM   15  C   UNL     1     -10.017  19.797  69.017  1.00  0.00    -0.443 C  
ENDBRANCH   4   8
BRANCH   7  16
HETATM   16  N   UNL     1      -9.897  11.311  65.631  1.00  0.00    -0.223 NA 
HETATM   17  H   UNL     1     -10.092  10.822  64.758  1.00  0.00     0.000 HD 
BRANCH  16  18
HETATM   18  N   UNL     1      -9.231  10.707  66.659  1.00  0.00    -0.162 NA 
HETATM   19  H   UNL     1      -8.420  11.164  67.075  1.00  0.00     0.000 HD 
BRANCH  18  20
HETATM   20  C   UNL     1      -9.658   9.453  67.148  1.00  0.00    -0.154 A  
HETATM   21  C   UNL     1      -9.684   9.162  68.526  1.00  0.00    -0.155 A  
HETATM   22  C   UNL     1     -10.188   7.955  69.048  1.00  0.00    -0.216 A  
HETATM   23  O   UNL     1      -9.192  10.116  69.395  1.00  0.00    -0.197 OA 
HETATM   24  C   UNL     1     -10.072   8.455  66.263  1.00  0.00    -0.136 A  
HETATM   25  C   UNL     1     -10.561   6.970  68.122  1.00  0.00    -0.250 A  
HETATM   26  H   UNL     1      -9.209   9.919  70.324  1.00  0.00     0.000 HD 
HETATM   27  C   UNL     1     -10.498   7.214  66.745  1.00  0.00    -0.300 A  
BRANCH  22  28
HETATM   28  C   UNL     1     -10.439   7.787  70.495  1.00  0.00    -0.217 A  
HETATM   29  C   UNL     1     -11.503   8.401  71.172  1.00  0.00    -0.314 A  
HETATM   30  C   UNL     1     -11.653   8.253  72.557  1.00  0.00    -0.454 A  
HETATM   31  C   UNL     1     -10.764   7.457  73.284  1.00  0.00    -0.441 A  
HETATM   32  C   UNL     1      -9.721   6.812  72.624  1.00  0.00    -0.164 A  
HETATM   33  C   UNL     1      -9.539   7.020  71.258  1.00  0.00    -0.164 A  
HETATM   34  C   UNL     1      -8.792   5.942  73.384  1.00  0.00    -0.126 C  
HETATM   35  O   UNL     1      -8.352   4.875  72.677  1.00  0.00    -0.113 OA 
HETATM   36  O   UNL     1      -8.488   6.151  74.539  1.00  0.00    -0.122 OA 
ENDBRANCH  22  28
ENDBRANCH  18  20
ENDBRANCH  16  18
ENDBRANCH   7  16
TORSDOF 5
ENDMDL
MODEL       88
REMARK 921   NORMALIZED FREE ENERGY PREDICTED BY IDOCK:   -6.66 KCAL/MOL
REMARK 922        TOTAL FREE ENERGY PREDICTED BY IDOCK:   -9.91 KCAL/MOL
REMARK 923 INTER-LIGAND FREE ENERGY PREDICTED BY IDOCK:   -8.81 KCAL/MOL
REMARK 924 INTRA-LIGAND FREE ENERGY PREDICTED BY IDOCK:   -1.10 KCAL/MOL
REMARK 927      BINDING AFFINITY PREDICTED BY RF-SCORE:    0.00 PKD
ROOT
HETATM    1  C   UNL     1     -10.479   6.354  67.085  1.00  0.00    -0.342 C  
HETATM    2  C   UNL     1     -10.265   6.207  68.545  1.00  0.00    -0.185 C  
HETATM    3  N   UNL     1      -9.863   5.147  69.186  1.00  0.00    -0.170 NA 
HETATM    4  N   UNL     1      -9.790   5.491  70.551  1.00  0.00    -0.182 N  
HETATM    5  O   UNL     1     -10.205   7.478  71.843  1.00  0.00    -0.185 OA 
HETATM    6  C   UNL     1     -10.139   6.803  70.834  1.00  0.00    -0.190 C  
HETATM    7  C   UNL     1     -10.506   7.325  69.489  1.00  0.00    -0.230 C  
ENDROOT
BRANCH   4   8
HETATM    8  C   UNL     1      -9.426   4.501  71.494  1.00  0.00    -0.153 A  
HETATM    9  C   UNL     1      -8.084   4.267  71.804  1.00  0.00    -0.092 A  
HETATM   10  C   UNL     1      -7.719   3.311  72.751  1.00  0.00    -0.056 A  
HETATM   11  C   UNL     1     -10.398   3.738  72.154  1.00  0.00    -0.120 A  
HETATM   12  C   UNL     1     -11.162   2.003  73.780  1.00  0.00    -0.291 C  
HETATM   13  C   UNL     1     -10.048   2.765  73.113  1.00  0.00    -0.197 A  
HETATM   14  C   UNL     1      -8.691   2.554  73.418  1.00  0.00    -0.074 A  
HETATM   15  C   UNL     1      -8.236   1.536  74.424  1.00  0.00    -0.045 C  
ENDBRANCH   4   8
BRANCH   7  16
HETATM   16  N   UNL     1     -10.965   8.489  69.153  1.00  0.00    -0.430 NA 
HETATM   17  H   UNL     1     -11.870   8.595  68.692  1.00  0.00     0.000 HD 
BRANCH  16  18
HETATM   18  N   UNL     1     -10.178   9.564  69.446  1.00  0.00    -0.195 NA 
HETATM   19  H   UNL     1      -9.189   9.428  69.651  1.00  0.00     0.000 HD 
BRANCH  18  20
HETATM   20  C   UNL     1     -10.727  10.866  69.467  1.00  0.00    -0.206 A  
HETATM   21  C   UNL     1     -10.193  11.910  68.687  1.00  0.00    -0.191 A  
HETATM   22  C   UNL     1     -10.772  13.193  68.619  1.00  0.00    -0.274 A  
HETATM   23  O   UNL     1      -9.051  11.650  67.956  1.00  0.00    -0.164 OA 
HETATM   24  C   UNL     1     -11.829  11.153  70.275  1.00  0.00    -0.455 A  
HETATM   25  C   UNL     1     -11.857  13.446  69.472  1.00  0.00    -0.391 A  
HETATM   26  H   UNL     1      -8.692  12.355  67.430  1.00  0.00     0.000 HD 
HETATM   27  C   UNL     1     -12.376  12.440  70.295  1.00  0.00    -0.264 A  
BRANCH  22  28
HETATM   28  C   UNL     1     -10.345  14.178  67.603  1.00  0.00    -0.241 A  
HETATM   29  C   UNL     1      -9.138  14.887  67.673  1.00  0.00    -0.183 A  
HETATM   30  C   UNL     1      -8.816  15.854  66.711  1.00  0.00    -0.294 A  
HETATM   31  C   UNL     1      -9.678  16.100  65.640  1.00  0.00    -0.239 A  
HETATM   32  C   UNL     1     -10.867  15.380  65.535  1.00  0.00    -0.384 A  
HETATM   33  C   UNL     1     -11.211  14.471  66.533  1.00  0.00    -0.344 A  
HETATM   34  C   UNL     1     -11.772  15.615  64.385  1.00  0.00    -0.218 C  
HETATM   35  O   UNL     1     -12.419  14.500  63.971  1.00  0.00    -0.778 OA 
HETATM   36  O   UNL     1     -11.891  16.696  63.847  1.00  0.00    -1.047 OA 
ENDBRANCH  22  28
ENDBRANCH  18  20
ENDBRANCH  16  18
ENDBRANCH   7  16
TORSDOF 5
ENDMDL
MODEL       89
REMARK 921   NORMALIZED FREE ENERGY PREDICTED BY IDOCK:   -6.65 KCAL/MOL
REMARK 922        TOTAL FREE ENERGY PREDICTED BY IDOCK:   -9.90 KCAL/MOL
REMARK 923 INTER-LIGAND FREE ENERGY PREDICTED BY IDOCK:   -8.43 KCAL/MOL
REMARK 924 INTRA-LIGAND FREE ENERGY PREDICTED BY IDOCK:   -1.47 KCAL/MOL
REMARK 927      BINDING AFFINITY PREDICTED BY RF-SCORE:    0.00 PKD
ROOT
HETATM    1  C   UNL     1     -14.397   8.711  72.510  1.00  0.00    -0.347 C  
HETATM    2  C   UNL     1     -13.231   9.196  71.729  1.00  0.00    -0.396 C  
HETATM    3  N   UNL     1     -13.240  10.002  70.708  1.00  0.00    -0.301 NA 
HETATM    4  N   UNL     1     -11.899  10.188  70.316  1.00  0.00    -0.270 N  
HETATM    5  O   UNL     1      -9.761   9.400  71.089  1.00  0.00    -0.270 OA 
HETATM    6  C   UNL     1     -10.972   9.504  71.088  1.00  0.00    -0.368 C  
HETATM    7  C   UNL     1     -11.845   8.781  72.053  1.00  0.00    -0.372 C  
ENDROOT
BRANCH   4   8
HETATM    8  C   UNL     1     -11.615  10.987  69.183  1.00  0.00    -0.319 A  
HETATM    9  C   UNL     1     -11.812  12.369  69.214  1.00  0.00    -0.361 A  
HETATM   10  C   UNL     1     -11.511  13.167  68.111  1.00  0.00    -0.349 A  
HETATM   11  C   UNL     1     -11.115  10.419  68.003  1.00  0.00    -0.359 A  
HETATM   12  C   UNL     1     -10.263  10.512  65.658  1.00  0.00    -0.315 C  
HETATM   13  C   UNL     1     -10.807  11.209  66.876  1.00  0.00    -0.333 A  
HETATM   14  C   UNL     1     -11.003  12.601  66.934  1.00  0.00    -0.297 A  
HETATM   15  C   UNL     1     -10.701  13.510  65.777  1.00  0.00    -0.278 C  
ENDBRANCH   4   8
BRANCH   7  16
HETATM   16  N   UNL     1     -11.525   7.937  72.983  1.00  0.00    -0.548 NA 
HETATM   17  H   UNL     1     -12.148   7.742  73.767  1.00  0.00     0.000 HD 
BRANCH  16  18
HETATM   18  N   UNL     1     -10.312   7.323  72.861  1.00  0.00    -0.234 NA 
HETATM   19  H   UNL     1      -9.459   7.836  73.084  1.00  0.00     0.000 HD 
BRANCH  18  20
HETATM   20  C   UNL     1     -10.232   5.982  72.426  1.00  0.00    -0.189 A  
HETATM   21  C   UNL     1      -9.789   5.645  71.132  1.00  0.00    -0.177 A  
HETATM   22  C   UNL     1      -9.614   4.316  70.700  1.00  0.00    -0.260 A  
HETATM   23  O   UNL     1      -9.514   6.676  70.256  1.00  0.00    -0.162 OA 
HETATM   24  C   UNL     1     -10.595   4.940  73.282  1.00  0.00    -0.289 A  
HETATM   25  C   UNL     1     -10.023   3.303  71.581  1.00  0.00    -0.169 A  
HETATM   26  H   UNL     1      -9.216   6.449  69.383  1.00  0.00     0.000 HD 
HETATM   27  C   UNL     1     -10.514   3.611  72.855  1.00  0.00    -0.239 A  
BRANCH  22  28
HETATM   28  C   UNL     1      -8.909   4.002  69.439  1.00  0.00    -0.143 A  
HETATM   29  C   UNL     1      -7.688   3.312  69.387  1.00  0.00    -0.050 A  
HETATM   30  C   UNL     1      -7.037   3.099  68.164  1.00  0.00    -0.050 A  
HETATM   31  C   UNL     1      -7.614   3.536  66.970  1.00  0.00    -0.079 A  
HETATM   32  C   UNL     1      -8.842   4.192  66.999  1.00  0.00    -0.125 A  
HETATM   33  C   UNL     1      -9.449   4.462  68.224  1.00  0.00    -0.210 A  
HETATM   34  C   UNL     1      -9.473   4.632  65.732  1.00  0.00    -0.173 C  
HETATM   35  O   UNL     1     -10.826   4.562  65.751  1.00  0.00    -0.247 OA 
HETATM   36  O   UNL     1      -8.835   4.987  64.764  1.00  0.00    -0.153 OA 
ENDBRANCH  22  28
ENDBRANCH  18  20
ENDBRANCH  16  18
ENDBRANCH   7  16
TORSDOF 5
ENDMDL
MODEL       90
REMARK 921   NORMALIZED FREE ENERGY PREDICTED BY IDOCK:   -6.64 KCAL/MOL
REMARK 922        TOTAL FREE ENERGY PREDICTED BY IDOCK:   -9.88 KCAL/MOL
REMARK 923 INTER-LIGAND FREE ENERGY PREDICTED BY IDOCK:   -9.08 KCAL/MOL
REMARK 924 INTRA-LIGAND FREE ENERGY PREDICTED BY IDOCK:   -0.80 KCAL/MOL
REMARK 927      BINDING AFFINITY PREDICTED BY RF-SCORE:    0.00 PKD
ROOT
HETATM    1  C   UNL     1     -12.438  15.048  70.273  1.00  0.00    -0.385 C  
HETATM    2  C   UNL     1     -11.965  13.674  69.973  1.00  0.00    -0.343 C  
HETATM    3  N   UNL     1     -12.254  12.577  70.613  1.00  0.00    -0.351 NA 
HETATM    4  N   UNL     1     -11.592  11.525  69.950  1.00  0.00    -0.312 N  
HETATM    5  O   UNL     1     -10.162  11.341  68.023  1.00  0.00    -0.175 OA 
HETATM    6  C   UNL     1     -10.853  11.915  68.843  1.00  0.00    -0.221 C  
HETATM    7  C   UNL     1     -11.052  13.389  68.840  1.00  0.00    -0.266 C  
ENDROOT
BRANCH   4   8
HETATM    8  C   UNL     1     -11.689  10.212  70.469  1.00  0.00    -0.322 A  
HETATM    9  C   UNL     1     -10.571   9.377  70.518  1.00  0.00    -0.331 A  
HETATM   10  C   UNL     1     -10.653   8.091  71.052  1.00  0.00    -0.239 A  
HETATM   11  C   UNL     1     -12.904   9.716  70.962  1.00  0.00    -0.342 A  
HETATM   12  C   UNL     1     -14.351   7.977  72.019  1.00  0.00    -0.511 C  
HETATM   13  C   UNL     1     -13.008   8.418  71.503  1.00  0.00    -0.319 A  
HETATM   14  C   UNL     1     -11.865   7.598  71.552  1.00  0.00    -0.323 A  
HETATM   15  C   UNL     1     -11.892   6.204  72.110  1.00  0.00    -0.339 C  
ENDBRANCH   4   8
BRANCH   7  16
HETATM   16  N   UNL     1     -10.547  14.289  68.056  1.00  0.00    -0.235 NA 
HETATM   17  H   UNL     1      -9.632  14.702  68.235  1.00  0.00     0.000 HD 
BRANCH  16  18
HETATM   18  N   UNL     1     -11.302  14.655  66.979  1.00  0.00    -0.345 NA 
HETATM   19  H   UNL     1     -11.702  15.592  66.934  1.00  0.00     0.000 HD 
BRANCH  18  20
HETATM   20  C   UNL     1     -11.532  13.742  65.926  1.00  0.00    -0.322 A  
HETATM   21  C   UNL     1     -10.482  13.024  65.321  1.00  0.00    -0.304 A  
HETATM   22  C   UNL     1     -10.690  12.042  64.332  1.00  0.00    -0.369 A  
HETATM   23  O   UNL     1      -9.192  13.301  65.731  1.00  0.00    -0.451 OA 
HETATM   24  C   UNL     1     -12.827  13.526  65.450  1.00  0.00    -0.420 A  
HETATM   25  C   UNL     1     -12.002  11.884  63.862  1.00  0.00    -0.503 A  
HETATM   26  H   UNL     1      -8.485  12.816  65.323  1.00  0.00     0.000 HD 
HETATM   27  C   UNL     1     -13.058  12.621  64.410  1.00  0.00    -0.071 A  
BRANCH  22  28
HETATM   28  C   UNL     1      -9.604  11.133  63.909  1.00  0.00    -0.286 A  
HETATM   29  C   UNL     1      -9.645  10.377  62.729  1.00  0.00    -0.311 A  
HETATM   30  C   UNL     1      -8.612   9.484  62.412  1.00  0.00    -0.216 A  
HETATM   31  C   UNL     1      -7.502   9.362  63.251  1.00  0.00    -0.105 A  
HETATM   32  C   UNL     1      -7.427  10.131  64.410  1.00  0.00    -0.123 A  
HETATM   33  C   UNL     1      -8.491  10.963  64.752  1.00  0.00     0.045 A  
HETATM   34  C   UNL     1      -6.238  10.027  65.289  1.00  0.00    -0.106 C  
HETATM   35  O   UNL     1      -5.905  11.196  65.886  1.00  0.00    -0.132 OA 
HETATM   36  O   UNL     1      -5.606   9.001  65.428  1.00  0.00    -0.045 OA 
ENDBRANCH  22  28
ENDBRANCH  18  20
ENDBRANCH  16  18
ENDBRANCH   7  16
TORSDOF 5
ENDMDL
MODEL       91
REMARK 921   NORMALIZED FREE ENERGY PREDICTED BY IDOCK:   -6.63 KCAL/MOL
REMARK 922        TOTAL FREE ENERGY PREDICTED BY IDOCK:   -9.87 KCAL/MOL
REMARK 923 INTER-LIGAND FREE ENERGY PREDICTED BY IDOCK:   -8.56 KCAL/MOL
REMARK 924 INTRA-LIGAND FREE ENERGY PREDICTED BY IDOCK:   -1.31 KCAL/MOL
REMARK 927      BINDING AFFINITY PREDICTED BY RF-SCORE:    0.00 PKD
ROOT
HETATM    1  C   UNL     1      -7.984   3.814  71.885  1.00  0.00    -0.067 C  
HETATM    2  C   UNL     1      -8.585   4.402  70.663  1.00  0.00    -0.082 C  
HETATM    3  N   UNL     1      -8.089   4.413  69.460  1.00  0.00    -0.060 NA 
HETATM    4  N   UNL     1      -9.025   5.064  68.631  1.00  0.00    -0.104 N  
HETATM    5  O   UNL     1     -11.189   6.066  68.946  1.00  0.00    -0.344 OA 
HETATM    6  C   UNL     1     -10.173   5.490  69.282  1.00  0.00    -0.245 C  
HETATM    7  C   UNL     1      -9.901   5.087  70.689  1.00  0.00    -0.212 C  
ENDROOT
BRANCH   4   8
HETATM    8  C   UNL     1      -8.715   5.265  67.265  1.00  0.00    -0.107 A  
HETATM    9  C   UNL     1      -9.314   4.485  66.273  1.00  0.00    -0.151 A  
HETATM   10  C   UNL     1      -9.034   4.695  64.923  1.00  0.00    -0.153 A  
HETATM   11  C   UNL     1      -7.812   6.260  66.866  1.00  0.00    -0.104 A  
HETATM   12  C   UNL     1      -6.541   7.584  65.173  1.00  0.00    -0.044 C  
HETATM   13  C   UNL     1      -7.514   6.485  65.507  1.00  0.00    -0.083 A  
HETATM   14  C   UNL     1      -8.137   5.695  64.524  1.00  0.00    -0.131 A  
HETATM   15  C   UNL     1      -7.872   5.870  63.055  1.00  0.00    -0.098 C  
ENDBRANCH   4   8
BRANCH   7  16
HETATM   16  N   UNL     1     -10.610   5.283  71.755  1.00  0.00    -0.220 NA 
HETATM   17  H   UNL     1     -11.116   4.523  72.209  1.00  0.00     0.000 HD 
BRANCH  16  18
HETATM   18  N   UNL     1     -10.643   6.558  72.240  1.00  0.00    -0.207 NA 
HETATM   19  H   UNL     1      -9.870   6.907  72.805  1.00  0.00     0.000 HD 
BRANCH  18  20
HETATM   20  C   UNL     1     -11.745   7.398  71.963  1.00  0.00    -0.289 A  
HETATM   21  C   UNL     1     -11.584   8.774  71.705  1.00  0.00    -0.346 A  
HETATM   22  C   UNL     1     -12.651   9.618  71.339  1.00  0.00    -0.463 A  
HETATM   23  O   UNL     1     -10.315   9.307  71.816  1.00  0.00    -0.328 OA 
HETATM   24  C   UNL     1     -13.040   6.877  71.938  1.00  0.00    -0.239 A  
HETATM   25  C   UNL     1     -13.938   9.059  71.359  1.00  0.00    -0.275 A  
HETATM   26  H   UNL     1     -10.208  10.234  71.642  1.00  0.00     0.000 HD 
HETATM   27  C   UNL     1     -14.132   7.706  71.661  1.00  0.00    -0.547 A  
BRANCH  22  28
HETATM   28  C   UNL     1     -12.412  10.983  70.827  1.00  0.00    -0.491 A  
HETATM   29  C   UNL     1     -11.849  11.251  69.571  1.00  0.00    -0.427 A  
HETATM   30  C   UNL     1     -11.590  12.568  69.166  1.00  0.00    -0.375 A  
HETATM   31  C   UNL     1     -11.925  13.641  69.994  1.00  0.00    -0.413 A  
HETATM   32  C   UNL     1     -12.518  13.396  71.231  1.00  0.00    -0.368 A  
HETATM   33  C   UNL     1     -12.708  12.082  71.654  1.00  0.00    -0.326 A  
HETATM   34  C   UNL     1     -12.903  14.532  72.102  1.00  0.00    -0.339 C  
HETATM   35  O   UNL     1     -14.024  14.300  72.825  1.00  0.00    -0.600 OA 
HETATM   36  O   UNL     1     -12.292  15.579  72.133  1.00  0.00    -0.326 OA 
ENDBRANCH  22  28
ENDBRANCH  18  20
ENDBRANCH  16  18
ENDBRANCH   7  16
TORSDOF 5
ENDMDL
MODEL       92
REMARK 921   NORMALIZED FREE ENERGY PREDICTED BY IDOCK:   -6.59 KCAL/MOL
REMARK 922        TOTAL FREE ENERGY PREDICTED BY IDOCK:   -9.82 KCAL/MOL
REMARK 923 INTER-LIGAND FREE ENERGY PREDICTED BY IDOCK:   -8.81 KCAL/MOL
REMARK 924 INTRA-LIGAND FREE ENERGY PREDICTED BY IDOCK:   -1.01 KCAL/MOL
REMARK 927      BINDING AFFINITY PREDICTED BY RF-SCORE:    0.00 PKD
ROOT
HETATM    1  C   UNL     1     -12.485  14.277  71.231  1.00  0.00    -0.439 C  
HETATM    2  C   UNL     1     -11.689  14.735  70.066  1.00  0.00    -0.295 C  
HETATM    3  N   UNL     1     -11.119  15.893  69.899  1.00  0.00    -0.313 NA 
HETATM    4  N   UNL     1     -10.462  15.856  68.653  1.00  0.00    -0.231 N  
HETATM    5  O   UNL     1     -10.182  14.221  66.910  1.00  0.00    -0.260 OA 
HETATM    6  C   UNL     1     -10.584  14.654  67.973  1.00  0.00    -0.240 C  
HETATM    7  C   UNL     1     -11.448  13.863  68.891  1.00  0.00    -0.301 C  
ENDROOT
BRANCH   4   8
HETATM    8  C   UNL     1      -9.796  17.015  68.189  1.00  0.00    -0.273 A  
HETATM    9  C   UNL     1     -10.462  18.239  68.106  1.00  0.00    -0.359 A  
HETATM   10  C   UNL     1      -9.806  19.391  67.674  1.00  0.00    -0.450 A  
HETATM   11  C   UNL     1      -8.446  16.972  67.813  1.00  0.00    -0.199 A  
HETATM   12  C   UNL     1      -6.313  17.985  67.001  1.00  0.00    -0.194 C  
HETATM   13  C   UNL     1      -7.765  18.126  67.372  1.00  0.00    -0.223 A  
HETATM   14  C   UNL     1      -8.454  19.351  67.307  1.00  0.00    -0.325 A  
HETATM   15  C   UNL     1      -7.803  20.623  66.845  1.00  0.00    -0.265 C  
ENDBRANCH   4   8
BRANCH   7  16
HETATM   16  N   UNL     1     -11.937  12.672  68.743  1.00  0.00    -0.289 NA 
HETATM   17  H   UNL     1     -12.261  12.123  69.539  1.00  0.00     0.000 HD 
BRANCH  16  18
HETATM   18  N   UNL     1     -11.997  12.191  67.467  1.00  0.00    -0.553 NA 
HETATM   19  H   UNL     1     -12.651  12.600  66.800  1.00  0.00     0.000 HD 
BRANCH  18  20
HETATM   20  C   UNL     1     -11.157  11.129  67.065  1.00  0.00    -0.273 A  
HETATM   21  C   UNL     1     -10.867  10.046  67.918  1.00  0.00    -0.271 A  
HETATM   22  C   UNL     1     -10.107   8.930  67.515  1.00  0.00    -0.285 A  
HETATM   23  O   UNL     1     -11.360  10.091  69.207  1.00  0.00    -0.367 OA 
HETATM   24  C   UNL     1     -10.585  11.126  65.791  1.00  0.00    -0.289 A  
HETATM   25  C   UNL     1      -9.525   8.986  66.240  1.00  0.00    -0.306 A  
HETATM   26  H   UNL     1     -11.164   9.361  69.782  1.00  0.00     0.000 HD 
HETATM   27  C   UNL     1      -9.756  10.073  65.389  1.00  0.00    -0.368 A  
BRANCH  22  28
HETATM   28  C   UNL     1     -10.039   7.706  68.340  1.00  0.00    -0.208 A  
HETATM   29  C   UNL     1     -11.145   6.881  68.591  1.00  0.00    -0.152 A  
HETATM   30  C   UNL     1     -11.032   5.766  69.433  1.00  0.00    -0.352 A  
HETATM   31  C   UNL     1      -9.803   5.434  70.006  1.00  0.00    -0.274 A  
HETATM   32  C   UNL     1      -8.685   6.222  69.740  1.00  0.00    -0.137 A  
HETATM   33  C   UNL     1      -8.822   7.368  68.959  1.00  0.00    -0.132 A  
HETATM   34  C   UNL     1      -7.371   5.858  70.322  1.00  0.00    -0.080 C  
HETATM   35  O   UNL     1      -6.324   6.152  69.514  1.00  0.00    -0.034 OA 
HETATM   36  O   UNL     1      -7.252   5.318  71.401  1.00  0.00    -0.069 OA 
ENDBRANCH  22  28
ENDBRANCH  18  20
ENDBRANCH  16  18
ENDBRANCH   7  16
TORSDOF 5
ENDMDL
MODEL       93
REMARK 921   NORMALIZED FREE ENERGY PREDICTED BY IDOCK:   -6.52 KCAL/MOL
REMARK 922        TOTAL FREE ENERGY PREDICTED BY IDOCK:   -9.72 KCAL/MOL
REMARK 923 INTER-LIGAND FREE ENERGY PREDICTED BY IDOCK:   -8.20 KCAL/MOL
REMARK 924 INTRA-LIGAND FREE ENERGY PREDICTED BY IDOCK:   -1.53 KCAL/MOL
REMARK 927      BINDING AFFINITY PREDICTED BY RF-SCORE:    0.00 PKD
ROOT
HETATM    1  C   UNL     1      -8.228   9.094  70.534  1.00  0.00    -0.203 C  
HETATM    2  C   UNL     1      -9.294   9.894  69.881  1.00  0.00    -0.216 C  
HETATM    3  N   UNL     1      -9.152  10.818  68.976  1.00  0.00    -0.170 NA 
HETATM    4  N   UNL     1     -10.442  11.278  68.647  1.00  0.00    -0.196 N  
HETATM    5  O   UNL     1     -12.683  10.741  69.341  1.00  0.00    -0.261 OA 
HETATM    6  C   UNL     1     -11.471  10.648  69.333  1.00  0.00    -0.286 C  
HETATM    7  C   UNL     1     -10.727   9.712  70.218  1.00  0.00    -0.281 C  
ENDROOT
BRANCH   4   8
HETATM    8  C   UNL     1     -10.583  12.333  67.715  1.00  0.00    -0.219 A  
HETATM    9  C   UNL     1     -11.755  12.478  66.969  1.00  0.00    -0.437 A  
HETATM   10  C   UNL     1     -11.911  13.531  66.067  1.00  0.00    -0.449 A  
HETATM   11  C   UNL     1      -9.559  13.270  67.522  1.00  0.00    -0.218 A  
HETATM   12  C   UNL     1      -8.548  15.304  66.483  1.00  0.00    -0.264 C  
HETATM   13  C   UNL     1      -9.697  14.340  66.614  1.00  0.00    -0.297 A  
HETATM   14  C   UNL     1     -10.891  14.473  65.881  1.00  0.00    -0.308 A  
HETATM   15  C   UNL     1     -11.116  15.581  64.893  1.00  0.00    -0.428 C  
ENDBRANCH   4   8
BRANCH   7  16
HETATM   16  N   UNL     1     -11.174   8.902  71.126  1.00  0.00    -0.264 NA 
HETATM   17  H   UNL     1     -11.034   9.082  72.120  1.00  0.00     0.000 HD 
BRANCH  16  18
HETATM   18  N   UNL     1     -11.844   7.798  70.683  1.00  0.00    -0.465 NA 
HETATM   19  H   UNL     1     -12.863   7.795  70.669  1.00  0.00     0.000 HD 
BRANCH  18  20
HETATM   20  C   UNL     1     -11.132   6.661  70.243  1.00  0.00    -0.326 A  
HETATM   21  C   UNL     1     -10.868   6.430  68.879  1.00  0.00    -0.325 A  
HETATM   22  C   UNL     1     -10.084   5.354  68.417  1.00  0.00    -0.235 A  
HETATM   23  O   UNL     1     -11.404   7.311  67.961  1.00  0.00    -0.438 OA 
HETATM   24  C   UNL     1     -10.664   5.721  71.165  1.00  0.00    -0.327 A  
HETATM   25  C   UNL     1      -9.665   4.418  69.375  1.00  0.00    -0.267 A  
HETATM   26  H   UNL     1     -11.226   7.155  67.041  1.00  0.00     0.000 HD 
HETATM   27  C   UNL     1      -9.956   4.596  70.732  1.00  0.00    -0.284 A  
BRANCH  22  28
HETATM   28  C   UNL     1      -9.615   5.287  67.018  1.00  0.00    -0.150 A  
HETATM   29  C   UNL     1     -10.186   4.450  66.049  1.00  0.00    -0.246 A  
HETATM   30  C   UNL     1      -9.657   4.386  64.753  1.00  0.00    -0.145 A  
HETATM   31  C   UNL     1      -8.571   5.187  64.392  1.00  0.00    -0.118 A  
HETATM   32  C   UNL     1      -8.011   6.051  65.331  1.00  0.00    -0.118 A  
HETATM   33  C   UNL     1      -8.500   6.057  66.636  1.00  0.00    -0.112 A  
HETATM   34  C   UNL     1      -6.878   6.925  64.946  1.00  0.00    -0.050 C  
HETATM   35  O   UNL     1      -6.890   8.128  65.567  1.00  0.00    -0.061 OA 
HETATM   36  O   UNL     1      -6.043   6.603  64.127  1.00  0.00    -0.033 OA 
ENDBRANCH  22  28
ENDBRANCH  18  20
ENDBRANCH  16  18
ENDBRANCH   7  16
TORSDOF 5
ENDMDL
MODEL       94
REMARK 921   NORMALIZED FREE ENERGY PREDICTED BY IDOCK:   -6.51 KCAL/MOL
REMARK 922        TOTAL FREE ENERGY PREDICTED BY IDOCK:   -9.71 KCAL/MOL
REMARK 923 INTER-LIGAND FREE ENERGY PREDICTED BY IDOCK:   -8.82 KCAL/MOL
REMARK 924 INTRA-LIGAND FREE ENERGY PREDICTED BY IDOCK:   -0.89 KCAL/MOL
REMARK 927      BINDING AFFINITY PREDICTED BY RF-SCORE:    0.00 PKD
ROOT
HETATM    1  C   UNL     1      -7.076  11.440  66.405  1.00  0.00     0.000 C  
HETATM    2  C   UNL     1      -8.419  11.890  66.846  1.00  0.00    -0.174 C  
HETATM    3  N   UNL     1      -8.704  12.694  67.830  1.00  0.00    -0.168 NA 
HETATM    4  N   UNL     1     -10.105  12.841  67.851  1.00  0.00    -0.224 N  
HETATM    5  O   UNL     1     -11.939  11.997  66.542  1.00  0.00    -0.616 OA 
HETATM    6  C   UNL     1     -10.775  12.134  66.864  1.00  0.00    -0.236 C  
HETATM    7  C   UNL     1      -9.659  11.438  66.169  1.00  0.00    -0.218 C  
ENDROOT
BRANCH   4   8
HETATM    8  C   UNL     1     -10.701  13.630  68.864  1.00  0.00    -0.212 A  
HETATM    9  C   UNL     1     -10.204  14.898  69.170  1.00  0.00    -0.243 A  
HETATM   10  C   UNL     1     -10.801  15.692  70.149  1.00  0.00    -0.356 A  
HETATM   11  C   UNL     1     -11.814  13.168  69.580  1.00  0.00    -0.383 A  
HETATM   12  C   UNL     1     -13.629  13.380  71.282  1.00  0.00     0.008 C  
HETATM   13  C   UNL     1     -12.431  13.954  70.575  1.00  0.00    -0.422 A  
HETATM   14  C   UNL     1     -11.920  15.234  70.858  1.00  0.00    -0.391 A  
HETATM   15  C   UNL     1     -12.517  16.132  71.904  1.00  0.00    -0.377 C  
ENDBRANCH   4   8
BRANCH   7  16
HETATM   16  N   UNL     1      -9.697  10.588  65.191  1.00  0.00    -0.257 NA 
HETATM   17  H   UNL     1      -9.317  10.813  64.271  1.00  0.00     0.000 HD 
BRANCH  16  18
HETATM   18  N   UNL     1     -10.271   9.378  65.455  1.00  0.00    -0.239 NA 
HETATM   19  H   UNL     1     -11.095   9.083  64.933  1.00  0.00     0.000 HD 
BRANCH  18  20
HETATM   20  C   UNL     1      -9.728   8.533  66.448  1.00  0.00    -0.258 A  
HETATM   21  C   UNL     1     -10.313   8.414  67.724  1.00  0.00    -0.235 A  
HETATM   22  C   UNL     1      -9.848   7.514  68.704  1.00  0.00    -0.169 A  
HETATM   23  O   UNL     1     -11.395   9.221  68.015  1.00  0.00    -0.444 OA 
HETATM   24  C   UNL     1      -8.580   7.782  66.185  1.00  0.00    -0.164 A  
HETATM   25  C   UNL     1      -8.674   6.806  68.408  1.00  0.00    -0.123 A  
HETATM   26  H   UNL     1     -11.789   9.141  68.876  1.00  0.00     0.000 HD 
HETATM   27  C   UNL     1      -8.043   6.942  67.166  1.00  0.00    -0.117 A  
BRANCH  22  28
HETATM   28  C   UNL     1     -10.633   7.230  69.923  1.00  0.00    -0.244 A  
HETATM   29  C   UNL     1     -10.563   6.017  70.623  1.00  0.00    -0.322 A  
HETATM   30  C   UNL     1     -11.378   5.784  71.739  1.00  0.00    -0.240 A  
HETATM   31  C   UNL     1     -12.250   6.774  72.197  1.00  0.00    -0.260 A  
HETATM   32  C   UNL     1     -12.309   7.998  71.535  1.00  0.00    -0.335 A  
HETATM   33  C   UNL     1     -11.546   8.196  70.386  1.00  0.00    -0.063 A  
HETATM   34  C   UNL     1     -13.211   9.064  72.034  1.00  0.00    -0.429 C  
HETATM   35  O   UNL     1     -12.717  10.313  71.860  1.00  0.00    -0.415 OA 
HETATM   36  O   UNL     1     -14.270   8.833  72.577  1.00  0.00    -0.492 OA 
ENDBRANCH  22  28
ENDBRANCH  18  20
ENDBRANCH  16  18
ENDBRANCH   7  16
TORSDOF 5
ENDMDL
MODEL       95
REMARK 921   NORMALIZED FREE ENERGY PREDICTED BY IDOCK:   -6.50 KCAL/MOL
REMARK 922        TOTAL FREE ENERGY PREDICTED BY IDOCK:   -9.70 KCAL/MOL
REMARK 923 INTER-LIGAND FREE ENERGY PREDICTED BY IDOCK:   -8.11 KCAL/MOL
REMARK 924 INTRA-LIGAND FREE ENERGY PREDICTED BY IDOCK:   -1.58 KCAL/MOL
REMARK 927      BINDING AFFINITY PREDICTED BY RF-SCORE:    0.00 PKD
ROOT
HETATM    1  C   UNL     1      -8.365   8.679  70.817  1.00  0.00    -0.172 C  
HETATM    2  C   UNL     1      -9.351   9.532  70.109  1.00  0.00    -0.247 C  
HETATM    3  N   UNL     1      -9.110  10.474  69.243  1.00  0.00    -0.177 NA 
HETATM    4  N   UNL     1     -10.356  10.986  68.831  1.00  0.00    -0.199 N  
HETATM    5  O   UNL     1     -12.659  10.512  69.340  1.00  0.00    -0.212 OA 
HETATM    6  C   UNL     1     -11.454  10.377  69.420  1.00  0.00    -0.227 C  
HETATM    7  C   UNL     1     -10.811   9.392  70.332  1.00  0.00    -0.269 C  
ENDROOT
BRANCH   4   8
HETATM    8  C   UNL     1     -10.390  12.069  67.921  1.00  0.00    -0.197 A  
HETATM    9  C   UNL     1      -9.345  12.994  67.869  1.00  0.00    -0.212 A  
HETATM   10  C   UNL     1      -9.359  14.050  66.957  1.00  0.00    -0.256 A  
HETATM   11  C   UNL     1     -11.464  12.238  67.037  1.00  0.00    -0.419 A  
HETATM   12  C   UNL     1     -12.687  13.394  65.191  1.00  0.00    -0.459 C  
HETATM   13  C   UNL     1     -11.498  13.300  66.109  1.00  0.00    -0.359 A  
HETATM   14  C   UNL     1     -10.428  14.213  66.067  1.00  0.00    -0.308 A  
HETATM   15  C   UNL     1     -10.389  15.372  65.112  1.00  0.00    -0.405 C  
ENDBRANCH   4   8
BRANCH   7  16
HETATM   16  N   UNL     1     -11.353   8.577  71.181  1.00  0.00    -0.262 NA 
HETATM   17  H   UNL     1     -11.324   8.751  72.185  1.00  0.00     0.000 HD 
BRANCH  16  18
HETATM   18  N   UNL     1     -11.964   7.473  70.661  1.00  0.00    -0.491 NA 
HETATM   19  H   UNL     1     -12.981   7.441  70.592  1.00  0.00     0.000 HD 
BRANCH  18  20
HETATM   20  C   UNL     1     -11.196   6.373  70.219  1.00  0.00    -0.382 A  
HETATM   21  C   UNL     1     -10.916   6.162  68.855  1.00  0.00    -0.356 A  
HETATM   22  C   UNL     1     -10.079   5.127  68.392  1.00  0.00    -0.205 A  
HETATM   23  O   UNL     1     -11.490   7.020  67.938  1.00  0.00    -0.479 OA 
HETATM   24  C   UNL     1     -10.688   5.453  71.139  1.00  0.00    -0.239 A  
HETATM   25  C   UNL     1      -9.619   4.208  69.347  1.00  0.00    -0.265 A  
HETATM   26  H   UNL     1     -11.301   6.877  67.019  1.00  0.00     0.000 HD 
HETATM   27  C   UNL     1      -9.924   4.365  70.704  1.00  0.00    -0.254 A  
BRANCH  22  28
HETATM   28  C   UNL     1      -9.601   5.090  66.994  1.00  0.00    -0.163 A  
HETATM   29  C   UNL     1     -10.139   4.243  66.014  1.00  0.00    -0.217 A  
HETATM   30  C   UNL     1      -9.602   4.210  64.720  1.00  0.00    -0.176 A  
HETATM   31  C   UNL     1      -8.542   5.051  64.373  1.00  0.00    -0.135 A  
HETATM   32  C   UNL     1      -8.017   5.924  65.323  1.00  0.00    -0.115 A  
HETATM   33  C   UNL     1      -8.512   5.901  66.626  1.00  0.00    -0.111 A  
HETATM   34  C   UNL     1      -6.913   6.840  64.952  1.00  0.00    -0.055 C  
HETATM   35  O   UNL     1      -6.969   8.036  65.584  1.00  0.00    -0.061 OA 
HETATM   36  O   UNL     1      -6.063   6.555  64.134  1.00  0.00    -0.032 OA 
ENDBRANCH  22  28
ENDBRANCH  18  20
ENDBRANCH  16  18
ENDBRANCH   7  16
TORSDOF 5
ENDMDL
MODEL       96
REMARK 921   NORMALIZED FREE ENERGY PREDICTED BY IDOCK:   -6.47 KCAL/MOL
REMARK 922        TOTAL FREE ENERGY PREDICTED BY IDOCK:   -9.66 KCAL/MOL
REMARK 923 INTER-LIGAND FREE ENERGY PREDICTED BY IDOCK:   -8.82 KCAL/MOL
REMARK 924 INTRA-LIGAND FREE ENERGY PREDICTED BY IDOCK:   -0.84 KCAL/MOL
REMARK 927      BINDING AFFINITY PREDICTED BY RF-SCORE:    0.00 PKD
ROOT
HETATM    1  C   UNL     1     -11.995  14.201  66.664  1.00  0.00    -0.470 C  
HETATM    2  C   UNL     1     -10.815  14.907  67.222  1.00  0.00    -0.306 C  
HETATM    3  N   UNL     1     -10.392  16.102  66.928  1.00  0.00    -0.293 NA 
HETATM    4  N   UNL     1      -9.255  16.347  67.724  1.00  0.00    -0.200 N  
HETATM    5  O   UNL     1      -8.035  15.119  69.395  1.00  0.00    -0.202 OA 
HETATM    6  C   UNL     1      -8.911  15.306  68.572  1.00  0.00    -0.185 C  
HETATM    7  C   UNL     1      -9.936  14.280  68.238  1.00  0.00    -0.239 C  
ENDROOT
BRANCH   4   8
HETATM    8  C   UNL     1      -8.554  17.566  67.570  1.00  0.00    -0.221 A  
HETATM    9  C   UNL     1      -8.516  18.220  66.336  1.00  0.00    -0.266 A  
HETATM   10  C   UNL     1      -7.849  19.435  66.182  1.00  0.00    -0.317 A  
HETATM   11  C   UNL     1      -7.889  18.160  68.651  1.00  0.00    -0.307 A  
HETATM   12  C   UNL     1      -6.532  19.955  69.735  1.00  0.00    -0.391 C  
HETATM   13  C   UNL     1      -7.207  19.387  68.515  1.00  0.00    -0.356 A  
HETATM   14  C   UNL     1      -7.192  20.033  67.265  1.00  0.00    -0.286 A  
HETATM   15  C   UNL     1      -6.486  21.339  67.037  1.00  0.00    -0.395 C  
ENDBRANCH   4   8
BRANCH   7  16
HETATM   16  N   UNL     1     -10.071  13.071  68.686  1.00  0.00    -0.388 NA 
HETATM   17  H   UNL     1     -10.873  12.797  69.254  1.00  0.00     0.000 HD 
BRANCH  16  18
HETATM   18  N   UNL     1      -9.086  12.185  68.360  1.00  0.00    -0.283 NA 
HETATM   19  H   UNL     1      -8.109  12.429  68.524  1.00  0.00     0.000 HD 
BRANCH  18  20
HETATM   20  C   UNL     1      -9.411  10.933  67.794  1.00  0.00    -0.157 A  
HETATM   21  C   UNL     1      -9.345   9.740  68.541  1.00  0.00    -0.142 A  
HETATM   22  C   UNL     1      -9.748   8.489  68.032  1.00  0.00    -0.180 A  
HETATM   23  O   UNL     1      -8.864   9.814  69.833  1.00  0.00    -0.201 OA 
HETATM   24  C   UNL     1      -9.813  10.844  66.460  1.00  0.00    -0.245 A  
HETATM   25  C   UNL     1     -10.112   8.443  66.678  1.00  0.00    -0.358 A  
HETATM   26  H   UNL     1      -8.819   9.010  70.336  1.00  0.00     0.000 HD 
HETATM   27  C   UNL     1     -10.139   9.606  65.898  1.00  0.00    -0.304 A  
BRANCH  22  28
HETATM   28  C   UNL     1      -9.909   7.315  68.914  1.00  0.00    -0.158 A  
HETATM   29  C   UNL     1      -9.308   6.072  68.665  1.00  0.00    -0.121 A  
HETATM   30  C   UNL     1      -9.549   4.977  69.506  1.00  0.00    -0.237 A  
HETATM   31  C   UNL     1     -10.363   5.116  70.632  1.00  0.00    -0.305 A  
HETATM   32  C   UNL     1     -10.941   6.352  70.915  1.00  0.00    -0.335 A  
HETATM   33  C   UNL     1     -10.753   7.416  70.036  1.00  0.00    -0.258 A  
HETATM   34  C   UNL     1     -11.782   6.513  72.124  1.00  0.00    -0.311 C  
HETATM   35  O   UNL     1     -11.681   7.738  72.693  1.00  0.00    -0.349 OA 
HETATM   36  O   UNL     1     -12.466   5.620  72.578  1.00  0.00    -0.056 OA 
ENDBRANCH  22  28
ENDBRANCH  18  20
ENDBRANCH  16  18
ENDBRANCH   7  16
TORSDOF 5
ENDMDL
MODEL       97
REMARK 921   NORMALIZED FREE ENERGY PREDICTED BY IDOCK:   -6.46 KCAL/MOL
REMARK 922        TOTAL FREE ENERGY PREDICTED BY IDOCK:   -9.65 KCAL/MOL
REMARK 923 INTER-LIGAND FREE ENERGY PREDICTED BY IDOCK:   -8.42 KCAL/MOL
REMARK 924 INTRA-LIGAND FREE ENERGY PREDICTED BY IDOCK:   -1.23 KCAL/MOL
REMARK 927      BINDING AFFINITY PREDICTED BY RF-SCORE:    0.00 PKD
ROOT
HETATM    1  C   UNL     1      -7.242  11.343  66.527  1.00  0.00    -0.057 C  
HETATM    2  C   UNL     1      -8.649  11.666  66.872  1.00  0.00    -0.174 C  
HETATM    3  N   UNL     1      -9.128  11.973  68.042  1.00  0.00    -0.182 NA 
HETATM    4  N   UNL     1     -10.506  12.217  67.874  1.00  0.00    -0.203 N  
HETATM    5  O   UNL     1     -12.037  12.201  66.018  1.00  0.00    -0.612 OA 
HETATM    6  C   UNL     1     -10.961  12.080  66.571  1.00  0.00    -0.295 C  
HETATM    7  C   UNL     1      -9.725  11.669  65.851  1.00  0.00    -0.235 C  
ENDROOT
BRANCH   4   8
HETATM    8  C   UNL     1     -11.296  12.524  69.007  1.00  0.00    -0.290 A  
HETATM    9  C   UNL     1     -11.615  13.847  69.320  1.00  0.00    -0.358 A  
HETATM   10  C   UNL     1     -12.415  14.156  70.420  1.00  0.00    -0.424 A  
HETATM   11  C   UNL     1     -11.794  11.511  69.839  1.00  0.00    -0.430 A  
HETATM   12  C   UNL     1     -13.100  10.650  71.785  1.00  0.00    -0.571 C  
HETATM   13  C   UNL     1     -12.602  11.804  70.957  1.00  0.00    -0.409 A  
HETATM   14  C   UNL     1     -12.919  13.143  71.247  1.00  0.00    -0.339 A  
HETATM   15  C   UNL     1     -13.771  13.538  72.420  1.00  0.00    -0.704 C  
ENDBRANCH   4   8
BRANCH   7  16
HETATM   16  N   UNL     1      -9.563  11.347  64.607  1.00  0.00    -0.313 NA 
HETATM   17  H   UNL     1      -9.256  12.029  63.913  1.00  0.00     0.000 HD 
BRANCH  16  18
HETATM   18  N   UNL     1      -9.822  10.049  64.273  1.00  0.00    -0.419 NA 
HETATM   19  H   UNL     1     -10.688   9.813  63.789  1.00  0.00     0.000 HD 
BRANCH  18  20
HETATM   20  C   UNL     1      -8.898   9.031  64.596  1.00  0.00    -0.096 A  
HETATM   21  C   UNL     1      -9.147   8.098  65.621  1.00  0.00    -0.035 A  
HETATM   22  C   UNL     1      -8.287   7.019  65.906  1.00  0.00    -0.141 A  
HETATM   23  O   UNL     1     -10.295   8.258  66.373  1.00  0.00    -0.440 OA 
HETATM   24  C   UNL     1      -7.695   8.923  63.895  1.00  0.00    -0.129 A  
HETATM   25  C   UNL     1      -7.076   6.970  65.200  1.00  0.00    -0.060 A  
HETATM   26  H   UNL     1     -10.462   7.629  67.064  1.00  0.00     0.000 HD 
HETATM   27  C   UNL     1      -6.780   7.914  64.210  1.00  0.00    -0.060 A  
BRANCH  22  28
HETATM   28  C   UNL     1      -8.701   5.921  66.804  1.00  0.00    -0.117 A  
HETATM   29  C   UNL     1      -8.886   4.599  66.375  1.00  0.00    -0.112 A  
HETATM   30  C   UNL     1      -9.339   3.613  67.262  1.00  0.00    -0.235 A  
HETATM   31  C   UNL     1      -9.578   3.923  68.602  1.00  0.00    -0.181 A  
HETATM   32  C   UNL     1      -9.366   5.224  69.055  1.00  0.00    -0.171 A  
HETATM   33  C   UNL     1      -8.982   6.213  68.152  1.00  0.00    -0.114 A  
HETATM   34  C   UNL     1      -9.589   5.553  70.484  1.00  0.00    -0.173 C  
HETATM   35  O   UNL     1      -8.736   6.490  70.960  1.00  0.00    -0.137 OA 
HETATM   36  O   UNL     1     -10.431   5.007  71.165  1.00  0.00    -0.205 OA 
ENDBRANCH  22  28
ENDBRANCH  18  20
ENDBRANCH  16  18
ENDBRANCH   7  16
TORSDOF 5
ENDMDL
MODEL       98
REMARK 921   NORMALIZED FREE ENERGY PREDICTED BY IDOCK:   -6.45 KCAL/MOL
REMARK 922        TOTAL FREE ENERGY PREDICTED BY IDOCK:   -9.64 KCAL/MOL
REMARK 923 INTER-LIGAND FREE ENERGY PREDICTED BY IDOCK:   -8.17 KCAL/MOL
REMARK 924 INTRA-LIGAND FREE ENERGY PREDICTED BY IDOCK:   -1.48 KCAL/MOL
REMARK 927      BINDING AFFINITY PREDICTED BY RF-SCORE:    0.00 PKD
ROOT
HETATM    1  C   UNL     1     -14.345   8.536  72.499  1.00  0.00    -0.325 C  
HETATM    2  C   UNL     1     -13.275   9.241  71.752  1.00  0.00    -0.403 C  
HETATM    3  N   UNL     1     -13.363  10.376  71.120  1.00  0.00    -0.294 NA 
HETATM    4  N   UNL     1     -12.090  10.652  70.584  1.00  0.00    -0.332 N  
HETATM    5  O   UNL     1      -9.947   9.558  70.604  1.00  0.00    -0.263 OA 
HETATM    6  C   UNL     1     -11.126   9.695  70.865  1.00  0.00    -0.352 C  
HETATM    7  C   UNL     1     -11.903   8.688  71.638  1.00  0.00    -0.323 C  
ENDROOT
BRANCH   4   8
HETATM    8  C   UNL     1     -11.910  11.812  69.794  1.00  0.00    -0.349 A  
HETATM    9  C   UNL     1     -11.542  11.713  68.450  1.00  0.00    -0.376 A  
HETATM   10  C   UNL     1     -11.388  12.850  67.658  1.00  0.00    -0.349 A  
HETATM   11  C   UNL     1     -12.108  13.091  70.330  1.00  0.00    -0.391 A  
HETATM   12  C   UNL     1     -12.200  15.584  70.206  1.00  0.00    -0.432 C  
HETATM   13  C   UNL     1     -11.954  14.253  69.546  1.00  0.00    -0.384 A  
HETATM   14  C   UNL     1     -11.594  14.129  68.192  1.00  0.00    -0.365 A  
HETATM   15  C   UNL     1     -11.408  15.317  67.291  1.00  0.00    -0.269 C  
ENDBRANCH   4   8
BRANCH   7  16
HETATM   16  N   UNL     1     -11.527   7.544  72.116  1.00  0.00    -0.278 NA 
HETATM   17  H   UNL     1     -12.156   6.961  72.667  1.00  0.00     0.000 HD 
BRANCH  16  18
HETATM   18  N   UNL     1     -10.245   7.161  71.845  1.00  0.00    -0.190 NA 
HETATM   19  H   UNL     1      -9.466   7.737  72.161  1.00  0.00     0.000 HD 
BRANCH  18  20
HETATM   20  C   UNL     1      -9.993   5.970  71.129  1.00  0.00    -0.186 A  
HETATM   21  C   UNL     1      -9.936   5.947  69.721  1.00  0.00    -0.181 A  
HETATM   22  C   UNL     1      -9.599   4.795  68.983  1.00  0.00    -0.233 A  
HETATM   23  O   UNL     1     -10.223   7.116  69.045  1.00  0.00    -0.178 OA 
HETATM   24  C   UNL     1      -9.791   4.768  71.809  1.00  0.00    -0.242 A  
HETATM   25  C   UNL     1      -9.437   3.604  69.706  1.00  0.00    -0.254 A  
HETATM   26  H   UNL     1     -10.185   7.100  68.096  1.00  0.00     0.000 HD 
HETATM   27  C   UNL     1      -9.537   3.588  71.102  1.00  0.00    -0.240 A  
BRANCH  22  28
HETATM   28  C   UNL     1      -9.297   4.867  67.538  1.00  0.00    -0.148 A  
HETATM   29  C   UNL     1     -10.026   4.175  66.561  1.00  0.00    -0.165 A  
HETATM   30  C   UNL     1      -9.653   4.234  65.211  1.00  0.00    -0.186 A  
HETATM   31  C   UNL     1      -8.569   5.018  64.811  1.00  0.00    -0.150 A  
HETATM   32  C   UNL     1      -7.854   5.741  65.764  1.00  0.00    -0.102 A  
HETATM   33  C   UNL     1      -8.189   5.621  67.111  1.00  0.00    -0.101 A  
HETATM   34  C   UNL     1      -6.721   6.598  65.342  1.00  0.00    -0.050 C  
HETATM   35  O   UNL     1      -6.588   7.721  66.086  1.00  0.00    -0.048 OA 
HETATM   36  O   UNL     1      -6.006   6.333  64.398  1.00  0.00    -0.022 OA 
ENDBRANCH  22  28
ENDBRANCH  18  20
ENDBRANCH  16  18
ENDBRANCH   7  16
TORSDOF 5
ENDMDL
MODEL       99
REMARK 921   NORMALIZED FREE ENERGY PREDICTED BY IDOCK:   -6.45 KCAL/MOL
REMARK 922        TOTAL FREE ENERGY PREDICTED BY IDOCK:   -9.64 KCAL/MOL
REMARK 923 INTER-LIGAND FREE ENERGY PREDICTED BY IDOCK:   -7.82 KCAL/MOL
REMARK 924 INTRA-LIGAND FREE ENERGY PREDICTED BY IDOCK:   -1.81 KCAL/MOL
REMARK 927      BINDING AFFINITY PREDICTED BY RF-SCORE:    0.00 PKD
ROOT
HETATM    1  C   UNL     1      -8.389   7.041  65.366  1.00  0.00    -0.121 C  
HETATM    2  C   UNL     1      -9.074   7.427  66.624  1.00  0.00    -0.154 C  
HETATM    3  N   UNL     1      -9.018   6.824  67.776  1.00  0.00    -0.117 NA 
HETATM    4  N   UNL     1      -9.812   7.568  68.672  1.00  0.00    -0.162 N  
HETATM    5  O   UNL     1     -11.134   9.573  68.533  1.00  0.00    -0.120 OA 
HETATM    6  C   UNL     1     -10.405   8.693  68.119  1.00  0.00    -0.216 C  
HETATM    7  C   UNL     1      -9.953   8.619  66.703  1.00  0.00    -0.287 C  
ENDROOT
BRANCH   4   8
HETATM    8  C   UNL     1      -9.975   7.104  69.999  1.00  0.00    -0.179 A  
HETATM    9  C   UNL     1     -10.723   5.957  70.270  1.00  0.00    -0.383 A  
HETATM   10  C   UNL     1     -10.867   5.479  71.572  1.00  0.00    -0.263 A  
HETATM   11  C   UNL     1      -9.380   7.773  71.077  1.00  0.00    -0.160 A  
HETATM   12  C   UNL     1      -8.831   8.085  73.493  1.00  0.00    -0.333 C  
HETATM   13  C   UNL     1      -9.516   7.308  72.402  1.00  0.00    -0.178 A  
HETATM   14  C   UNL     1     -10.265   6.143  72.649  1.00  0.00    -0.202 A  
HETATM   15  C   UNL     1     -10.460   5.583  74.030  1.00  0.00    -0.308 C  
ENDBRANCH   4   8
BRANCH   7  16
HETATM   16  N   UNL     1     -10.247   9.387  65.701  1.00  0.00    -0.270 NA 
HETATM   17  H   UNL     1     -11.095   9.248  65.151  1.00  0.00     0.000 HD 
BRANCH  16  18
HETATM   18  N   UNL     1      -9.365  10.390  65.421  1.00  0.00    -0.188 NA 
HETATM   19  H   UNL     1      -8.941  10.449  64.496  1.00  0.00     0.000 HD 
BRANCH  18  20
HETATM   20  C   UNL     1      -9.038  11.348  66.406  1.00  0.00    -0.193 A  
HETATM   21  C   UNL     1     -10.017  12.169  66.999  1.00  0.00    -0.202 A  
HETATM   22  C   UNL     1      -9.735  13.070  68.046  1.00  0.00    -0.224 A  
HETATM   23  O   UNL     1     -11.310  12.075  66.526  1.00  0.00    -0.324 OA 
HETATM   24  C   UNL     1      -7.714  11.507  66.822  1.00  0.00    -0.136 A  
HETATM   25  C   UNL     1      -8.388  13.220  68.408  1.00  0.00    -0.131 A  
HETATM   26  H   UNL     1     -11.970  12.629  66.926  1.00  0.00     0.000 HD 
HETATM   27  C   UNL     1      -7.388  12.452  67.800  1.00  0.00    -0.123 A  
BRANCH  22  28
HETATM   28  C   UNL     1     -10.817  13.720  68.814  1.00  0.00    -0.281 A  
HETATM   29  C   UNL     1     -11.266  15.025  68.564  1.00  0.00    -0.298 A  
HETATM   30  C   UNL     1     -12.254  15.610  69.368  1.00  0.00    -0.201 A  
HETATM   31  C   UNL     1     -12.838  14.886  70.410  1.00  0.00    -0.327 A  
HETATM   32  C   UNL     1     -12.429  13.576  70.651  1.00  0.00    -0.405 A  
HETATM   33  C   UNL     1     -11.398  13.027  69.892  1.00  0.00    -0.037 A  
HETATM   34  C   UNL     1     -13.066  12.793  71.736  1.00  0.00    -0.356 C  
HETATM   35  O   UNL     1     -13.178  11.473  71.455  1.00  0.00    -0.372 OA 
HETATM   36  O   UNL     1     -13.479  13.296  72.760  1.00  0.00    -0.575 OA 
ENDBRANCH  22  28
ENDBRANCH  18  20
ENDBRANCH  16  18
ENDBRANCH   7  16
TORSDOF 5
ENDMDL
MODEL      100
REMARK 921   NORMALIZED FREE ENERGY PREDICTED BY IDOCK:   -6.44 KCAL/MOL
REMARK 922        TOTAL FREE ENERGY PREDICTED BY IDOCK:   -9.63 KCAL/MOL
REMARK 923 INTER-LIGAND FREE ENERGY PREDICTED BY IDOCK:   -7.91 KCAL/MOL
REMARK 924 INTRA-LIGAND FREE ENERGY PREDICTED BY IDOCK:   -1.72 KCAL/MOL
REMARK 927      BINDING AFFINITY PREDICTED BY RF-SCORE:    0.00 PKD
ROOT
HETATM    1  C   UNL     1     -11.514  11.799  69.303  1.00  0.00    -0.369 C  
HETATM    2  C   UNL     1     -11.093  10.393  69.088  1.00  0.00    -0.246 C  
HETATM    3  N   UNL     1     -10.861   9.486  69.992  1.00  0.00    -0.239 NA 
HETATM    4  N   UNL     1     -10.510   8.303  69.312  1.00  0.00    -0.219 N  
HETATM    5  O   UNL     1     -10.284   7.653  67.007  1.00  0.00    -0.243 OA 
HETATM    6  C   UNL     1     -10.514   8.410  67.930  1.00  0.00    -0.193 C  
HETATM    7  C   UNL     1     -10.877   9.839  67.729  1.00  0.00    -0.246 C  
ENDROOT
BRANCH   4   8
HETATM    8  C   UNL     1     -10.151   7.157  70.060  1.00  0.00    -0.188 A  
HETATM    9  C   UNL     1      -8.948   6.491  69.817  1.00  0.00    -0.142 A  
HETATM   10  C   UNL     1      -8.574   5.376  70.567  1.00  0.00    -0.125 A  
HETATM   11  C   UNL     1     -10.983   6.665  71.075  1.00  0.00    -0.305 A  
HETATM   12  C   UNL     1     -11.576   5.089  72.920  1.00  0.00    -0.261 C  
HETATM   13  C   UNL     1     -10.624   5.537  71.843  1.00  0.00    -0.293 A  
HETATM   14  C   UNL     1      -9.402   4.889  71.588  1.00  0.00    -0.192 A  
HETATM   15  C   UNL     1      -8.948   3.682  72.358  1.00  0.00    -0.132 C  
ENDBRANCH   4   8
BRANCH   7  16
HETATM   16  N   UNL     1     -10.976  10.520  66.631  1.00  0.00    -0.104 NA 
HETATM   17  H   UNL     1     -11.878  10.840  66.278  1.00  0.00     0.000 HD 
BRANCH  16  18
HETATM   18  N   UNL     1      -9.811  10.786  65.971  1.00  0.00    -0.225 NA 
HETATM   19  H   UNL     1      -9.576  10.266  65.126  1.00  0.00     0.000 HD 
BRANCH  18  20
HETATM   20  C   UNL     1      -8.929  11.779  66.452  1.00  0.00    -0.201 A  
HETATM   21  C   UNL     1      -9.339  13.116  66.626  1.00  0.00    -0.239 A  
HETATM   22  C   UNL     1      -8.510  14.108  67.188  1.00  0.00    -0.214 A  
HETATM   23  O   UNL     1     -10.616  13.456  66.229  1.00  0.00    -0.284 OA 
HETATM   24  C   UNL     1      -7.609  11.455  66.771  1.00  0.00    -0.143 A  
HETATM   25  C   UNL     1      -7.183  13.745  67.462  1.00  0.00    -0.173 A  
HETATM   26  H   UNL     1     -10.892  14.357  66.346  1.00  0.00     0.000 HD 
HETATM   27  C   UNL     1      -6.735  12.436  67.251  1.00  0.00    -0.133 A  
BRANCH  22  28
HETATM   28  C   UNL     1      -9.049  15.423  67.593  1.00  0.00    -0.183 A  
HETATM   29  C   UNL     1      -9.837  15.616  68.737  1.00  0.00    -0.213 A  
HETATM   30  C   UNL     1     -10.371  16.877  69.036  1.00  0.00    -0.333 A  
HETATM   31  C   UNL     1     -10.094  17.974  68.218  1.00  0.00    -0.390 A  
HETATM   32  C   UNL     1      -9.284  17.809  67.096  1.00  0.00    -0.253 A  
HETATM   33  C   UNL     1      -8.815  16.539  66.768  1.00  0.00    -0.255 A  
HETATM   34  C   UNL     1      -8.962  18.976  66.240  1.00  0.00    -0.279 C  
HETATM   35  O   UNL     1      -7.720  18.924  65.704  1.00  0.00    -0.478 OA 
HETATM   36  O   UNL     1      -9.727  19.901  66.069  1.00  0.00    -0.412 OA 
ENDBRANCH  22  28
ENDBRANCH  18  20
ENDBRANCH  16  18
ENDBRANCH   7  16
TORSDOF 5
ENDMDL
MODEL      101
REMARK 921   NORMALIZED FREE ENERGY PREDICTED BY IDOCK:   -6.44 KCAL/MOL
REMARK 922        TOTAL FREE ENERGY PREDICTED BY IDOCK:   -9.62 KCAL/MOL
REMARK 923 INTER-LIGAND FREE ENERGY PREDICTED BY IDOCK:   -8.33 KCAL/MOL
REMARK 924 INTRA-LIGAND FREE ENERGY PREDICTED BY IDOCK:   -1.29 KCAL/MOL
REMARK 927      BINDING AFFINITY PREDICTED BY RF-SCORE:    0.00 PKD
ROOT
HETATM    1  C   UNL     1     -11.066   6.377  66.771  1.00  0.00    -0.241 C  
HETATM    2  C   UNL     1     -10.157   7.209  67.598  1.00  0.00    -0.180 C  
HETATM    3  N   UNL     1      -9.766   6.985  68.819  1.00  0.00    -0.143 NA 
HETATM    4  N   UNL     1      -8.895   8.033  69.174  1.00  0.00    -0.144 N  
HETATM    5  O   UNL     1      -8.030   9.991  68.075  1.00  0.00    -0.100 OA 
HETATM    6  C   UNL     1      -8.687   8.973  68.176  1.00  0.00    -0.130 C  
HETATM    7  C   UNL     1      -9.561   8.466  67.084  1.00  0.00    -0.179 C  
ENDROOT
BRANCH   4   8
HETATM    8  C   UNL     1      -8.357   8.071  70.482  1.00  0.00    -0.123 A  
HETATM    9  C   UNL     1      -7.107   8.646  70.726  1.00  0.00    -0.061 A  
HETATM   10  C   UNL     1      -6.581   8.710  72.017  1.00  0.00    -0.079 A  
HETATM   11  C   UNL     1      -9.066   7.547  71.572  1.00  0.00    -0.146 A  
HETATM   12  C   UNL     1      -9.388   7.024  73.993  1.00  0.00    -0.273 C  
HETATM   13  C   UNL     1      -8.550   7.601  72.884  1.00  0.00    -0.190 A  
HETATM   14  C   UNL     1      -7.294   8.194  73.107  1.00  0.00    -0.164 A  
HETATM   15  C   UNL     1      -6.674   8.288  74.472  1.00  0.00    -0.167 C  
ENDBRANCH   4   8
BRANCH   7  16
HETATM   16  N   UNL     1      -9.809   8.978  65.920  1.00  0.00    -0.431 NA 
HETATM   17  H   UNL     1     -10.292   8.449  65.193  1.00  0.00     0.000 HD 
BRANCH  16  18
HETATM   18  N   UNL     1      -9.393  10.262  65.716  1.00  0.00    -0.174 NA 
HETATM   19  H   UNL     1      -8.396  10.468  65.650  1.00  0.00     0.000 HD 
BRANCH  18  20
HETATM   20  C   UNL     1     -10.335  11.307  65.597  1.00  0.00    -0.256 A  
HETATM   21  C   UNL     1     -10.434  12.332  66.558  1.00  0.00    -0.227 A  
HETATM   22  C   UNL     1     -11.301  13.435  66.421  1.00  0.00    -0.338 A  
HETATM   23  O   UNL     1      -9.635  12.243  67.680  1.00  0.00    -0.183 OA 
HETATM   24  C   UNL     1     -11.206  11.351  64.506  1.00  0.00    -0.251 A  
HETATM   25  C   UNL     1     -12.179  13.419  65.328  1.00  0.00    -0.478 A  
HETATM   26  H   UNL     1      -9.702  12.934  68.328  1.00  0.00     0.000 HD 
HETATM   27  C   UNL     1     -12.137  12.387  64.384  1.00  0.00    -0.505 A  
BRANCH  22  28
HETATM   28  C   UNL     1     -11.195  14.612  67.308  1.00  0.00    -0.344 A  
HETATM   29  C   UNL     1     -10.483  15.773  66.971  1.00  0.00    -0.309 A  
HETATM   30  C   UNL     1     -10.368  16.833  67.881  1.00  0.00    -0.319 A  
HETATM   31  C   UNL     1     -10.994  16.767  69.127  1.00  0.00    -0.223 A  
HETATM   32  C   UNL     1     -11.735  15.637  69.466  1.00  0.00    -0.382 A  
HETATM   33  C   UNL     1     -11.787  14.559  68.584  1.00  0.00    -0.355 A  
HETATM   34  C   UNL     1     -12.426  15.573  70.775  1.00  0.00    -0.440 C  
HETATM   35  O   UNL     1     -13.601  14.900  70.732  1.00  0.00    -0.323 OA 
HETATM   36  O   UNL     1     -11.997  16.105  71.777  1.00  0.00    -0.474 OA 
ENDBRANCH  22  28
ENDBRANCH  18  20
ENDBRANCH  16  18
ENDBRANCH   7  16
TORSDOF 5
ENDMDL
MODEL      102
REMARK 921   NORMALIZED FREE ENERGY PREDICTED BY IDOCK:   -6.41 KCAL/MOL
REMARK 922        TOTAL FREE ENERGY PREDICTED BY IDOCK:   -9.59 KCAL/MOL
REMARK 923 INTER-LIGAND FREE ENERGY PREDICTED BY IDOCK:   -8.06 KCAL/MOL
REMARK 924 INTRA-LIGAND FREE ENERGY PREDICTED BY IDOCK:   -1.53 KCAL/MOL
REMARK 927      BINDING AFFINITY PREDICTED BY RF-SCORE:    0.00 PKD
ROOT
HETATM    1  C   UNL     1      -7.746  11.207  68.523  1.00  0.00    -0.129 C  
HETATM    2  C   UNL     1      -8.050  10.028  67.676  1.00  0.00    -0.110 C  
HETATM    3  N   UNL     1      -8.260   8.803  68.065  1.00  0.00    -0.117 NA 
HETATM    4  N   UNL     1      -8.529   8.042  66.911  1.00  0.00    -0.122 N  
HETATM    5  O   UNL     1      -8.689   8.499  64.554  1.00  0.00    -0.094 OA 
HETATM    6  C   UNL     1      -8.511   8.764  65.726  1.00  0.00    -0.148 C  
HETATM    7  C   UNL     1      -8.152  10.129  66.200  1.00  0.00    -0.123 C  
ENDROOT
BRANCH   4   8
HETATM    8  C   UNL     1      -8.744   6.649  67.036  1.00  0.00    -0.113 A  
HETATM    9  C   UNL     1     -10.029   6.111  66.935  1.00  0.00    -0.211 A  
HETATM   10  C   UNL     1     -10.246   4.737  67.033  1.00  0.00    -0.205 A  
HETATM   11  C   UNL     1      -7.675   5.768  67.251  1.00  0.00    -0.101 A  
HETATM   12  C   UNL     1      -6.665   3.507  67.573  1.00  0.00    -0.042 C  
HETATM   13  C   UNL     1      -7.875   4.376  67.355  1.00  0.00    -0.096 A  
HETATM   14  C   UNL     1      -9.177   3.855  67.239  1.00  0.00    -0.200 A  
HETATM   15  C   UNL     1      -9.473   2.386  67.340  1.00  0.00    -0.045 C  
ENDBRANCH   4   8
BRANCH   7  16
HETATM   16  N   UNL     1      -7.938  11.209  65.518  1.00  0.00    -0.367 NA 
HETATM   17  H   UNL     1      -7.055  11.716  65.581  1.00  0.00     0.000 HD 
BRANCH  16  18
HETATM   18  N   UNL     1      -8.953  11.633  64.710  1.00  0.00    -0.383 NA 
HETATM   19  H   UNL     1      -8.910  11.458  63.707  1.00  0.00     0.000 HD 
BRANCH  18  20
HETATM   20  C   UNL     1     -10.063  12.314  65.257  1.00  0.00    -0.271 A  
HETATM   21  C   UNL     1      -9.910  13.346  66.204  1.00  0.00    -0.281 A  
HETATM   22  C   UNL     1     -10.990  14.102  66.700  1.00  0.00    -0.303 A  
HETATM   23  O   UNL     1      -8.635  13.622  66.655  1.00  0.00    -0.433 OA 
HETATM   24  C   UNL     1     -11.361  11.975  64.868  1.00  0.00    -0.366 A  
HETATM   25  C   UNL     1     -12.277  13.704  66.306  1.00  0.00    -0.484 A  
HETATM   26  H   UNL     1      -8.532  14.318  67.294  1.00  0.00     0.000 HD 
HETATM   27  C   UNL     1     -12.461  12.649  65.405  1.00  0.00    -0.421 A  
BRANCH  22  28
HETATM   28  C   UNL     1     -10.771  15.335  67.485  1.00  0.00    -0.285 A  
HETATM   29  C   UNL     1     -10.954  15.411  68.873  1.00  0.00    -0.261 A  
HETATM   30  C   UNL     1     -10.790  16.625  69.554  1.00  0.00    -0.285 A  
HETATM   31  C   UNL     1     -10.402  17.775  68.864  1.00  0.00    -0.300 A  
HETATM   32  C   UNL     1     -10.183  17.712  67.490  1.00  0.00    -0.348 A  
HETATM   33  C   UNL     1     -10.415  16.518  66.811  1.00  0.00    -0.269 A  
HETATM   34  C   UNL     1      -9.742  18.923  66.757  1.00  0.00    -0.327 C  
HETATM   35  O   UNL     1      -8.904  18.655  65.728  1.00  0.00    -0.409 OA 
HETATM   36  O   UNL     1     -10.074  20.045  67.073  1.00  0.00    -0.405 OA 
ENDBRANCH  22  28
ENDBRANCH  18  20
ENDBRANCH  16  18
ENDBRANCH   7  16
TORSDOF 5
ENDMDL
MODEL      103
REMARK 921   NORMALIZED FREE ENERGY PREDICTED BY IDOCK:   -6.40 KCAL/MOL
REMARK 922        TOTAL FREE ENERGY PREDICTED BY IDOCK:   -9.57 KCAL/MOL
REMARK 923 INTER-LIGAND FREE ENERGY PREDICTED BY IDOCK:   -8.12 KCAL/MOL
REMARK 924 INTRA-LIGAND FREE ENERGY PREDICTED BY IDOCK:   -1.45 KCAL/MOL
REMARK 927      BINDING AFFINITY PREDICTED BY RF-SCORE:    0.00 PKD
ROOT
HETATM    1  C   UNL     1     -13.764  13.316  71.924  1.00  0.00    -0.403 C  
HETATM    2  C   UNL     1     -12.991  12.098  71.577  1.00  0.00    -0.295 C  
HETATM    3  N   UNL     1     -13.094  10.914  72.107  1.00  0.00    -0.381 NA 
HETATM    4  N   UNL     1     -12.174  10.080  71.441  1.00  0.00    -0.390 N  
HETATM    5  O   UNL     1     -10.585  10.360  69.657  1.00  0.00    -0.229 OA 
HETATM    6  C   UNL     1     -11.445  10.707  70.442  1.00  0.00    -0.334 C  
HETATM    7  C   UNL     1     -11.949  12.105  70.521  1.00  0.00    -0.216 C  
ENDROOT
BRANCH   4   8
HETATM    8  C   UNL     1     -12.036   8.734  71.856  1.00  0.00    -0.363 A  
HETATM    9  C   UNL     1     -13.035   7.796  71.588  1.00  0.00    -0.374 A  
HETATM   10  C   UNL     1     -12.896   6.462  71.971  1.00  0.00     0.004 A  
HETATM   11  C   UNL     1     -10.889   8.299  72.535  1.00  0.00    -0.421 A  
HETATM   12  C   UNL     1      -9.459   6.579  73.645  1.00  0.00    -0.169 C  
HETATM   13  C   UNL     1     -10.730   6.955  72.932  1.00  0.00    -0.308 A  
HETATM   14  C   UNL     1     -11.745   6.026  72.641  1.00  0.00    -0.221 A  
HETATM   15  C   UNL     1     -11.654   4.578  73.032  1.00  0.00    -0.155 C  
ENDBRANCH   4   8
BRANCH   7  16
HETATM   16  N   UNL     1     -11.581  13.154  69.855  1.00  0.00    -0.501 NA 
HETATM   17  H   UNL     1     -10.825  13.757  70.180  1.00  0.00     0.000 HD 
BRANCH  16  18
HETATM   18  N   UNL     1     -12.256  13.410  68.697  1.00  0.00    -0.223 NA 
HETATM   19  H   UNL     1     -13.274  13.365  68.683  1.00  0.00     0.000 HD 
BRANCH  18  20
HETATM   20  C   UNL     1     -11.551  13.736  67.517  1.00  0.00    -0.354 A  
HETATM   21  C   UNL     1     -10.901  12.754  66.743  1.00  0.00    -0.264 A  
HETATM   22  C   UNL     1     -10.267  13.036  65.517  1.00  0.00    -0.296 A  
HETATM   23  O   UNL     1     -10.897  11.458  67.219  1.00  0.00    -0.232 OA 
HETATM   24  C   UNL     1     -11.479  15.061  67.083  1.00  0.00    -0.304 A  
HETATM   25  C   UNL     1     -10.191  14.384  65.137  1.00  0.00    -0.420 A  
HETATM   26  H   UNL     1     -10.459  10.796  66.697  1.00  0.00     0.000 HD 
HETATM   27  C   UNL     1     -10.784  15.387  65.913  1.00  0.00    -0.343 A  
BRANCH  22  28
HETATM   28  C   UNL     1      -9.826  11.954  64.612  1.00  0.00    -0.207 A  
HETATM   29  C   UNL     1     -10.596  11.480  63.541  1.00  0.00    -0.487 A  
HETATM   30  C   UNL     1     -10.150  10.409  62.755  1.00  0.00     0.219 A  
HETATM   31  C   UNL     1      -8.909   9.819  63.002  1.00  0.00    -0.255 A  
HETATM   32  C   UNL     1      -8.114  10.299  64.041  1.00  0.00    -0.137 A  
HETATM   33  C   UNL     1      -8.595  11.318  64.860  1.00  0.00     0.258 A  
HETATM   34  C   UNL     1      -6.783   9.697  64.289  1.00  0.00    -0.112 C  
HETATM   35  O   UNL     1      -5.862  10.587  64.729  1.00  0.00    -0.132 OA 
HETATM   36  O   UNL     1      -6.537   8.527  64.084  1.00  0.00    -0.071 OA 
ENDBRANCH  22  28
ENDBRANCH  18  20
ENDBRANCH  16  18
ENDBRANCH   7  16
TORSDOF 5
ENDMDL
MODEL      104
REMARK 921   NORMALIZED FREE ENERGY PREDICTED BY IDOCK:   -6.39 KCAL/MOL
REMARK 922        TOTAL FREE ENERGY PREDICTED BY IDOCK:   -9.56 KCAL/MOL
REMARK 923 INTER-LIGAND FREE ENERGY PREDICTED BY IDOCK:   -8.23 KCAL/MOL
REMARK 924 INTRA-LIGAND FREE ENERGY PREDICTED BY IDOCK:   -1.33 KCAL/MOL
REMARK 927      BINDING AFFINITY PREDICTED BY RF-SCORE:    0.00 PKD
ROOT
HETATM    1  C   UNL     1      -7.423  10.420  68.164  1.00  0.00    -0.090 C  
HETATM    2  C   UNL     1      -7.757   9.395  67.145  1.00  0.00    -0.091 C  
HETATM    3  N   UNL     1      -7.902   8.114  67.325  1.00  0.00    -0.104 NA 
HETATM    4  N   UNL     1      -8.236   7.556  66.075  1.00  0.00    -0.122 N  
HETATM    5  O   UNL     1      -8.585   8.410  63.853  1.00  0.00    -0.048 OA 
HETATM    6  C   UNL     1      -8.327   8.473  65.039  1.00  0.00    -0.165 C  
HETATM    7  C   UNL     1      -7.973   9.748  65.720  1.00  0.00    -0.116 C  
ENDROOT
BRANCH   4   8
HETATM    8  C   UNL     1      -8.402   6.155  65.967  1.00  0.00    -0.136 A  
HETATM    9  C   UNL     1      -9.131   5.444  66.922  1.00  0.00    -0.114 A  
HETATM   10  C   UNL     1      -9.320   4.067  66.809  1.00  0.00    -0.199 A  
HETATM   11  C   UNL     1      -7.852   5.441  64.893  1.00  0.00    -0.102 A  
HETATM   12  C   UNL     1      -7.413   3.370  63.568  1.00  0.00    -0.059 C  
HETATM   13  C   UNL     1      -8.030   4.048  64.762  1.00  0.00    -0.089 A  
HETATM   14  C   UNL     1      -8.778   3.355  65.731  1.00  0.00    -0.123 A  
HETATM   15  C   UNL     1      -9.012   1.872  65.666  1.00  0.00    -0.109 C  
ENDBRANCH   4   8
BRANCH   7  16
HETATM   16  N   UNL     1      -7.841  10.939  65.227  1.00  0.00    -0.359 NA 
HETATM   17  H   UNL     1      -7.107  11.572  65.544  1.00  0.00     0.000 HD 
BRANCH  16  18
HETATM   18  N   UNL     1      -8.734  11.302  64.261  1.00  0.00    -0.362 NA 
HETATM   19  H   UNL     1      -8.532  11.099  63.282  1.00  0.00     0.000 HD 
BRANCH  18  20
HETATM   20  C   UNL     1      -9.935  11.957  64.609  1.00  0.00    -0.230 A  
HETATM   21  C   UNL     1      -9.988  12.915  65.641  1.00  0.00    -0.235 A  
HETATM   22  C   UNL     1     -11.150  13.649  65.951  1.00  0.00    -0.289 A  
HETATM   23  O   UNL     1      -8.838  13.139  66.371  1.00  0.00    -0.436 OA 
HETATM   24  C   UNL     1     -11.120  11.666  63.929  1.00  0.00    -0.477 A  
HETATM   25  C   UNL     1     -12.323  13.299  65.266  1.00  0.00    -0.525 A  
HETATM   26  H   UNL     1      -8.874  13.785  67.067  1.00  0.00     0.000 HD 
HETATM   27  C   UNL     1     -12.310  12.316  64.270  1.00  0.00    -0.519 A  
BRANCH  22  28
HETATM   28  C   UNL     1     -11.104  14.818  66.854  1.00  0.00    -0.339 A  
HETATM   29  C   UNL     1     -10.554  16.055  66.490  1.00  0.00    -0.284 A  
HETATM   30  C   UNL     1     -10.484  17.109  67.412  1.00  0.00    -0.334 A  
HETATM   31  C   UNL     1     -10.997  16.955  68.701  1.00  0.00    -0.262 A  
HETATM   32  C   UNL     1     -11.578  15.744  69.071  1.00  0.00    -0.406 A  
HETATM   33  C   UNL     1     -11.582  14.681  68.171  1.00  0.00    -0.362 A  
HETATM   34  C   UNL     1     -12.152  15.585  70.428  1.00  0.00    -0.392 C  
HETATM   35  O   UNL     1     -13.244  14.786  70.462  1.00  0.00    -0.310 OA 
HETATM   36  O   UNL     1     -11.704  16.147  71.405  1.00  0.00    -0.443 OA 
ENDBRANCH  22  28
ENDBRANCH  18  20
ENDBRANCH  16  18
ENDBRANCH   7  16
TORSDOF 5
ENDMDL
MODEL      105
REMARK 921   NORMALIZED FREE ENERGY PREDICTED BY IDOCK:   -6.38 KCAL/MOL
REMARK 922        TOTAL FREE ENERGY PREDICTED BY IDOCK:   -9.55 KCAL/MOL
REMARK 923 INTER-LIGAND FREE ENERGY PREDICTED BY IDOCK:   -7.91 KCAL/MOL
REMARK 924 INTRA-LIGAND FREE ENERGY PREDICTED BY IDOCK:   -1.64 KCAL/MOL
REMARK 927      BINDING AFFINITY PREDICTED BY RF-SCORE:    0.00 PKD
ROOT
HETATM    1  C   UNL     1      -9.957   4.240  66.390  1.00  0.00    -0.223 C  
HETATM    2  C   UNL     1      -9.787   5.281  67.434  1.00  0.00    -0.160 C  
HETATM    3  N   UNL     1     -10.721   5.938  68.058  1.00  0.00    -0.261 NA 
HETATM    4  N   UNL     1     -10.081   6.801  68.970  1.00  0.00    -0.159 N  
HETATM    5  O   UNL     1      -7.800   7.266  69.579  1.00  0.00    -0.113 OA 
HETATM    6  C   UNL     1      -8.696   6.719  68.967  1.00  0.00    -0.130 C  
HETATM    7  C   UNL     1      -8.447   5.710  67.902  1.00  0.00    -0.102 C  
ENDROOT
BRANCH   4   8
HETATM    8  C   UNL     1     -10.863   7.682  69.753  1.00  0.00    -0.217 A  
HETATM    9  C   UNL     1     -10.549   9.041  69.832  1.00  0.00    -0.240 A  
HETATM   10  C   UNL     1     -11.331   9.920  70.581  1.00  0.00    -0.413 A  
HETATM   11  C   UNL     1     -11.982   7.222  70.461  1.00  0.00    -0.200 A  
HETATM   12  C   UNL     1     -13.972   7.512  71.941  1.00  0.00    -0.391 C  
HETATM   13  C   UNL     1     -12.783   8.095  71.226  1.00  0.00    -0.220 A  
HETATM   14  C   UNL     1     -12.455   9.462  71.281  1.00  0.00    -0.416 A  
HETATM   15  C   UNL     1     -13.254  10.456  72.075  1.00  0.00    -0.497 C  
ENDBRANCH   4   8
BRANCH   7  16
HETATM   16  N   UNL     1      -7.324   5.274  67.424  1.00  0.00    -0.081 NA 
HETATM   17  H   UNL     1      -6.789   4.543  67.894  1.00  0.00     0.000 HD 
BRANCH  16  18
HETATM   18  N   UNL     1      -6.894   5.842  66.260  1.00  0.00    -0.060 NA 
HETATM   19  H   UNL     1      -6.677   5.252  65.458  1.00  0.00     0.000 HD 
BRANCH  18  20
HETATM   20  C   UNL     1      -6.748   7.244  66.162  1.00  0.00    -0.053 A  
HETATM   21  C   UNL     1      -7.676   8.041  65.465  1.00  0.00    -0.093 A  
HETATM   22  C   UNL     1      -7.606   9.448  65.425  1.00  0.00    -0.100 A  
HETATM   23  O   UNL     1      -8.702   7.402  64.797  1.00  0.00    -0.361 OA 
HETATM   24  C   UNL     1      -5.661   7.883  66.763  1.00  0.00    -0.036 A  
HETATM   25  C   UNL     1      -6.481  10.043  66.013  1.00  0.00    -0.093 A  
HETATM   26  H   UNL     1      -9.328   7.940  64.327  1.00  0.00     0.000 HD 
HETATM   27  C   UNL     1      -5.516   9.271  66.669  1.00  0.00    -0.042 A  
BRANCH  22  28
HETATM   28  C   UNL     1      -8.728  10.260  64.910  1.00  0.00    -0.198 A  
HETATM   29  C   UNL     1      -8.965  10.474  63.544  1.00  0.00    -0.231 A  
HETATM   30  C   UNL     1     -10.010  11.305  63.119  1.00  0.00    -0.398 A  
HETATM   31  C   UNL     1     -10.859  11.906  64.050  1.00  0.00    -0.438 A  
HETATM   32  C   UNL     1     -10.660  11.679  65.410  1.00  0.00    -0.331 A  
HETATM   33  C   UNL     1      -9.578  10.907  65.826  1.00  0.00    -0.259 A  
HETATM   34  C   UNL     1     -11.577  12.290  66.402  1.00  0.00    -0.383 C  
HETATM   35  O   UNL     1     -11.788  11.513  67.491  1.00  0.00    -0.605 OA 
HETATM   36  O   UNL     1     -12.110  13.366  66.234  1.00  0.00    -0.403 OA 
ENDBRANCH  22  28
ENDBRANCH  18  20
ENDBRANCH  16  18
ENDBRANCH   7  16
TORSDOF 5
ENDMDL
MODEL      106
REMARK 921   NORMALIZED FREE ENERGY PREDICTED BY IDOCK:   -6.36 KCAL/MOL
REMARK 922        TOTAL FREE ENERGY PREDICTED BY IDOCK:   -9.53 KCAL/MOL
REMARK 923 INTER-LIGAND FREE ENERGY PREDICTED BY IDOCK:   -9.28 KCAL/MOL
REMARK 924 INTRA-LIGAND FREE ENERGY PREDICTED BY IDOCK:   -0.24 KCAL/MOL
REMARK 927      BINDING AFFINITY PREDICTED BY RF-SCORE:    0.00 PKD
ROOT
HETATM    1  C   UNL     1     -13.098  10.313  71.850  1.00  0.00    -0.568 C  
HETATM    2  C   UNL     1     -12.070   9.423  71.257  1.00  0.00    -0.345 C  
HETATM    3  N   UNL     1     -11.958   8.134  71.398  1.00  0.00    -0.293 NA 
HETATM    4  N   UNL     1     -10.846   7.729  70.633  1.00  0.00    -0.233 N  
HETATM    5  O   UNL     1      -9.245   8.832  69.216  1.00  0.00    -0.147 OA 
HETATM    6  C   UNL     1     -10.204   8.757  69.959  1.00  0.00    -0.198 C  
HETATM    7  C   UNL     1     -10.990   9.946  70.385  1.00  0.00    -0.318 C  
ENDROOT
BRANCH   4   8
HETATM    8  C   UNL     1     -10.458   6.368  70.646  1.00  0.00    -0.219 A  
HETATM    9  C   UNL     1     -10.450   5.637  71.837  1.00  0.00    -0.279 A  
HETATM   10  C   UNL     1     -10.093   4.289  71.854  1.00  0.00    -0.237 A  
HETATM   11  C   UNL     1     -10.085   5.710  69.467  1.00  0.00    -0.292 A  
HETATM   12  C   UNL     1      -9.344   3.723  68.147  1.00  0.00    -0.228 C  
HETATM   13  C   UNL     1      -9.719   4.348  69.464  1.00  0.00    -0.280 A  
HETATM   14  C   UNL     1      -9.729   3.629  70.674  1.00  0.00    -0.215 A  
HETATM   15  C   UNL     1      -9.350   2.178  70.756  1.00  0.00    -0.201 C  
ENDBRANCH   4   8
BRANCH   7  16
HETATM   16  N   UNL     1     -10.807  11.199  70.107  1.00  0.00    -0.415 NA 
HETATM   17  H   UNL     1      -9.872  11.597  70.019  1.00  0.00     0.000 HD 
BRANCH  16  18
HETATM   18  N   UNL     1     -11.930  11.957  69.937  1.00  0.00    -0.329 NA 
HETATM   19  H   UNL     1     -12.783  11.527  69.582  1.00  0.00     0.000 HD 
BRANCH  18  20
HETATM   20  C   UNL     1     -11.915  13.334  70.251  1.00  0.00    -0.300 A  
HETATM   21  C   UNL     1     -11.018  14.227  69.634  1.00  0.00    -0.119 A  
HETATM   22  C   UNL     1     -11.039  15.618  69.859  1.00  0.00    -0.323 A  
HETATM   23  O   UNL     1     -10.081  13.703  68.766  1.00  0.00    -0.340 OA 
HETATM   24  C   UNL     1     -12.804  13.851  71.195  1.00  0.00    -0.423 A  
HETATM   25  C   UNL     1     -11.925  16.088  70.840  1.00  0.00    -0.376 A  
HETATM   26  H   UNL     1      -9.476  14.306  68.350  1.00  0.00     0.000 HD 
HETATM   27  C   UNL     1     -12.794  15.215  71.505  1.00  0.00    -0.442 A  
BRANCH  22  28
HETATM   28  C   UNL     1     -10.266  16.548  69.010  1.00  0.00    -0.285 A  
HETATM   29  C   UNL     1     -10.843  17.345  68.011  1.00  0.00    -0.281 A  
HETATM   30  C   UNL     1     -10.048  18.162  67.196  1.00  0.00    -0.358 A  
HETATM   31  C   UNL     1      -8.667  18.226  67.392  1.00  0.00    -0.257 A  
HETATM   32  C   UNL     1      -8.080  17.468  68.403  1.00  0.00    -0.266 A  
HETATM   33  C   UNL     1      -8.868  16.607  69.162  1.00  0.00    -0.136 A  
HETATM   34  C   UNL     1      -6.619  17.555  68.635  1.00  0.00    -0.206 C  
HETATM   35  O   UNL     1      -6.271  17.430  69.938  1.00  0.00    -0.232 OA 
HETATM   36  O   UNL     1      -5.818  17.755  67.746  1.00  0.00    -0.143 OA 
ENDBRANCH  22  28
ENDBRANCH  18  20
ENDBRANCH  16  18
ENDBRANCH   7  16
TORSDOF 5
ENDMDL
MODEL      107
REMARK 921   NORMALIZED FREE ENERGY PREDICTED BY IDOCK:   -6.34 KCAL/MOL
REMARK 922        TOTAL FREE ENERGY PREDICTED BY IDOCK:   -9.49 KCAL/MOL
REMARK 923 INTER-LIGAND FREE ENERGY PREDICTED BY IDOCK:   -8.11 KCAL/MOL
REMARK 924 INTRA-LIGAND FREE ENERGY PREDICTED BY IDOCK:   -1.38 KCAL/MOL
REMARK 927      BINDING AFFINITY PREDICTED BY RF-SCORE:    0.00 PKD
ROOT
HETATM    1  C   UNL     1     -10.355  12.025  69.131  1.00  0.00     0.055 C  
HETATM    2  C   UNL     1     -10.465  13.196  68.226  1.00  0.00    -0.250 C  
HETATM    3  N   UNL     1      -9.881  14.352  68.348  1.00  0.00    -0.228 NA 
HETATM    4  N   UNL     1     -10.270  15.133  67.241  1.00  0.00    -0.241 N  
HETATM    5  O   UNL     1     -11.666  14.796  65.311  1.00  0.00    -0.351 OA 
HETATM    6  C   UNL     1     -11.121  14.491  66.354  1.00  0.00    -0.331 C  
HETATM    7  C   UNL     1     -11.311  13.167  67.007  1.00  0.00    -0.312 C  
ENDROOT
BRANCH   4   8
HETATM    8  C   UNL     1      -9.818  16.470  67.147  1.00  0.00    -0.255 A  
HETATM    9  C   UNL     1     -10.577  17.521  67.666  1.00  0.00    -0.355 A  
HETATM   10  C   UNL     1     -10.127  18.839  67.600  1.00  0.00    -0.415 A  
HETATM   11  C   UNL     1      -8.592  16.779  66.542  1.00  0.00    -0.312 A  
HETATM   12  C   UNL     1      -6.786  18.340  65.807  1.00  0.00    -0.310 C  
HETATM   13  C   UNL     1      -8.120  18.106  66.463  1.00  0.00    -0.295 A  
HETATM   14  C   UNL     1      -8.897  19.147  67.004  1.00  0.00    -0.318 A  
HETATM   15  C   UNL     1      -8.468  20.586  66.957  1.00  0.00    -0.313 C  
ENDBRANCH   4   8
BRANCH   7  16
HETATM   16  N   UNL     1     -12.058  12.170  66.651  1.00  0.00    -0.578 NA 
HETATM   17  H   UNL     1     -12.618  11.652  67.327  1.00  0.00     0.000 HD 
BRANCH  16  18
HETATM   18  N   UNL     1     -12.057  11.850  65.324  1.00  0.00    -0.313 NA 
HETATM   19  H   UNL     1     -12.891  12.017  64.761  1.00  0.00     0.000 HD 
BRANCH  18  20
HETATM   20  C   UNL     1     -10.907  11.290  64.726  1.00  0.00    -0.244 A  
HETATM   21  C   UNL     1     -10.139  10.301  65.373  1.00  0.00    -0.284 A  
HETATM   22  C   UNL     1      -9.041   9.660  64.766  1.00  0.00    -0.283 A  
HETATM   23  O   UNL     1     -10.493   9.951  66.660  1.00  0.00    -0.221 OA 
HETATM   24  C   UNL     1     -10.496  11.708  63.458  1.00  0.00    -0.498 A  
HETATM   25  C   UNL     1      -8.645  10.136  63.507  1.00  0.00    -0.201 A  
HETATM   26  H   UNL     1      -9.975   9.285  67.096  1.00  0.00     0.000 HD 
HETATM   27  C   UNL     1      -9.360  11.152  62.863  1.00  0.00    -0.385 A  
BRANCH  22  28
HETATM   28  C   UNL     1      -8.424   8.458  65.365  1.00  0.00    -0.193 A  
HETATM   29  C   UNL     1      -7.137   8.446  65.923  1.00  0.00    -0.072 A  
HETATM   30  C   UNL     1      -6.582   7.259  66.421  1.00  0.00    -0.053 A  
HETATM   31  C   UNL     1      -7.319   6.073  66.405  1.00  0.00    -0.081 A  
HETATM   32  C   UNL     1      -8.612   6.073  65.886  1.00  0.00    -0.150 A  
HETATM   33  C   UNL     1      -9.129   7.241  65.330  1.00  0.00     0.271 A  
HETATM   34  C   UNL     1      -9.409   4.824  65.893  1.00  0.00    -0.159 C  
HETATM   35  O   UNL     1     -10.734   5.031  66.081  1.00  0.00    -0.315 OA 
HETATM   36  O   UNL     1      -8.915   3.722  65.778  1.00  0.00    -0.123 OA 
ENDBRANCH  22  28
ENDBRANCH  18  20
ENDBRANCH  16  18
ENDBRANCH   7  16
TORSDOF 5
ENDMDL
MODEL      108
REMARK 921   NORMALIZED FREE ENERGY PREDICTED BY IDOCK:   -6.33 KCAL/MOL
REMARK 922        TOTAL FREE ENERGY PREDICTED BY IDOCK:   -9.49 KCAL/MOL
REMARK 923 INTER-LIGAND FREE ENERGY PREDICTED BY IDOCK:   -8.53 KCAL/MOL
REMARK 924 INTRA-LIGAND FREE ENERGY PREDICTED BY IDOCK:   -0.96 KCAL/MOL
REMARK 927      BINDING AFFINITY PREDICTED BY RF-SCORE:    0.00 PKD
ROOT
HETATM    1  C   UNL     1      -6.881   4.725  65.496  1.00  0.00    -0.061 C  
HETATM    2  C   UNL     1      -7.809   5.380  66.450  1.00  0.00    -0.100 C  
HETATM    3  N   UNL     1      -8.024   5.062  67.694  1.00  0.00    -0.095 NA 
HETATM    4  N   UNL     1      -8.969   5.978  68.198  1.00  0.00    -0.114 N  
HETATM    5  O   UNL     1     -10.163   7.871  67.315  1.00  0.00    -0.217 OA 
HETATM    6  C   UNL     1      -9.391   6.933  67.284  1.00  0.00    -0.135 C  
HETATM    7  C   UNL     1      -8.645   6.541  66.058  1.00  0.00    -0.148 C  
ENDROOT
BRANCH   4   8
HETATM    8  C   UNL     1      -9.430   5.833  69.528  1.00  0.00    -0.135 A  
HETATM    9  C   UNL     1      -9.692   4.569  70.060  1.00  0.00    -0.283 A  
HETATM   10  C   UNL     1     -10.123   4.415  71.378  1.00  0.00    -0.210 A  
HETATM   11  C   UNL     1      -9.624   6.949  70.353  1.00  0.00    -0.171 A  
HETATM   12  C   UNL     1     -10.229   8.070  72.501  1.00  0.00    -0.361 C  
HETATM   13  C   UNL     1     -10.061   6.815  71.687  1.00  0.00    -0.197 A  
HETATM   14  C   UNL     1     -10.308   5.530  72.206  1.00  0.00    -0.257 A  
HETATM   15  C   UNL     1     -10.778   5.302  73.614  1.00  0.00    -0.343 C  
ENDBRANCH   4   8
BRANCH   7  16
HETATM   16  N   UNL     1      -8.690   7.048  64.867  1.00  0.00    -0.352 NA 
HETATM   17  H   UNL     1      -9.351   6.713  64.166  1.00  0.00     0.000 HD 
BRANCH  16  18
HETATM   18  N   UNL     1      -7.808   8.055  64.598  1.00  0.00    -0.133 NA 
HETATM   19  H   UNL     1      -7.060   7.907  63.922  1.00  0.00     0.000 HD 
BRANCH  18  20
HETATM   20  C   UNL     1      -7.927   9.301  65.253  1.00  0.00    -0.107 A  
HETATM   21  C   UNL     1      -8.919  10.236  64.900  1.00  0.00    -0.201 A  
HETATM   22  C   UNL     1      -9.119  11.446  65.592  1.00  0.00    -0.173 A  
HETATM   23  O   UNL     1      -9.732   9.937  63.824  1.00  0.00    -0.456 OA 
HETATM   24  C   UNL     1      -7.048   9.642  66.284  1.00  0.00    -0.093 A  
HETATM   25  C   UNL     1      -8.192  11.762  66.597  1.00  0.00    -0.117 A  
HETATM   26  H   UNL     1     -10.401  10.568  63.586  1.00  0.00     0.000 HD 
HETATM   27  C   UNL     1      -7.165  10.874  66.936  1.00  0.00    -0.124 A  
BRANCH  22  28
HETATM   28  C   UNL     1     -10.321  12.275  65.364  1.00  0.00    -0.298 A  
HETATM   29  C   UNL     1     -11.625  11.761  65.356  1.00  0.00    -0.190 A  
HETATM   30  C   UNL     1     -12.721  12.587  65.073  1.00  0.00    -0.302 A  
HETATM   31  C   UNL     1     -12.535  13.950  64.831  1.00  0.00    -0.420 A  
HETATM   32  C   UNL     1     -11.250  14.486  64.869  1.00  0.00    -0.395 A  
HETATM   33  C   UNL     1     -10.160  13.645  65.083  1.00  0.00    -0.298 A  
HETATM   34  C   UNL     1     -11.049  15.937  64.642  1.00  0.00    -0.354 C  
HETATM   35  O   UNL     1     -10.032  16.460  65.367  1.00  0.00    -0.534 OA 
HETATM   36  O   UNL     1     -11.753  16.595  63.906  1.00  0.00    -1.153 OA 
ENDBRANCH  22  28
ENDBRANCH  18  20
ENDBRANCH  16  18
ENDBRANCH   7  16
TORSDOF 5
ENDMDL
MODEL      109
REMARK 921   NORMALIZED FREE ENERGY PREDICTED BY IDOCK:   -6.33 KCAL/MOL
REMARK 922        TOTAL FREE ENERGY PREDICTED BY IDOCK:   -9.48 KCAL/MOL
REMARK 923 INTER-LIGAND FREE ENERGY PREDICTED BY IDOCK:   -8.36 KCAL/MOL
REMARK 924 INTRA-LIGAND FREE ENERGY PREDICTED BY IDOCK:   -1.11 KCAL/MOL
REMARK 927      BINDING AFFINITY PREDICTED BY RF-SCORE:    0.00 PKD
ROOT
HETATM    1  C   UNL     1      -8.443  12.062  68.540  1.00  0.00    -0.098 C  
HETATM    2  C   UNL     1      -9.062  13.394  68.328  1.00  0.00    -0.181 C  
HETATM    3  N   UNL     1      -8.456  14.525  68.110  1.00  0.00    -0.149 NA 
HETATM    4  N   UNL     1      -9.455  15.506  67.950  1.00  0.00    -0.200 N  
HETATM    5  O   UNL     1     -11.861  15.523  67.975  1.00  0.00    -0.277 OA 
HETATM    6  C   UNL     1     -10.753  15.028  68.052  1.00  0.00    -0.262 C  
HETATM    7  C   UNL     1     -10.532  13.586  68.345  1.00  0.00    -0.246 C  
ENDROOT
BRANCH   4   8
HETATM    8  C   UNL     1      -9.074  16.854  67.751  1.00  0.00    -0.229 A  
HETATM    9  C   UNL     1      -7.936  17.375  68.371  1.00  0.00    -0.259 A  
HETATM   10  C   UNL     1      -7.539  18.695  68.160  1.00  0.00    -0.292 A  
HETATM   11  C   UNL     1      -9.817  17.701  66.918  1.00  0.00    -0.306 A  
HETATM   12  C   UNL     1     -10.287  19.870  65.773  1.00  0.00    -0.512 C  
HETATM   13  C   UNL     1      -9.434  19.040  66.694  1.00  0.00    -0.375 A  
HETATM   14  C   UNL     1      -8.277  19.540  67.320  1.00  0.00    -0.321 A  
HETATM   15  C   UNL     1      -7.803  20.953  67.135  1.00  0.00    -0.219 C  
ENDBRANCH   4   8
BRANCH   7  16
HETATM   16  N   UNL     1     -11.396  12.653  68.595  1.00  0.00    -0.268 NA 
HETATM   17  H   UNL     1     -11.662  12.410  69.549  1.00  0.00     0.000 HD 
BRANCH  16  18
HETATM   18  N   UNL     1     -11.931  12.011  67.515  1.00  0.00    -0.578 NA 
HETATM   19  H   UNL     1     -12.907  12.167  67.266  1.00  0.00     0.000 HD 
BRANCH  18  20
HETATM   20  C   UNL     1     -11.139  11.134  66.742  1.00  0.00    -0.214 A  
HETATM   21  C   UNL     1     -10.726   9.879  67.230  1.00  0.00    -0.238 A  
HETATM   22  C   UNL     1     -10.013   8.946  66.452  1.00  0.00    -0.354 A  
HETATM   23  O   UNL     1     -11.046   9.558  68.535  1.00  0.00    -0.449 OA 
HETATM   24  C   UNL     1     -10.740  11.495  65.453  1.00  0.00    -0.335 A  
HETATM   25  C   UNL     1      -9.605   9.365  65.177  1.00  0.00    -0.195 A  
HETATM   26  H   UNL     1     -10.767   8.712  68.864  1.00  0.00     0.000 HD 
HETATM   27  C   UNL     1      -9.959  10.626  64.684  1.00  0.00    -0.401 A  
BRANCH  22  28
HETATM   28  C   UNL     1      -9.823   7.551  66.903  1.00  0.00    -0.295 A  
HETATM   29  C   UNL     1     -10.831   6.578  66.850  1.00  0.00    -0.427 A  
HETATM   30  C   UNL     1     -10.609   5.287  67.350  1.00  0.00    -0.168 A  
HETATM   31  C   UNL     1      -9.364   4.937  67.875  1.00  0.00    -0.155 A  
HETATM   32  C   UNL     1      -8.339   5.881  67.904  1.00  0.00    -0.111 A  
HETATM   33  C   UNL     1      -8.590   7.181  67.469  1.00  0.00    -0.122 A  
HETATM   34  C   UNL     1      -7.006   5.507  68.433  1.00  0.00    -0.064 C  
HETATM   35  O   UNL     1      -5.982   6.126  67.800  1.00  0.00    -0.015 OA 
HETATM   36  O   UNL     1      -6.851   4.697  69.322  1.00  0.00    -0.047 OA 
ENDBRANCH  22  28
ENDBRANCH  18  20
ENDBRANCH  16  18
ENDBRANCH   7  16
TORSDOF 5
ENDMDL
MODEL      110
REMARK 921   NORMALIZED FREE ENERGY PREDICTED BY IDOCK:   -6.30 KCAL/MOL
REMARK 922        TOTAL FREE ENERGY PREDICTED BY IDOCK:   -9.45 KCAL/MOL
REMARK 923 INTER-LIGAND FREE ENERGY PREDICTED BY IDOCK:   -8.94 KCAL/MOL
REMARK 924 INTRA-LIGAND FREE ENERGY PREDICTED BY IDOCK:   -0.50 KCAL/MOL
REMARK 927      BINDING AFFINITY PREDICTED BY RF-SCORE:    0.00 PKD
ROOT
HETATM    1  C   UNL     1     -11.829  12.449  65.531  1.00  0.00    -0.469 C  
HETATM    2  C   UNL     1     -10.902  13.433  66.141  1.00  0.00    -0.281 C  
HETATM    3  N   UNL     1     -10.985  14.732  66.104  1.00  0.00    -0.327 NA 
HETATM    4  N   UNL     1      -9.894  15.238  66.838  1.00  0.00    -0.231 N  
HETATM    5  O   UNL     1      -8.060  14.280  68.066  1.00  0.00    -0.125 OA 
HETATM    6  C   UNL     1      -9.068  14.268  67.386  1.00  0.00    -0.196 C  
HETATM    7  C   UNL     1      -9.702  13.011  66.905  1.00  0.00    -0.238 C  
ENDROOT
BRANCH   4   8
HETATM    8  C   UNL     1      -9.706  16.638  66.919  1.00  0.00    -0.254 A  
HETATM    9  C   UNL     1     -10.611  17.443  67.614  1.00  0.00    -0.350 A  
HETATM   10  C   UNL     1     -10.420  18.821  67.720  1.00  0.00    -0.479 A  
HETATM   11  C   UNL     1      -8.602  17.257  66.317  1.00  0.00    -0.264 A  
HETATM   12  C   UNL     1      -7.171  19.221  65.743  1.00  0.00    -0.289 C  
HETATM   13  C   UNL     1      -8.392  18.648  66.411  1.00  0.00    -0.292 A  
HETATM   14  C   UNL     1      -9.311  19.438  67.126  1.00  0.00    -0.390 A  
HETATM   15  C   UNL     1      -9.160  20.925  67.270  1.00  0.00    -0.236 C  
ENDBRANCH   4   8
BRANCH   7  16
HETATM   16  N   UNL     1      -9.324  11.782  67.065  1.00  0.00    -0.180 NA 
HETATM   17  H   UNL     1      -9.972  11.003  66.949  1.00  0.00     0.000 HD 
BRANCH  16  18
HETATM   18  N   UNL     1      -8.015  11.584  67.396  1.00  0.00    -0.136 NA 
HETATM   19  H   UNL     1      -7.290  12.153  66.961  1.00  0.00     0.000 HD 
BRANCH  18  20
HETATM   20  C   UNL     1      -7.660  10.594  68.339  1.00  0.00    -0.100 A  
HETATM   21  C   UNL     1      -8.494  10.270  69.427  1.00  0.00    -0.160 A  
HETATM   22  C   UNL     1      -8.209   9.228  70.332  1.00  0.00    -0.199 A  
HETATM   23  O   UNL     1      -9.645  11.013  69.601  1.00  0.00    -0.395 OA 
HETATM   24  C   UNL     1      -6.453   9.903  68.215  1.00  0.00    -0.055 A  
HETATM   25  C   UNL     1      -6.971   8.583  70.188  1.00  0.00    -0.043 A  
HETATM   26  H   UNL     1     -10.207  10.794  70.335  1.00  0.00     0.000 HD 
HETATM   27  C   UNL     1      -6.100   8.920  69.145  1.00  0.00    -0.042 A  
BRANCH  22  28
HETATM   28  C   UNL     1      -9.220   8.748  71.296  1.00  0.00    -0.309 A  
HETATM   29  C   UNL     1      -8.919   7.910  72.380  1.00  0.00    -0.219 A  
HETATM   30  C   UNL     1      -9.932   7.438  73.226  1.00  0.00    -0.341 A  
HETATM   31  C   UNL     1     -11.258   7.826  73.025  1.00  0.00    -0.380 A  
HETATM   32  C   UNL     1     -11.573   8.685  71.974  1.00  0.00    -0.440 A  
HETATM   33  C   UNL     1     -10.570   9.094  71.098  1.00  0.00    -0.379 A  
HETATM   34  C   UNL     1     -12.974   9.124  71.774  1.00  0.00    -0.380 C  
HETATM   35  O   UNL     1     -13.081  10.389  71.303  1.00  0.00    -0.378 OA 
HETATM   36  O   UNL     1     -13.930   8.427  72.042  1.00  0.00    -0.385 OA 
ENDBRANCH  22  28
ENDBRANCH  18  20
ENDBRANCH  16  18
ENDBRANCH   7  16
TORSDOF 5
ENDMDL
MODEL      111
REMARK 921   NORMALIZED FREE ENERGY PREDICTED BY IDOCK:   -6.28 KCAL/MOL
REMARK 922        TOTAL FREE ENERGY PREDICTED BY IDOCK:   -9.42 KCAL/MOL
REMARK 923 INTER-LIGAND FREE ENERGY PREDICTED BY IDOCK:   -8.25 KCAL/MOL
REMARK 924 INTRA-LIGAND FREE ENERGY PREDICTED BY IDOCK:   -1.17 KCAL/MOL
REMARK 927      BINDING AFFINITY PREDICTED BY RF-SCORE:    0.00 PKD
ROOT
HETATM    1  C   UNL     1     -11.069   6.374  66.773  1.00  0.00    -0.241 C  
HETATM    2  C   UNL     1     -10.160   7.204  67.601  1.00  0.00    -0.180 C  
HETATM    3  N   UNL     1      -9.785   6.988  68.829  1.00  0.00    -0.143 NA 
HETATM    4  N   UNL     1      -8.907   8.031  69.183  1.00  0.00    -0.144 N  
HETATM    5  O   UNL     1      -8.008   9.968  68.075  1.00  0.00    -0.100 OA 
HETATM    6  C   UNL     1      -8.677   8.958  68.178  1.00  0.00    -0.134 C  
HETATM    7  C   UNL     1      -9.545   8.449  67.081  1.00  0.00    -0.179 C  
ENDROOT
BRANCH   4   8
HETATM    8  C   UNL     1      -8.383   8.076  70.497  1.00  0.00    -0.123 A  
HETATM    9  C   UNL     1      -7.126   8.631  70.748  1.00  0.00    -0.061 A  
HETATM   10  C   UNL     1      -6.614   8.703  72.043  1.00  0.00    -0.079 A  
HETATM   11  C   UNL     1      -9.113   7.579  71.585  1.00  0.00    -0.149 A  
HETATM   12  C   UNL     1      -9.473   7.092  74.008  1.00  0.00    -0.303 C  
HETATM   13  C   UNL     1      -8.611   7.640  72.902  1.00  0.00    -0.190 A  
HETATM   14  C   UNL     1      -7.348   8.214  73.132  1.00  0.00    -0.164 A  
HETATM   15  C   UNL     1      -6.741   8.315  74.503  1.00  0.00    -0.167 C  
ENDBRANCH   4   8
BRANCH   7  16
HETATM   16  N   UNL     1      -9.775   8.952  65.910  1.00  0.00    -0.423 NA 
HETATM   17  H   UNL     1     -10.257   8.422  65.184  1.00  0.00     0.000 HD 
BRANCH  16  18
HETATM   18  N   UNL     1      -9.339  10.228  65.697  1.00  0.00    -0.178 NA 
HETATM   19  H   UNL     1      -8.339  10.419  65.636  1.00  0.00     0.000 HD 
BRANCH  18  20
HETATM   20  C   UNL     1     -10.266  11.285  65.560  1.00  0.00    -0.260 A  
HETATM   21  C   UNL     1     -10.363  12.317  66.514  1.00  0.00    -0.227 A  
HETATM   22  C   UNL     1     -11.213  13.430  66.361  1.00  0.00    -0.323 A  
HETATM   23  O   UNL     1      -9.578  12.223  67.647  1.00  0.00    -0.183 OA 
HETATM   24  C   UNL     1     -11.123  11.334  64.459  1.00  0.00    -0.245 A  
HETATM   25  C   UNL     1     -12.079  13.419  65.257  1.00  0.00    -0.446 A  
HETATM   26  H   UNL     1      -9.644  12.919  68.290  1.00  0.00     0.000 HD 
HETATM   27  C   UNL     1     -12.039  12.381  64.320  1.00  0.00    -0.516 A  
BRANCH  22  28
HETATM   28  C   UNL     1     -11.102  14.611  67.243  1.00  0.00    -0.331 A  
HETATM   29  C   UNL     1     -11.385  14.580  68.616  1.00  0.00    -0.300 A  
HETATM   30  C   UNL     1     -11.321  15.748  69.388  1.00  0.00    -0.348 A  
HETATM   31  C   UNL     1     -10.935  16.959  68.808  1.00  0.00    -0.234 A  
HETATM   32  C   UNL     1     -10.616  17.002  67.453  1.00  0.00    -0.289 A  
HETATM   33  C   UNL     1     -10.750  15.851  66.679  1.00  0.00    -0.270 A  
HETATM   34  C   UNL     1     -10.177  18.277  66.839  1.00  0.00    -0.375 C  
HETATM   35  O   UNL     1      -9.258  18.115  65.858  1.00  0.00    -0.514 OA 
HETATM   36  O   UNL     1     -10.578  19.361  67.206  1.00  0.00    -0.432 OA 
ENDBRANCH  22  28
ENDBRANCH  18  20
ENDBRANCH  16  18
ENDBRANCH   7  16
TORSDOF 5
ENDMDL
MODEL      112
REMARK 921   NORMALIZED FREE ENERGY PREDICTED BY IDOCK:   -6.25 KCAL/MOL
REMARK 922        TOTAL FREE ENERGY PREDICTED BY IDOCK:   -9.38 KCAL/MOL
REMARK 923 INTER-LIGAND FREE ENERGY PREDICTED BY IDOCK:   -9.10 KCAL/MOL
REMARK 924 INTRA-LIGAND FREE ENERGY PREDICTED BY IDOCK:   -0.28 KCAL/MOL
REMARK 927      BINDING AFFINITY PREDICTED BY RF-SCORE:    0.00 PKD
ROOT
HETATM    1  C   UNL     1     -10.277  20.194  66.497  1.00  0.00    -0.558 C  
HETATM    2  C   UNL     1      -9.936  18.779  66.208  1.00  0.00    -0.385 C  
HETATM    3  N   UNL     1     -10.731  17.844  65.774  1.00  0.00    -0.423 NA 
HETATM    4  N   UNL     1      -9.956  16.676  65.631  1.00  0.00    -0.229 N  
HETATM    5  O   UNL     1      -7.646  16.097  65.977  1.00  0.00     0.168 OA 
HETATM    6  C   UNL     1      -8.618  16.827  65.964  1.00  0.00    -0.178 C  
HETATM    7  C   UNL     1      -8.564  18.249  66.399  1.00  0.00    -0.242 C  
ENDROOT
BRANCH   4   8
HETATM    8  C   UNL     1     -10.584  15.476  65.219  1.00  0.00    -0.424 A  
HETATM    9  C   UNL     1     -11.749  15.506  64.450  1.00  0.00    -0.243 A  
HETATM   10  C   UNL     1     -12.360  14.328  64.019  1.00  0.00    -0.283 A  
HETATM   11  C   UNL     1     -10.049  14.226  65.558  1.00  0.00    -0.370 A  
HETATM   12  C   UNL     1      -9.999  11.729  65.536  1.00  0.00    -0.273 C  
HETATM   13  C   UNL     1     -10.653  13.024  65.134  1.00  0.00    -0.327 A  
HETATM   14  C   UNL     1     -11.820  13.078  64.350  1.00  0.00    -0.443 A  
HETATM   15  C   UNL     1     -12.525  11.845  63.861  1.00  0.00    -0.478 C  
ENDBRANCH   4   8
BRANCH   7  16
HETATM   16  N   UNL     1      -7.570  18.930  66.875  1.00  0.00    -0.225 NA 
HETATM   17  H   UNL     1      -7.036  19.575  66.293  1.00  0.00     0.000 HD 
BRANCH  16  18
HETATM   18  N   UNL     1      -7.274  18.739  68.194  1.00  0.00    -0.246 NA 
HETATM   19  H   UNL     1      -6.941  19.521  68.757  1.00  0.00     0.000 HD 
BRANCH  18  20
HETATM   20  C   UNL     1      -7.427  17.465  68.782  1.00  0.00    -0.258 A  
HETATM   21  C   UNL     1      -8.687  16.977  69.183  1.00  0.00    -0.032 A  
HETATM   22  C   UNL     1      -8.883  15.677  69.690  1.00  0.00    -0.115 A  
HETATM   23  O   UNL     1      -9.773  17.822  69.064  1.00  0.00    -0.271 OA 
HETATM   24  C   UNL     1      -6.316  16.644  68.985  1.00  0.00    -0.183 A  
HETATM   25  C   UNL     1      -7.735  14.901  69.907  1.00  0.00     0.116 A  
HETATM   26  H   UNL     1     -10.621  17.493  69.335  1.00  0.00     0.000 HD 
HETATM   27  C   UNL     1      -6.465  15.380  69.564  1.00  0.00    -0.158 A  
BRANCH  22  28
HETATM   28  C   UNL     1     -10.239  15.112  69.855  1.00  0.00    -0.178 A  
HETATM   29  C   UNL     1     -10.845  14.268  68.913  1.00  0.00    -0.272 A  
HETATM   30  C   UNL     1     -12.158  13.813  69.098  1.00  0.00    -0.374 A  
HETATM   31  C   UNL     1     -12.872  14.161  70.246  1.00  0.00    -0.183 A  
HETATM   32  C   UNL     1     -12.274  14.970  71.209  1.00  0.00    -0.380 A  
HETATM   33  C   UNL     1     -10.994  15.475  70.985  1.00  0.00    -0.314 A  
HETATM   34  C   UNL     1     -13.016  15.319  72.444  1.00  0.00    -0.380 C  
HETATM   35  O   UNL     1     -12.224  15.428  73.537  1.00  0.00    -0.441 OA 
HETATM   36  O   UNL     1     -14.221  15.457  72.475  1.00  0.00    -0.523 OA 
ENDBRANCH  22  28
ENDBRANCH  18  20
ENDBRANCH  16  18
ENDBRANCH   7  16
TORSDOF 5
ENDMDL
MODEL      113
REMARK 921   NORMALIZED FREE ENERGY PREDICTED BY IDOCK:   -6.24 KCAL/MOL
REMARK 922        TOTAL FREE ENERGY PREDICTED BY IDOCK:   -9.37 KCAL/MOL
REMARK 923 INTER-LIGAND FREE ENERGY PREDICTED BY IDOCK:   -8.18 KCAL/MOL
REMARK 924 INTRA-LIGAND FREE ENERGY PREDICTED BY IDOCK:   -1.19 KCAL/MOL
REMARK 927      BINDING AFFINITY PREDICTED BY RF-SCORE:    0.00 PKD
ROOT
HETATM    1  C   UNL     1     -12.759  12.508  64.339  1.00  0.00    -0.447 C  
HETATM    2  C   UNL     1     -11.804  13.248  65.201  1.00  0.00    -0.348 C  
HETATM    3  N   UNL     1     -11.390  14.474  65.058  1.00  0.00    -0.359 NA 
HETATM    4  N   UNL     1     -10.510  14.741  66.125  1.00  0.00    -0.293 N  
HETATM    5  O   UNL     1      -9.687  13.508  68.020  1.00  0.00    -0.214 OA 
HETATM    6  C   UNL     1     -10.333  13.685  67.006  1.00  0.00    -0.260 C  
HETATM    7  C   UNL     1     -11.177  12.624  66.392  1.00  0.00    -0.305 C  
ENDROOT
BRANCH   4   8
HETATM    8  C   UNL     1      -9.865  15.999  66.189  1.00  0.00    -0.325 A  
HETATM    9  C   UNL     1      -8.472  16.088  66.224  1.00  0.00    -0.337 A  
HETATM   10  C   UNL     1      -7.828  17.325  66.261  1.00  0.00    -0.344 A  
HETATM   11  C   UNL     1     -10.602  17.191  66.206  1.00  0.00    -0.185 A  
HETATM   12  C   UNL     1     -10.844  19.676  66.248  1.00  0.00    -0.432 C  
HETATM   13  C   UNL     1      -9.970  18.451  66.246  1.00  0.00    -0.378 A  
HETATM   14  C   UNL     1      -8.565  18.517  66.269  1.00  0.00    -0.223 A  
HETATM   15  C   UNL     1      -7.815  19.818  66.315  1.00  0.00    -0.340 C  
ENDBRANCH   4   8
BRANCH   7  16
HETATM   16  N   UNL     1     -11.352  11.393  66.757  1.00  0.00    -0.405 NA 
HETATM   17  H   UNL     1     -12.134  11.116  67.351  1.00  0.00     0.000 HD 
BRANCH  16  18
HETATM   18  N   UNL     1     -10.435  10.487  66.308  1.00  0.00    -0.215 NA 
HETATM   19  H   UNL     1     -10.378  10.275  65.312  1.00  0.00     0.000 HD 
BRANCH  18  20
HETATM   20  C   UNL     1      -9.567   9.840  67.214  1.00  0.00    -0.157 A  
HETATM   21  C   UNL     1      -9.913   8.625  67.838  1.00  0.00    -0.188 A  
HETATM   22  C   UNL     1      -9.034   7.912  68.676  1.00  0.00    -0.134 A  
HETATM   23  O   UNL     1     -11.176   8.118  67.604  1.00  0.00    -0.379 OA 
HETATM   24  C   UNL     1      -8.324  10.398  67.520  1.00  0.00    -0.114 A  
HETATM   25  C   UNL     1      -7.810   8.526  68.981  1.00  0.00    -0.104 A  
HETATM   26  H   UNL     1     -11.410   7.299  68.025  1.00  0.00     0.000 HD 
HETATM   27  C   UNL     1      -7.461   9.758  68.415  1.00  0.00    -0.083 A  
BRANCH  22  28
HETATM   28  C   UNL     1      -9.328   6.527  69.101  1.00  0.00    -0.133 A  
HETATM   29  C   UNL     1      -9.765   6.191  70.391  1.00  0.00    -0.199 A  
HETATM   30  C   UNL     1      -9.969   4.852  70.753  1.00  0.00    -0.292 A  
HETATM   31  C   UNL     1      -9.777   3.830  69.820  1.00  0.00    -0.193 A  
HETATM   32  C   UNL     1      -9.376   4.148  68.524  1.00  0.00    -0.216 A  
HETATM   33  C   UNL     1      -9.109   5.475  68.193  1.00  0.00    -0.111 A  
HETATM   34  C   UNL     1      -9.200   3.070  67.522  1.00  0.00    -0.193 C  
HETATM   35  O   UNL     1      -9.533   3.444  66.264  1.00  0.00    -0.173 OA 
HETATM   36  O   UNL     1      -8.827   1.953  67.811  1.00  0.00    -0.097 OA 
ENDBRANCH  22  28
ENDBRANCH  18  20
ENDBRANCH  16  18
ENDBRANCH   7  16
TORSDOF 5
ENDMDL
MODEL      114
REMARK 921   NORMALIZED FREE ENERGY PREDICTED BY IDOCK:   -6.23 KCAL/MOL
REMARK 922        TOTAL FREE ENERGY PREDICTED BY IDOCK:   -9.36 KCAL/MOL
REMARK 923 INTER-LIGAND FREE ENERGY PREDICTED BY IDOCK:   -8.21 KCAL/MOL
REMARK 924 INTRA-LIGAND FREE ENERGY PREDICTED BY IDOCK:   -1.15 KCAL/MOL
REMARK 927      BINDING AFFINITY PREDICTED BY RF-SCORE:    0.00 PKD
ROOT
HETATM    1  C   UNL     1      -9.888   5.111  69.710  1.00  0.00    -0.283 C  
HETATM    2  C   UNL     1      -9.868   6.553  70.058  1.00  0.00    -0.165 C  
HETATM    3  N   UNL     1     -10.879   7.307  70.383  1.00  0.00    -0.240 NA 
HETATM    4  N   UNL     1     -10.369   8.593  70.646  1.00  0.00    -0.196 N  
HETATM    5  O   UNL     1      -8.188   9.609  70.640  1.00  0.00    -0.234 OA 
HETATM    6  C   UNL     1      -8.994   8.709  70.507  1.00  0.00    -0.164 C  
HETATM    7  C   UNL     1      -8.610   7.339  70.070  1.00  0.00    -0.140 C  
ENDROOT
BRANCH   4   8
HETATM    8  C   UNL     1     -11.266   9.637  70.975  1.00  0.00    -0.375 A  
HETATM    9  C   UNL     1     -12.228   9.467  71.972  1.00  0.00    -0.370 A  
HETATM   10  C   UNL     1     -13.099  10.500  72.320  1.00  0.00    -0.242 A  
HETATM   11  C   UNL     1     -11.206  10.876  70.321  1.00  0.00    -0.271 A  
HETATM   12  C   UNL     1     -11.932  13.229  69.908  1.00  0.00    -0.400 C  
HETATM   13  C   UNL     1     -12.079  11.932  70.656  1.00  0.00    -0.389 A  
HETATM   14  C   UNL     1     -13.034  11.741  71.672  1.00  0.00    -0.467 A  
HETATM   15  C   UNL     1     -14.001  12.813  72.086  1.00  0.00    -0.186 C  
ENDBRANCH   4   8
BRANCH   7  16
HETATM   16  N   UNL     1      -7.447   6.875  69.736  1.00  0.00    -0.092 NA 
HETATM   17  H   UNL     1      -7.014   6.101  70.239  1.00  0.00     0.000 HD 
BRANCH  16  18
HETATM   18  N   UNL     1      -6.832   7.475  68.675  1.00  0.00    -0.064 NA 
HETATM   19  H   UNL     1      -5.984   8.021  68.823  1.00  0.00     0.000 HD 
BRANCH  18  20
HETATM   20  C   UNL     1      -7.365   7.344  67.374  1.00  0.00    -0.102 A  
HETATM   21  C   UNL     1      -8.116   8.372  66.770  1.00  0.00    -0.098 A  
HETATM   22  C   UNL     1      -8.583   8.306  65.443  1.00  0.00    -0.176 A  
HETATM   23  O   UNL     1      -8.396   9.493  67.525  1.00  0.00    -0.123 OA 
HETATM   24  C   UNL     1      -7.157   6.173  66.641  1.00  0.00    -0.072 A  
HETATM   25  C   UNL     1      -8.380   7.099  64.758  1.00  0.00     0.014 A  
HETATM   26  H   UNL     1      -8.903  10.186  67.118  1.00  0.00     0.000 HD 
HETATM   27  C   UNL     1      -7.681   6.042  65.351  1.00  0.00    -0.091 A  
BRANCH  22  28
HETATM   28  C   UNL     1      -9.137   9.495  64.762  1.00  0.00    -0.271 A  
HETATM   29  C   UNL     1      -8.919   9.782  63.406  1.00  0.00    -0.271 A  
HETATM   30  C   UNL     1      -9.420  10.958  62.832  1.00  0.00    -0.377 A  
HETATM   31  C   UNL     1     -10.181  11.848  63.593  1.00  0.00    -0.466 A  
HETATM   32  C   UNL     1     -10.438  11.563  64.932  1.00  0.00    -0.345 A  
HETATM   33  C   UNL     1      -9.878  10.426  65.513  1.00  0.00    -0.332 A  
HETATM   34  C   UNL     1     -11.270  12.488  65.737  1.00  0.00    -0.320 C  
HETATM   35  O   UNL     1     -12.032  11.861  66.664  1.00  0.00    -0.601 OA 
HETATM   36  O   UNL     1     -11.289  13.687  65.556  1.00  0.00    -0.296 OA 
ENDBRANCH  22  28
ENDBRANCH  18  20
ENDBRANCH  16  18
ENDBRANCH   7  16
TORSDOF 5
ENDMDL
MODEL      115
REMARK 921   NORMALIZED FREE ENERGY PREDICTED BY IDOCK:   -6.22 KCAL/MOL
REMARK 922        TOTAL FREE ENERGY PREDICTED BY IDOCK:   -9.34 KCAL/MOL
REMARK 923 INTER-LIGAND FREE ENERGY PREDICTED BY IDOCK:   -7.96 KCAL/MOL
REMARK 924 INTRA-LIGAND FREE ENERGY PREDICTED BY IDOCK:   -1.38 KCAL/MOL
REMARK 927      BINDING AFFINITY PREDICTED BY RF-SCORE:    0.00 PKD
ROOT
HETATM    1  C   UNL     1      -6.513  10.568  68.047  1.00  0.00    -0.059 C  
HETATM    2  C   UNL     1      -7.527   9.554  68.426  1.00  0.00    -0.077 C  
HETATM    3  N   UNL     1      -7.464   8.265  68.256  1.00  0.00    -0.095 NA 
HETATM    4  N   UNL     1      -8.647   7.718  68.791  1.00  0.00    -0.129 N  
HETATM    5  O   UNL     1     -10.603   8.597  69.881  1.00  0.00    -0.219 OA 
HETATM    6  C   UNL     1      -9.518   8.649  69.336  1.00  0.00    -0.161 C  
HETATM    7  C   UNL     1      -8.805   9.930  69.078  1.00  0.00    -0.156 C  
ENDROOT
BRANCH   4   8
HETATM    8  C   UNL     1      -8.870   6.324  68.693  1.00  0.00    -0.119 A  
HETATM    9  C   UNL     1      -8.910   5.523  69.836  1.00  0.00    -0.137 A  
HETATM   10  C   UNL     1      -9.154   4.153  69.750  1.00  0.00    -0.176 A  
HETATM   11  C   UNL     1      -9.069   5.708  67.449  1.00  0.00    -0.110 A  
HETATM   12  C   UNL     1      -9.530   3.753  65.965  1.00  0.00    -0.178 C  
HETATM   13  C   UNL     1      -9.315   4.323  67.342  1.00  0.00    -0.190 A  
HETATM   14  C   UNL     1      -9.362   3.538  68.508  1.00  0.00    -0.229 A  
HETATM   15  C   UNL     1      -9.616   2.058  68.479  1.00  0.00    -0.136 C  
ENDBRANCH   4   8
BRANCH   7  16
HETATM   16  N   UNL     1      -9.178  11.146  69.325  1.00  0.00    -0.399 NA 
HETATM   17  H   UNL     1      -8.580  11.796  69.836  1.00  0.00     0.000 HD 
BRANCH  16  18
HETATM   18  N   UNL     1     -10.410  11.513  68.866  1.00  0.00    -0.311 NA 
HETATM   19  H   UNL     1     -11.248  11.172  69.336  1.00  0.00     0.000 HD 
BRANCH  18  20
HETATM   20  C   UNL     1     -10.530  12.362  67.744  1.00  0.00    -0.218 A  
HETATM   21  C   UNL     1     -10.027  13.677  67.749  1.00  0.00    -0.235 A  
HETATM   22  C   UNL     1     -10.051  14.516  66.618  1.00  0.00    -0.275 A  
HETATM   23  O   UNL     1      -9.482  14.154  68.925  1.00  0.00    -0.352 OA 
HETATM   24  C   UNL     1     -11.160  11.910  66.582  1.00  0.00    -0.360 A  
HETATM   25  C   UNL     1     -10.724  14.033  65.485  1.00  0.00    -0.317 A  
HETATM   26  H   UNL     1      -9.143  15.041  68.929  1.00  0.00     0.000 HD 
HETATM   27  C   UNL     1     -11.278  12.748  65.469  1.00  0.00    -0.329 A  
BRANCH  22  28
HETATM   28  C   UNL     1      -9.291  15.783  66.581  1.00  0.00    -0.284 A  
HETATM   29  C   UNL     1      -7.899  15.854  66.739  1.00  0.00    -0.273 A  
HETATM   30  C   UNL     1      -7.241  17.091  66.756  1.00  0.00    -0.274 A  
HETATM   31  C   UNL     1      -7.958  18.276  66.575  1.00  0.00    -0.294 A  
HETATM   32  C   UNL     1      -9.336  18.223  66.382  1.00  0.00    -0.280 A  
HETATM   33  C   UNL     1      -9.991  16.994  66.436  1.00  0.00    -0.318 A  
HETATM   34  C   UNL     1     -10.099  19.475  66.161  1.00  0.00    -0.469 C  
HETATM   35  O   UNL     1     -11.146  19.325  65.316  1.00  0.00    -0.397 OA 
HETATM   36  O   UNL     1      -9.789  20.535  66.662  1.00  0.00    -0.405 OA 
ENDBRANCH  22  28
ENDBRANCH  18  20
ENDBRANCH  16  18
ENDBRANCH   7  16
TORSDOF 5
ENDMDL
MODEL      116
REMARK 921   NORMALIZED FREE ENERGY PREDICTED BY IDOCK:   -6.13 KCAL/MOL
REMARK 922        TOTAL FREE ENERGY PREDICTED BY IDOCK:   -9.22 KCAL/MOL
REMARK 923 INTER-LIGAND FREE ENERGY PREDICTED BY IDOCK:   -8.14 KCAL/MOL
REMARK 924 INTRA-LIGAND FREE ENERGY PREDICTED BY IDOCK:   -1.08 KCAL/MOL
REMARK 927      BINDING AFFINITY PREDICTED BY RF-SCORE:    0.00 PKD
ROOT
HETATM    1  C   UNL     1     -13.310   9.716  71.409  1.00  0.00    -0.444 C  
HETATM    2  C   UNL     1     -12.313   8.621  71.310  1.00  0.00    -0.263 C  
HETATM    3  N   UNL     1     -12.316   7.485  71.945  1.00  0.00    -0.310 NA 
HETATM    4  N   UNL     1     -11.185   6.765  71.513  1.00  0.00    -0.250 N  
HETATM    5  O   UNL     1      -9.395   7.159  69.953  1.00  0.00    -0.151 OA 
HETATM    6  C   UNL     1     -10.412   7.421  70.566  1.00  0.00    -0.218 C  
HETATM    7  C   UNL     1     -11.131   8.715  70.420  1.00  0.00    -0.230 C  
ENDROOT
BRANCH   4   8
HETATM    8  C   UNL     1     -10.909   5.501  72.086  1.00  0.00    -0.235 A  
HETATM    9  C   UNL     1     -11.318   5.201  73.387  1.00  0.00    -0.297 A  
HETATM   10  C   UNL     1     -11.073   3.949  73.951  1.00  0.00    -0.239 A  
HETATM   11  C   UNL     1     -10.230   4.511  71.363  1.00  0.00    -0.183 A  
HETATM   12  C   UNL     1      -9.245   2.236  71.060  1.00  0.00    -0.190 C  
HETATM   13  C   UNL     1      -9.970   3.240  71.917  1.00  0.00    -0.209 A  
HETATM   14  C   UNL     1     -10.402   2.955  73.225  1.00  0.00    -0.233 A  
HETATM   15  C   UNL     1     -10.162   1.628  73.887  1.00  0.00    -0.144 C  
ENDBRANCH   4   8
BRANCH   7  16
HETATM   16  N   UNL     1     -10.828   9.752  69.703  1.00  0.00    -0.240 NA 
HETATM   17  H   UNL     1     -11.470  10.127  69.005  1.00  0.00     0.000 HD 
BRANCH  16  18
HETATM   18  N   UNL     1      -9.606  10.316  69.932  1.00  0.00    -0.405 NA 
HETATM   19  H   UNL     1      -9.181  10.248  70.856  1.00  0.00     0.000 HD 
BRANCH  18  20
HETATM   20  C   UNL     1      -8.928  10.994  68.895  1.00  0.00    -0.115 A  
HETATM   21  C   UNL     1      -9.553  11.998  68.130  1.00  0.00    -0.200 A  
HETATM   22  C   UNL     1      -8.877  12.752  67.150  1.00  0.00    -0.202 A  
HETATM   23  O   UNL     1     -10.890  12.248  68.364  1.00  0.00    -0.210 OA 
HETATM   24  C   UNL     1      -7.600  10.679  68.597  1.00  0.00    -0.103 A  
HETATM   25  C   UNL     1      -7.555  12.379  66.862  1.00  0.00     0.037 A  
HETATM   26  H   UNL     1     -11.311  12.926  67.848  1.00  0.00     0.000 HD 
HETATM   27  C   UNL     1      -6.925  11.351  67.573  1.00  0.00    -0.101 A  
BRANCH  22  28
HETATM   28  C   UNL     1      -9.483  13.961  66.554  1.00  0.00    -0.288 A  
HETATM   29  C   UNL     1     -10.535  13.922  65.628  1.00  0.00    -0.320 A  
HETATM   30  C   UNL     1     -11.027  15.101  65.051  1.00  0.00    -0.443 A  
HETATM   31  C   UNL     1     -10.503  16.341  65.420  1.00  0.00    -0.365 A  
HETATM   32  C   UNL     1      -9.481  16.402  66.365  1.00  0.00    -0.320 A  
HETATM   33  C   UNL     1      -8.951  15.222  66.881  1.00  0.00    -0.274 A  
HETATM   34  C   UNL     1      -8.941  17.718  66.783  1.00  0.00    -0.259 C  
HETATM   35  O   UNL     1      -8.565  17.758  68.083  1.00  0.00    -0.247 OA 
HETATM   36  O   UNL     1      -8.877  18.673  66.038  1.00  0.00    -0.489 OA 
ENDBRANCH  22  28
ENDBRANCH  18  20
ENDBRANCH  16  18
ENDBRANCH   7  16
TORSDOF 5
ENDMDL
MODEL      117
REMARK 921   NORMALIZED FREE ENERGY PREDICTED BY IDOCK:   -6.12 KCAL/MOL
REMARK 922        TOTAL FREE ENERGY PREDICTED BY IDOCK:   -9.22 KCAL/MOL
REMARK 923 INTER-LIGAND FREE ENERGY PREDICTED BY IDOCK:   -7.86 KCAL/MOL
REMARK 924 INTRA-LIGAND FREE ENERGY PREDICTED BY IDOCK:   -1.35 KCAL/MOL
REMARK 927      BINDING AFFINITY PREDICTED BY RF-SCORE:    0.00 PKD
ROOT
HETATM    1  C   UNL     1      -5.805  12.000  68.824  1.00  0.00    -0.051 C  
HETATM    2  C   UNL     1      -6.918  11.044  68.599  1.00  0.00    -0.075 C  
HETATM    3  N   UNL     1      -7.189   9.967  69.278  1.00  0.00    -0.066 NA 
HETATM    4  N   UNL     1      -8.346   9.399  68.709  1.00  0.00    -0.115 N  
HETATM    5  O   UNL     1      -9.822   9.968  66.895  1.00  0.00    -0.180 OA 
HETATM    6  C   UNL     1      -8.868  10.107  67.637  1.00  0.00    -0.125 C  
HETATM    7  C   UNL     1      -7.900  11.229  67.503  1.00  0.00    -0.123 C  
ENDROOT
BRANCH   4   8
HETATM    8  C   UNL     1      -8.840   8.177  69.223  1.00  0.00    -0.144 A  
HETATM    9  C   UNL     1      -8.248   6.961  68.873  1.00  0.00    -0.121 A  
HETATM   10  C   UNL     1      -8.713   5.754  69.395  1.00  0.00    -0.111 A  
HETATM   11  C   UNL     1      -9.927   8.150  70.107  1.00  0.00    -0.187 A  
HETATM   12  C   UNL     1     -11.577   7.011  71.596  1.00  0.00    -0.320 C  
HETATM   13  C   UNL     1     -10.413   6.940  70.644  1.00  0.00    -0.233 A  
HETATM   14  C   UNL     1      -9.793   5.728  70.286  1.00  0.00    -0.244 A  
HETATM   15  C   UNL     1     -10.252   4.398  70.812  1.00  0.00    -0.106 C  
ENDBRANCH   4   8
BRANCH   7  16
HETATM   16  N   UNL     1      -7.855  12.181  66.625  1.00  0.00    -0.385 NA 
HETATM   17  H   UNL     1      -6.993  12.415  66.132  1.00  0.00     0.000 HD 
BRANCH  16  18
HETATM   18  N   UNL     1      -9.020  12.854  66.394  1.00  0.00    -0.435 NA 
HETATM   19  H   UNL     1      -9.550  12.672  65.543  1.00  0.00     0.000 HD 
BRANCH  18  20
HETATM   20  C   UNL     1      -9.494  13.801  67.329  1.00  0.00    -0.236 A  
HETATM   21  C   UNL     1     -10.577  13.522  68.186  1.00  0.00    -0.245 A  
HETATM   22  C   UNL     1     -11.015  14.410  69.187  1.00  0.00    -0.288 A  
HETATM   23  O   UNL     1     -11.228  12.314  68.029  1.00  0.00    -0.233 OA 
HETATM   24  C   UNL     1      -8.893  15.057  67.427  1.00  0.00    -0.202 A  
HETATM   25  C   UNL     1     -10.403  15.672  69.227  1.00  0.00    -0.250 A  
HETATM   26  H   UNL     1     -11.958  12.126  68.607  1.00  0.00     0.000 HD 
HETATM   27  C   UNL     1      -9.359  15.995  68.354  1.00  0.00    -0.207 A  
BRANCH  22  28
HETATM   28  C   UNL     1     -11.973  13.985  70.229  1.00  0.00    -0.409 A  
HETATM   29  C   UNL     1     -12.635  14.880  71.083  1.00  0.00    -0.404 A  
HETATM   30  C   UNL     1     -13.486  14.411  72.093  1.00  0.00    -0.507 A  
HETATM   31  C   UNL     1     -13.721  13.043  72.241  1.00  0.00    -0.608 A  
HETATM   32  C   UNL     1     -13.100  12.141  71.380  1.00  0.00    -0.284 A  
HETATM   33  C   UNL     1     -12.202  12.611  70.424  1.00  0.00    -0.368 A  
HETATM   34  C   UNL     1     -13.369  10.689  71.513  1.00  0.00    -0.262 C  
HETATM   35  O   UNL     1     -13.366  10.030  70.330  1.00  0.00    -0.122 OA 
HETATM   36  O   UNL     1     -13.604  10.155  72.576  1.00  0.00    -0.220 OA 
ENDBRANCH  22  28
ENDBRANCH  18  20
ENDBRANCH  16  18
ENDBRANCH   7  16
TORSDOF 5
ENDMDL
MODEL      118
REMARK 921   NORMALIZED FREE ENERGY PREDICTED BY IDOCK:   -6.10 KCAL/MOL
REMARK 922        TOTAL FREE ENERGY PREDICTED BY IDOCK:   -9.18 KCAL/MOL
REMARK 923 INTER-LIGAND FREE ENERGY PREDICTED BY IDOCK:   -7.86 KCAL/MOL
REMARK 924 INTRA-LIGAND FREE ENERGY PREDICTED BY IDOCK:   -1.32 KCAL/MOL
REMARK 927      BINDING AFFINITY PREDICTED BY RF-SCORE:    0.00 PKD
ROOT
HETATM    1  C   UNL     1      -6.859   9.577  67.451  1.00  0.00    -0.083 C  
HETATM    2  C   UNL     1      -7.616   8.302  67.492  1.00  0.00    -0.098 C  
HETATM    3  N   UNL     1      -7.798   7.455  66.521  1.00  0.00    -0.096 NA 
HETATM    4  N   UNL     1      -8.560   6.389  67.039  1.00  0.00    -0.111 N  
HETATM    5  O   UNL     1      -9.509   5.840  69.181  1.00  0.00    -0.124 OA 
HETATM    6  C   UNL     1      -8.890   6.514  68.380  1.00  0.00    -0.123 C  
HETATM    7  C   UNL     1      -8.290   7.831  68.726  1.00  0.00    -0.128 C  
ENDROOT
BRANCH   4   8
HETATM    8  C   UNL     1      -8.954   5.339  66.176  1.00  0.00    -0.139 A  
HETATM    9  C   UNL     1     -10.292   5.178  65.808  1.00  0.00    -0.092 A  
HETATM   10  C   UNL     1     -10.685   4.161  64.938  1.00  0.00    -0.139 A  
HETATM   11  C   UNL     1      -8.015   4.439  65.655  1.00  0.00    -0.095 A  
HETATM   12  C   UNL     1      -7.312   2.492  64.257  1.00  0.00    -0.058 C  
HETATM   13  C   UNL     1      -8.392   3.403  64.776  1.00  0.00    -0.090 A  
HETATM   14  C   UNL     1      -9.744   3.267  64.410  1.00  0.00    -0.163 A  
HETATM   15  C   UNL     1     -10.228   2.189  63.482  1.00  0.00    -0.148 C  
ENDBRANCH   4   8
BRANCH   7  16
HETATM   16  N   UNL     1      -8.332   8.490  69.841  1.00  0.00    -0.120 NA 
HETATM   17  H   UNL     1      -7.634   9.197  70.073  1.00  0.00     0.000 HD 
BRANCH  16  18
HETATM   18  N   UNL     1      -9.359   8.190  70.689  1.00  0.00    -0.153 NA 
HETATM   19  H   UNL     1      -9.277   7.396  71.324  1.00  0.00     0.000 HD 
BRANCH  18  20
HETATM   20  C   UNL     1     -10.535   8.973  70.692  1.00  0.00    -0.230 A  
HETATM   21  C   UNL     1     -10.564  10.272  70.146  1.00  0.00    -0.246 A  
HETATM   22  C   UNL     1     -11.741  11.041  70.054  1.00  0.00    -0.437 A  
HETATM   23  O   UNL     1      -9.378  10.802  69.680  1.00  0.00    -0.408 OA 
HETATM   24  C   UNL     1     -11.715   8.471  71.244  1.00  0.00    -0.331 A  
HETATM   25  C   UNL     1     -12.894  10.511  70.651  1.00  0.00    -0.407 A  
HETATM   26  H   UNL     1      -9.398  11.678  69.312  1.00  0.00     0.000 HD 
HETATM   27  C   UNL     1     -12.881   9.243  71.245  1.00  0.00    -0.354 A  
BRANCH  22  28
HETATM   28  C   UNL     1     -11.790  12.280  69.250  1.00  0.00    -0.363 A  
HETATM   29  C   UNL     1     -11.666  13.564  69.800  1.00  0.00    -0.363 A  
HETATM   30  C   UNL     1     -11.782  14.705  68.994  1.00  0.00    -0.339 A  
HETATM   31  C   UNL     1     -11.985  14.580  67.618  1.00  0.00    -0.355 A  
HETATM   32  C   UNL     1     -12.075  13.312  67.048  1.00  0.00    -0.375 A  
HETATM   33  C   UNL     1     -12.028  12.186  67.866  1.00  0.00    -0.218 A  
HETATM   34  C   UNL     1     -12.261  13.173  65.584  1.00  0.00    -0.466 C  
HETATM   35  O   UNL     1     -11.639  12.089  65.062  1.00  0.00    -0.318 OA 
HETATM   36  O   UNL     1     -12.880  13.974  64.916  1.00  0.00    -0.692 OA 
ENDBRANCH  22  28
ENDBRANCH  18  20
ENDBRANCH  16  18
ENDBRANCH   7  16
TORSDOF 5
ENDMDL
MODEL      119
REMARK 921   NORMALIZED FREE ENERGY PREDICTED BY IDOCK:   -6.09 KCAL/MOL
REMARK 922        TOTAL FREE ENERGY PREDICTED BY IDOCK:   -9.18 KCAL/MOL
REMARK 923 INTER-LIGAND FREE ENERGY PREDICTED BY IDOCK:   -8.54 KCAL/MOL
REMARK 924 INTRA-LIGAND FREE ENERGY PREDICTED BY IDOCK:   -0.63 KCAL/MOL
REMARK 927      BINDING AFFINITY PREDICTED BY RF-SCORE:    0.00 PKD
ROOT
HETATM    1  C   UNL     1      -7.729  11.535  67.787  1.00  0.00    -0.124 C  
HETATM    2  C   UNL     1      -8.572  12.754  67.845  1.00  0.00    -0.181 C  
HETATM    3  N   UNL     1      -8.206  13.985  67.632  1.00  0.00    -0.166 NA 
HETATM    4  N   UNL     1      -9.352  14.790  67.780  1.00  0.00    -0.196 N  
HETATM    5  O   UNL     1     -11.671  14.397  68.289  1.00  0.00    -0.310 OA 
HETATM    6  C   UNL     1     -10.511  14.093  68.089  1.00  0.00    -0.244 C  
HETATM    7  C   UNL     1     -10.016  12.692  68.177  1.00  0.00    -0.225 C  
ENDROOT
BRANCH   4   8
HETATM    8  C   UNL     1      -9.231  16.194  67.653  1.00  0.00    -0.205 A  
HETATM    9  C   UNL     1     -10.293  16.964  67.175  1.00  0.00    -0.304 A  
HETATM   10  C   UNL     1     -10.191  18.352  67.071  1.00  0.00    -0.402 A  
HETATM   11  C   UNL     1      -8.049  16.855  68.015  1.00  0.00    -0.194 A  
HETATM   12  C   UNL     1      -6.622  18.878  68.340  1.00  0.00    -0.260 C  
HETATM   13  C   UNL     1      -7.925  18.256  67.916  1.00  0.00    -0.261 A  
HETATM   14  C   UNL     1      -9.012  19.013  67.442  1.00  0.00    -0.318 A  
HETATM   15  C   UNL     1      -8.960  20.508  67.303  1.00  0.00    -0.431 C  
ENDBRANCH   4   8
BRANCH   7  16
HETATM   16  N   UNL     1     -10.655  11.610  68.494  1.00  0.00    -0.208 NA 
HETATM   17  H   UNL     1     -10.836  10.875  67.811  1.00  0.00     0.000 HD 
BRANCH  16  18
HETATM   18  N   UNL     1     -11.072  11.505  69.790  1.00  0.00    -0.467 NA 
HETATM   19  H   UNL     1     -11.069  12.327  70.392  1.00  0.00     0.000 HD 
BRANCH  18  20
HETATM   20  C   UNL     1     -11.508  10.262  70.300  1.00  0.00    -0.317 A  
HETATM   21  C   UNL     1     -10.932   9.045  69.886  1.00  0.00    -0.193 A  
HETATM   22  C   UNL     1     -11.283   7.799  70.442  1.00  0.00    -0.246 A  
HETATM   23  O   UNL     1      -9.976   9.090  68.891  1.00  0.00    -0.177 OA 
HETATM   24  C   UNL     1     -12.537  10.208  71.242  1.00  0.00    -0.508 A  
HETATM   25  C   UNL     1     -12.344   7.790  71.360  1.00  0.00    -0.346 A  
HETATM   26  H   UNL     1      -9.588   8.269  68.612  1.00  0.00     0.000 HD 
HETATM   27  C   UNL     1     -12.968   8.979  71.752  1.00  0.00    -0.436 A  
BRANCH  22  28
HETATM   28  C   UNL     1     -10.485   6.584  70.174  1.00  0.00    -0.259 A  
HETATM   29  C   UNL     1      -9.844   5.843  71.178  1.00  0.00    -0.222 A  
HETATM   30  C   UNL     1      -9.050   4.734  70.855  1.00  0.00    -0.181 A  
HETATM   31  C   UNL     1      -8.915   4.324  69.527  1.00  0.00    -0.154 A  
HETATM   32  C   UNL     1      -9.573   5.026  68.520  1.00  0.00    -0.200 A  
HETATM   33  C   UNL     1     -10.303   6.168  68.842  1.00  0.00    -0.258 A  
HETATM   34  C   UNL     1      -9.458   4.577  67.112  1.00  0.00    -0.162 C  
HETATM   35  O   UNL     1     -10.583   4.784  66.386  1.00  0.00    -0.284 OA 
HETATM   36  O   UNL     1      -8.464   4.045  66.666  1.00  0.00    -0.104 OA 
ENDBRANCH  22  28
ENDBRANCH  18  20
ENDBRANCH  16  18
ENDBRANCH   7  16
TORSDOF 5
ENDMDL
MODEL      120
REMARK 921   NORMALIZED FREE ENERGY PREDICTED BY IDOCK:   -6.08 KCAL/MOL
REMARK 922        TOTAL FREE ENERGY PREDICTED BY IDOCK:   -9.16 KCAL/MOL
REMARK 923 INTER-LIGAND FREE ENERGY PREDICTED BY IDOCK:   -7.96 KCAL/MOL
REMARK 924 INTRA-LIGAND FREE ENERGY PREDICTED BY IDOCK:   -1.20 KCAL/MOL
REMARK 927      BINDING AFFINITY PREDICTED BY RF-SCORE:    0.00 PKD
ROOT
HETATM    1  C   UNL     1     -10.227   4.739  65.691  1.00  0.00    -0.213 C  
HETATM    2  C   UNL     1     -10.056   5.287  67.059  1.00  0.00    -0.210 C  
HETATM    3  N   UNL     1      -9.770   4.633  68.147  1.00  0.00    -0.152 NA 
HETATM    4  N   UNL     1      -9.690   5.577  69.190  1.00  0.00    -0.144 N  
HETATM    5  O   UNL     1      -9.937   7.964  69.364  1.00  0.00    -0.181 OA 
HETATM    6  C   UNL     1      -9.918   6.888  68.799  1.00  0.00    -0.153 C  
HETATM    7  C   UNL     1     -10.207   6.734  67.347  1.00  0.00    -0.197 C  
ENDROOT
BRANCH   4   8
HETATM    8  C   UNL     1      -9.441   5.130  70.509  1.00  0.00    -0.169 A  
HETATM    9  C   UNL     1     -10.476   5.041  71.442  1.00  0.00    -0.213 A  
HETATM   10  C   UNL     1     -10.243   4.577  72.737  1.00  0.00    -0.233 A  
HETATM   11  C   UNL     1      -8.154   4.751  70.914  1.00  0.00    -0.083 A  
HETATM   12  C   UNL     1      -6.486   3.885  72.559  1.00  0.00    -0.017 C  
HETATM   13  C   UNL     1      -7.898   4.281  72.219  1.00  0.00    -0.086 A  
HETATM   14  C   UNL     1      -8.958   4.190  73.139  1.00  0.00    -0.113 A  
HETATM   15  C   UNL     1      -8.769   3.703  74.547  1.00  0.00    -0.093 C  
ENDBRANCH   4   8
BRANCH   7  16
HETATM   16  N   UNL     1     -10.546   7.629  66.473  1.00  0.00    -0.417 NA 
HETATM   17  H   UNL     1     -11.481   7.653  66.066  1.00  0.00     0.000 HD 
BRANCH  16  18
HETATM   18  N   UNL     1      -9.589   8.539  66.127  1.00  0.00    -0.360 NA 
HETATM   19  H   UNL     1      -8.602   8.299  66.224  1.00  0.00     0.000 HD 
BRANCH  18  20
HETATM   20  C   UNL     1      -9.957   9.810  65.635  1.00  0.00    -0.282 A  
HETATM   21  C   UNL     1     -10.459  10.818  66.481  1.00  0.00    -0.240 A  
HETATM   22  C   UNL     1     -10.751  12.123  66.036  1.00  0.00    -0.308 A  
HETATM   23  O   UNL     1     -10.668  10.500  67.809  1.00  0.00    -0.229 OA 
HETATM   24  C   UNL     1      -9.830  10.104  64.276  1.00  0.00    -0.270 A  
HETATM   25  C   UNL     1     -10.640  12.362  64.658  1.00  0.00    -0.339 A  
HETATM   26  H   UNL     1     -11.007  11.180  68.379  1.00  0.00     0.000 HD 
HETATM   27  C   UNL     1     -10.191  11.364  63.787  1.00  0.00    -0.433 A  
BRANCH  22  28
HETATM   28  C   UNL     1     -11.026  13.218  66.989  1.00  0.00    -0.291 A  
HETATM   29  C   UNL     1     -11.859  13.078  68.109  1.00  0.00    -0.381 A  
HETATM   30  C   UNL     1     -12.131  14.171  68.942  1.00  0.00    -0.339 A  
HETATM   31  C   UNL     1     -11.544  15.414  68.693  1.00  0.00    -0.373 A  
HETATM   32  C   UNL     1     -10.686  15.563  67.605  1.00  0.00    -0.302 A  
HETATM   33  C   UNL     1     -10.476  14.490  66.743  1.00  0.00    -0.270 A  
HETATM   34  C   UNL     1     -10.037  16.871  67.353  1.00  0.00    -0.279 C  
HETATM   35  O   UNL     1      -8.790  16.763  66.836  1.00  0.00    -0.199 OA 
HETATM   36  O   UNL     1     -10.561  17.933  67.619  1.00  0.00    -0.390 OA 
ENDBRANCH  22  28
ENDBRANCH  18  20
ENDBRANCH  16  18
ENDBRANCH   7  16
TORSDOF 5
ENDMDL
MODEL      121
REMARK 921   NORMALIZED FREE ENERGY PREDICTED BY IDOCK:   -6.08 KCAL/MOL
REMARK 922        TOTAL FREE ENERGY PREDICTED BY IDOCK:   -9.16 KCAL/MOL
REMARK 923 INTER-LIGAND FREE ENERGY PREDICTED BY IDOCK:   -8.81 KCAL/MOL
REMARK 924 INTRA-LIGAND FREE ENERGY PREDICTED BY IDOCK:   -0.35 KCAL/MOL
REMARK 927      BINDING AFFINITY PREDICTED BY RF-SCORE:    0.00 PKD
ROOT
HETATM    1  C   UNL     1     -12.257  11.473  70.342  1.00  0.00    -0.442 C  
HETATM    2  C   UNL     1     -11.656  11.067  69.048  1.00  0.00    -0.323 C  
HETATM    3  N   UNL     1     -11.160   9.906  68.732  1.00  0.00    -0.179 NA 
HETATM    4  N   UNL     1     -10.728   9.990  67.393  1.00  0.00    -0.280 N  
HETATM    5  O   UNL     1     -10.730  11.694  65.694  1.00  0.00    -0.266 OA 
HETATM    6  C   UNL     1     -10.943  11.222  66.794  1.00  0.00    -0.281 C  
HETATM    7  C   UNL     1     -11.548  12.006  67.905  1.00  0.00    -0.337 C  
ENDROOT
BRANCH   4   8
HETATM    8  C   UNL     1     -10.093   8.873  66.801  1.00  0.00    -0.280 A  
HETATM    9  C   UNL     1      -9.103   9.043  65.831  1.00  0.00    -0.264 A  
HETATM   10  C   UNL     1      -8.455   7.947  65.261  1.00  0.00    -0.119 A  
HETATM   11  C   UNL     1     -10.428   7.565  67.179  1.00  0.00    -0.407 A  
HETATM   12  C   UNL     1     -10.202   5.079  67.091  1.00  0.00    -0.234 C  
HETATM   13  C   UNL     1      -9.785   6.445  66.613  1.00  0.00    -0.197 A  
HETATM   14  C   UNL     1      -8.783   6.641  65.645  1.00  0.00    -0.093 A  
HETATM   15  C   UNL     1      -8.053   5.501  64.993  1.00  0.00    -0.119 C  
ENDBRANCH   4   8
BRANCH   7  16
HETATM   16  N   UNL     1     -11.906  13.252  67.937  1.00  0.00    -0.352 NA 
HETATM   17  H   UNL     1     -12.712  13.592  67.413  1.00  0.00     0.000 HD 
BRANCH  16  18
HETATM   18  N   UNL     1     -11.148  14.084  68.709  1.00  0.00    -0.253 NA 
HETATM   19  H   UNL     1     -11.490  14.380  69.623  1.00  0.00     0.000 HD 
BRANCH  18  20
HETATM   20  C   UNL     1      -9.893  14.539  68.248  1.00  0.00    -0.229 A  
HETATM   21  C   UNL     1      -9.669  15.888  67.909  1.00  0.00    -0.216 A  
HETATM   22  C   UNL     1      -8.406  16.388  67.532  1.00  0.00    -0.176 A  
HETATM   23  O   UNL     1     -10.745  16.751  67.956  1.00  0.00    -0.339 OA 
HETATM   24  C   UNL     1      -8.825  13.648  68.115  1.00  0.00    -0.189 A  
HETATM   25  C   UNL     1      -7.373  15.451  67.380  1.00  0.00    -0.244 A  
HETATM   26  H   UNL     1     -10.594  17.661  67.727  1.00  0.00     0.000 HD 
HETATM   27  C   UNL     1      -7.581  14.096  67.662  1.00  0.00    -0.193 A  
BRANCH  22  28
HETATM   28  C   UNL     1      -8.151  17.840  67.436  1.00  0.00    -0.217 A  
HETATM   29  C   UNL     1      -8.722  18.662  66.454  1.00  0.00    -0.286 A  
HETATM   30  C   UNL     1      -8.393  20.022  66.376  1.00  0.00    -0.338 A  
HETATM   31  C   UNL     1      -7.517  20.592  67.303  1.00  0.00    -0.384 A  
HETATM   32  C   UNL     1      -6.966  19.798  68.307  1.00  0.00    -0.333 A  
HETATM   33  C   UNL     1      -7.245  18.433  68.334  1.00  0.00    -0.281 A  
HETATM   34  C   UNL     1      -6.059  20.403  69.311  1.00  0.00    -0.332 C  
HETATM   35  O   UNL     1      -6.168  19.847  70.541  1.00  0.00    -0.311 OA 
HETATM   36  O   UNL     1      -5.318  21.330  69.060  1.00  0.00    -0.313 OA 
ENDBRANCH  22  28
ENDBRANCH  18  20
ENDBRANCH  16  18
ENDBRANCH   7  16
TORSDOF 5
ENDMDL
MODEL      122
REMARK 921   NORMALIZED FREE ENERGY PREDICTED BY IDOCK:   -6.04 KCAL/MOL
REMARK 922        TOTAL FREE ENERGY PREDICTED BY IDOCK:   -9.11 KCAL/MOL
REMARK 923 INTER-LIGAND FREE ENERGY PREDICTED BY IDOCK:   -7.37 KCAL/MOL
REMARK 924 INTRA-LIGAND FREE ENERGY PREDICTED BY IDOCK:   -1.74 KCAL/MOL
REMARK 927      BINDING AFFINITY PREDICTED BY RF-SCORE:    0.00 PKD
ROOT
HETATM    1  C   UNL     1     -12.015   8.460  72.362  1.00  0.00    -0.451 C  
HETATM    2  C   UNL     1     -11.324   9.130  71.233  1.00  0.00    -0.336 C  
HETATM    3  N   UNL     1     -11.851   9.897  70.322  1.00  0.00    -0.223 NA 
HETATM    4  N   UNL     1     -10.804  10.316  69.477  1.00  0.00    -0.238 N  
HETATM    5  O   UNL     1      -8.427   9.953  69.382  1.00  0.00    -0.137 OA 
HETATM    6  C   UNL     1      -9.552   9.833  69.828  1.00  0.00    -0.230 C  
HETATM    7  C   UNL     1      -9.865   8.985  71.010  1.00  0.00    -0.282 C  
ENDROOT
BRANCH   4   8
HETATM    8  C   UNL     1     -11.103  11.125  68.356  1.00  0.00    -0.247 A  
HETATM    9  C   UNL     1     -11.736  12.360  68.513  1.00  0.00    -0.373 A  
HETATM   10  C   UNL     1     -12.011  13.176  67.416  1.00  0.00    -0.379 A  
HETATM   11  C   UNL     1     -10.762  10.720  67.059  1.00  0.00    -0.320 A  
HETATM   12  C   UNL     1     -10.620  11.016  64.583  1.00  0.00    -0.369 C  
HETATM   13  C   UNL     1     -11.034  11.529  65.936  1.00  0.00    -0.301 A  
HETATM   14  C   UNL     1     -11.662  12.775  66.120  1.00  0.00    -0.458 A  
HETATM   15  C   UNL     1     -11.989  13.693  64.977  1.00  0.00    -0.401 C  
ENDBRANCH   4   8
BRANCH   7  16
HETATM   16  N   UNL     1      -9.081   8.238  71.721  1.00  0.00    -0.173 NA 
HETATM   17  H   UNL     1      -9.110   8.249  72.741  1.00  0.00     0.000 HD 
BRANCH  16  18
HETATM   18  N   UNL     1      -8.214   7.436  71.036  1.00  0.00    -0.109 NA 
HETATM   19  H   UNL     1      -7.225   7.681  70.991  1.00  0.00     0.000 HD 
BRANCH  18  20
HETATM   20  C   UNL     1      -8.680   6.271  70.390  1.00  0.00    -0.146 A  
HETATM   21  C   UNL     1      -8.465   6.046  69.015  1.00  0.00    -0.117 A  
HETATM   22  C   UNL     1      -8.839   4.855  68.362  1.00  0.00    -0.115 A  
HETATM   23  O   UNL     1      -7.855   7.048  68.286  1.00  0.00    -0.114 OA 
HETATM   24  C   UNL     1      -9.376   5.296  71.108  1.00  0.00    -0.192 A  
HETATM   25  C   UNL     1      -9.564   3.920  69.115  1.00  0.00    -0.218 A  
HETATM   26  H   UNL     1      -7.711   6.896  67.360  1.00  0.00     0.000 HD 
HETATM   27  C   UNL     1      -9.835   4.139  70.470  1.00  0.00    -0.252 A  
BRANCH  22  28
HETATM   28  C   UNL     1      -8.372   4.548  66.994  1.00  0.00    -0.105 A  
HETATM   29  C   UNL     1      -7.019   4.413  66.651  1.00  0.00    -0.059 A  
HETATM   30  C   UNL     1      -6.635   4.182  65.323  1.00  0.00    -0.047 A  
HETATM   31  C   UNL     1      -7.599   4.043  64.322  1.00  0.00    -0.079 A  
HETATM   32  C   UNL     1      -8.949   4.139  64.650  1.00  0.00    -0.141 A  
HETATM   33  C   UNL     1      -9.319   4.438  65.960  1.00  0.00    -0.160 A  
HETATM   34  C   UNL     1      -9.978   3.963  63.598  1.00  0.00    -0.174 C  
HETATM   35  O   UNL     1     -11.109   3.366  64.043  1.00  0.00    -0.278 OA 
HETATM   36  O   UNL     1      -9.806   4.291  62.443  1.00  0.00    -0.143 OA 
ENDBRANCH  22  28
ENDBRANCH  18  20
ENDBRANCH  16  18
ENDBRANCH   7  16
TORSDOF 5
ENDMDL
MODEL      123
REMARK 921   NORMALIZED FREE ENERGY PREDICTED BY IDOCK:   -6.01 KCAL/MOL
REMARK 922        TOTAL FREE ENERGY PREDICTED BY IDOCK:   -9.07 KCAL/MOL
REMARK 923 INTER-LIGAND FREE ENERGY PREDICTED BY IDOCK:   -7.38 KCAL/MOL
REMARK 924 INTRA-LIGAND FREE ENERGY PREDICTED BY IDOCK:   -1.70 KCAL/MOL
REMARK 927      BINDING AFFINITY PREDICTED BY RF-SCORE:    0.00 PKD
ROOT
HETATM    1  C   UNL     1     -11.985  11.345  69.885  1.00  0.00    -0.434 C  
HETATM    2  C   UNL     1     -11.291  10.034  69.904  1.00  0.00    -0.250 C  
HETATM    3  N   UNL     1     -10.912   9.350  70.945  1.00  0.00    -0.291 NA 
HETATM    4  N   UNL     1     -10.316   8.166  70.468  1.00  0.00    -0.200 N  
HETATM    5  O   UNL     1      -9.898   7.208  68.301  1.00  0.00    -0.145 OA 
HETATM    6  C   UNL     1     -10.300   8.044  69.087  1.00  0.00    -0.220 C  
HETATM    7  C   UNL     1     -10.929   9.321  68.654  1.00  0.00     0.005 C  
ENDROOT
BRANCH   4   8
HETATM    8  C   UNL     1      -9.762   7.250  71.394  1.00  0.00    -0.164 A  
HETATM    9  C   UNL     1      -8.409   7.306  71.733  1.00  0.00    -0.107 A  
HETATM   10  C   UNL     1      -7.860   6.424  72.664  1.00  0.00    -0.104 A  
HETATM   11  C   UNL     1     -10.556   6.272  72.008  1.00  0.00    -0.253 A  
HETATM   12  C   UNL     1     -10.952   4.360  73.566  1.00  0.00    -0.379 C  
HETATM   13  C   UNL     1     -10.020   5.369  72.950  1.00  0.00    -0.193 A  
HETATM   14  C   UNL     1      -8.655   5.451  73.285  1.00  0.00    -0.116 A  
HETATM   15  C   UNL     1      -8.007   4.527  74.275  1.00  0.00    -0.096 C  
ENDBRANCH   4   8
BRANCH   7  16
HETATM   16  N   UNL     1     -11.126   9.781  67.459  1.00  0.00    -0.414 NA 
HETATM   17  H   UNL     1     -12.065   9.955  67.100  1.00  0.00     0.000 HD 
BRANCH  16  18
HETATM   18  N   UNL     1     -10.014  10.021  66.706  1.00  0.00    -0.200 NA 
HETATM   19  H   UNL     1      -9.784   9.402  65.928  1.00  0.00     0.000 HD 
BRANCH  18  20
HETATM   20  C   UNL     1      -9.178  11.122  66.997  1.00  0.00    -0.163 A  
HETATM   21  C   UNL     1      -9.701  12.404  67.257  1.00  0.00    -0.201 A  
HETATM   22  C   UNL     1      -8.900  13.499  67.637  1.00  0.00    -0.202 A  
HETATM   23  O   UNL     1     -11.065  12.581  67.133  1.00  0.00    -0.253 OA 
HETATM   24  C   UNL     1      -7.791  10.964  67.035  1.00  0.00    -0.132 A  
HETATM   25  C   UNL     1      -7.512  13.302  67.630  1.00  0.00    -0.173 A  
HETATM   26  H   UNL     1     -11.417  13.446  67.308  1.00  0.00     0.000 HD 
HETATM   27  C   UNL     1      -6.962  12.051  67.326  1.00  0.00    -0.146 A  
BRANCH  22  28
HETATM   28  C   UNL     1      -9.499  14.749  68.150  1.00  0.00    -0.208 A  
HETATM   29  C   UNL     1      -9.346  15.994  67.522  1.00  0.00    -0.217 A  
HETATM   30  C   UNL     1      -9.886  17.156  68.090  1.00  0.00    -0.281 A  
HETATM   31  C   UNL     1     -10.623  17.087  69.275  1.00  0.00    -0.276 A  
HETATM   32  C   UNL     1     -10.815  15.854  69.894  1.00  0.00    -0.333 A  
HETATM   33  C   UNL     1     -10.216  14.715  69.360  1.00  0.00    -0.099 A  
HETATM   34  C   UNL     1     -11.621  15.770  71.136  1.00  0.00    -0.419 C  
HETATM   35  O   UNL     1     -12.333  14.623  71.240  1.00  0.00    -0.303 OA 
HETATM   36  O   UNL     1     -11.663  16.660  71.958  1.00  0.00    -0.408 OA 
ENDBRANCH  22  28
ENDBRANCH  18  20
ENDBRANCH  16  18
ENDBRANCH   7  16
TORSDOF 5
ENDMDL
MODEL      124
REMARK 921   NORMALIZED FREE ENERGY PREDICTED BY IDOCK:   -6.01 KCAL/MOL
REMARK 922        TOTAL FREE ENERGY PREDICTED BY IDOCK:   -9.07 KCAL/MOL
REMARK 923 INTER-LIGAND FREE ENERGY PREDICTED BY IDOCK:   -7.10 KCAL/MOL
REMARK 924 INTRA-LIGAND FREE ENERGY PREDICTED BY IDOCK:   -1.97 KCAL/MOL
REMARK 927      BINDING AFFINITY PREDICTED BY RF-SCORE:    0.00 PKD
ROOT
HETATM    1  C   UNL     1      -6.705   4.572  70.162  1.00  0.00    -0.036 C  
HETATM    2  C   UNL     1      -7.578   5.146  69.109  1.00  0.00    -0.069 C  
HETATM    3  N   UNL     1      -7.227   5.909  68.115  1.00  0.00    -0.077 NA 
HETATM    4  N   UNL     1      -8.392   6.184  67.373  1.00  0.00    -0.109 N  
HETATM    5  O   UNL     1     -10.714   5.574  67.535  1.00  0.00    -0.219 OA 
HETATM    6  C   UNL     1      -9.545   5.592  67.868  1.00  0.00    -0.120 C  
HETATM    7  C   UNL     1      -9.040   4.895  69.081  1.00  0.00    -0.103 C  
ENDROOT
BRANCH   4   8
HETATM    8  C   UNL     1      -8.310   7.045  66.253  1.00  0.00    -0.129 A  
HETATM    9  C   UNL     1      -7.638   6.651  65.094  1.00  0.00    -0.090 A  
HETATM   10  C   UNL     1      -7.574   7.483  63.977  1.00  0.00    -0.114 A  
HETATM   11  C   UNL     1      -8.912   8.311  66.267  1.00  0.00    -0.221 A  
HETATM   12  C   UNL     1      -9.544  10.503  65.251  1.00  0.00    -0.303 C  
HETATM   13  C   UNL     1      -8.857   9.168  65.148  1.00  0.00    -0.241 A  
HETATM   14  C   UNL     1      -8.183   8.745  63.987  1.00  0.00    -0.161 A  
HETATM   15  C   UNL     1      -8.077   9.598  62.756  1.00  0.00    -0.130 C  
ENDBRANCH   4   8
BRANCH   7  16
HETATM   16  N   UNL     1      -9.689   4.218  69.975  1.00  0.00    -0.208 NA 
HETATM   17  H   UNL     1      -9.490   3.233  70.150  1.00  0.00     0.000 HD 
BRANCH  16  18
HETATM   18  N   UNL     1     -10.654   4.889  70.668  1.00  0.00    -0.098 NA 
HETATM   19  H   UNL     1     -11.601   4.515  70.711  1.00  0.00     0.000 HD 
BRANCH  18  20
HETATM   20  C   UNL     1     -10.347   6.100  71.327  1.00  0.00    -0.217 A  
HETATM   21  C   UNL     1     -10.805   7.344  70.849  1.00  0.00    -0.240 A  
HETATM   22  C   UNL     1     -10.591   8.557  71.532  1.00  0.00    -0.333 A  
HETATM   23  O   UNL     1     -11.500   7.359  69.656  1.00  0.00    -0.476 OA 
HETATM   24  C   UNL     1      -9.568   6.095  72.486  1.00  0.00    -0.149 A  
HETATM   25  C   UNL     1      -9.776   8.508  72.673  1.00  0.00    -0.285 A  
HETATM   26  H   UNL     1     -11.809   8.198  69.335  1.00  0.00     0.000 HD 
HETATM   27  C   UNL     1      -9.265   7.292  73.142  1.00  0.00    -0.201 A  
BRANCH  22  28
HETATM   28  C   UNL     1     -11.299   9.795  71.144  1.00  0.00    -0.459 A  
HETATM   29  C   UNL     1     -12.425  10.286  71.821  1.00  0.00    -0.431 A  
HETATM   30  C   UNL     1     -13.092  11.432  71.368  1.00  0.00    -0.377 A  
HETATM   31  C   UNL     1     -12.621  12.130  70.254  1.00  0.00    -0.040 A  
HETATM   32  C   UNL     1     -11.483  11.677  69.589  1.00  0.00    -0.359 A  
HETATM   33  C   UNL     1     -10.868  10.498  70.004  1.00  0.00    -0.320 A  
HETATM   34  C   UNL     1     -10.961  12.430  68.424  1.00  0.00    -0.241 C  
HETATM   35  O   UNL     1      -9.611  12.401  68.324  1.00  0.00    -0.212 OA 
HETATM   36  O   UNL     1     -11.675  13.041  67.658  1.00  0.00    -0.331 OA 
ENDBRANCH  22  28
ENDBRANCH  18  20
ENDBRANCH  16  18
ENDBRANCH   7  16
TORSDOF 5
ENDMDL
MODEL      125
REMARK 921   NORMALIZED FREE ENERGY PREDICTED BY IDOCK:   -6.00 KCAL/MOL
REMARK 922        TOTAL FREE ENERGY PREDICTED BY IDOCK:   -9.06 KCAL/MOL
REMARK 923 INTER-LIGAND FREE ENERGY PREDICTED BY IDOCK:   -8.39 KCAL/MOL
REMARK 924 INTRA-LIGAND FREE ENERGY PREDICTED BY IDOCK:   -0.67 KCAL/MOL
REMARK 927      BINDING AFFINITY PREDICTED BY RF-SCORE:    0.00 PKD
ROOT
HETATM    1  C   UNL     1      -7.797  10.029  70.123  1.00  0.00    -0.141 C  
HETATM    2  C   UNL     1      -8.863   9.144  70.654  1.00  0.00    -0.232 C  
HETATM    3  N   UNL     1      -8.736   7.931  71.108  1.00  0.00    -0.133 NA 
HETATM    4  N   UNL     1     -10.015   7.506  71.517  1.00  0.00    -0.177 N  
HETATM    5  O   UNL     1     -12.214   8.482  71.565  1.00  0.00    -0.292 OA 
HETATM    6  C   UNL     1     -11.019   8.447  71.346  1.00  0.00    -0.253 C  
HETATM    7  C   UNL     1     -10.280   9.579  70.723  1.00  0.00    -0.293 C  
ENDROOT
BRANCH   4   8
HETATM    8  C   UNL     1     -10.180   6.189  72.009  1.00  0.00    -0.194 A  
HETATM    9  C   UNL     1     -10.753   5.959  73.262  1.00  0.00    -0.290 A  
HETATM   10  C   UNL     1     -10.943   4.664  73.743  1.00  0.00    -0.368 A  
HETATM   11  C   UNL     1      -9.788   5.078  71.250  1.00  0.00    -0.246 A  
HETATM   12  C   UNL     1      -9.529   2.630  70.829  1.00  0.00    -0.214 C  
HETATM   13  C   UNL     1      -9.969   3.761  71.720  1.00  0.00    -0.227 A  
HETATM   14  C   UNL     1     -10.559   3.553  72.980  1.00  0.00    -0.251 A  
HETATM   15  C   UNL     1     -10.784   2.183  73.554  1.00  0.00    -0.253 C  
ENDBRANCH   4   8
BRANCH   7  16
HETATM   16  N   UNL     1     -10.724  10.717  70.291  1.00  0.00    -0.451 NA 
HETATM   17  H   UNL     1     -10.406  11.602  70.687  1.00  0.00     0.000 HD 
BRANCH  16  18
HETATM   18  N   UNL     1     -11.639  10.671  69.279  1.00  0.00    -0.347 NA 
HETATM   19  H   UNL     1     -12.489  10.118  69.388  1.00  0.00     0.000 HD 
BRANCH  18  20
HETATM   20  C   UNL     1     -11.415  11.384  68.081  1.00  0.00    -0.305 A  
HETATM   21  C   UNL     1     -10.593  10.876  67.056  1.00  0.00    -0.257 A  
HETATM   22  C   UNL     1     -10.421  11.522  65.815  1.00  0.00    -0.308 A  
HETATM   23  O   UNL     1      -9.932   9.686  67.289  1.00  0.00    -0.175 OA 
HETATM   24  C   UNL     1     -12.012  12.630  67.880  1.00  0.00    -0.307 A  
HETATM   25  C   UNL     1     -11.013  12.786  65.671  1.00  0.00    -0.302 A  
HETATM   26  H   UNL     1      -9.377   9.345  66.598  1.00  0.00     0.000 HD 
HETATM   27  C   UNL     1     -11.794  13.337  66.693  1.00  0.00    -0.447 A  
BRANCH  22  28
HETATM   28  C   UNL     1      -9.768  10.842  64.677  1.00  0.00    -0.333 A  
HETATM   29  C   UNL     1      -9.715  11.379  63.383  1.00  0.00    -0.385 A  
HETATM   30  C   UNL     1      -9.134  10.658  62.330  1.00  0.00    -0.322 A  
HETATM   31  C   UNL     1      -8.561   9.406  62.562  1.00  0.00    -0.219 A  
HETATM   32  C   UNL     1      -8.573   8.872  63.849  1.00  0.00    -0.110 A  
HETATM   33  C   UNL     1      -9.213   9.564  64.875  1.00  0.00    -0.284 A  
HETATM   34  C   UNL     1      -7.940   7.557  64.107  1.00  0.00    -0.098 C  
HETATM   35  O   UNL     1      -7.366   7.466  65.330  1.00  0.00    -0.066 OA 
HETATM   36  O   UNL     1      -7.910   6.664  63.286  1.00  0.00    -0.111 OA 
ENDBRANCH  22  28
ENDBRANCH  18  20
ENDBRANCH  16  18
ENDBRANCH   7  16
TORSDOF 5
ENDMDL
MODEL      126
REMARK 921   NORMALIZED FREE ENERGY PREDICTED BY IDOCK:   -5.99 KCAL/MOL
REMARK 922        TOTAL FREE ENERGY PREDICTED BY IDOCK:   -9.04 KCAL/MOL
REMARK 923 INTER-LIGAND FREE ENERGY PREDICTED BY IDOCK:   -7.98 KCAL/MOL
REMARK 924 INTRA-LIGAND FREE ENERGY PREDICTED BY IDOCK:   -1.06 KCAL/MOL
REMARK 927      BINDING AFFINITY PREDICTED BY RF-SCORE:    0.00 PKD
ROOT
HETATM    1  C   UNL     1      -8.623   8.859  70.846  1.00  0.00    -0.242 C  
HETATM    2  C   UNL     1      -9.623   9.725  70.174  1.00  0.00    -0.237 C  
HETATM    3  N   UNL     1      -9.402  10.664  69.301  1.00  0.00    -0.162 NA 
HETATM    4  N   UNL     1     -10.656  11.192  68.933  1.00  0.00    -0.199 N  
HETATM    5  O   UNL     1     -12.945  10.744  69.524  1.00  0.00    -0.118 OA 
HETATM    6  C   UNL     1     -11.739  10.595  69.561  1.00  0.00    -0.284 C  
HETATM    7  C   UNL     1     -11.075   9.602  70.449  1.00  0.00    -0.290 C  
ENDROOT
BRANCH   4   8
HETATM    8  C   UNL     1     -10.709  12.276  68.026  1.00  0.00    -0.218 A  
HETATM    9  C   UNL     1     -10.586  12.065  66.651  1.00  0.00    -0.266 A  
HETATM   10  C   UNL     1     -10.664  13.125  65.747  1.00  0.00    -0.292 A  
HETATM   11  C   UNL     1     -10.902  13.589  68.476  1.00  0.00    -0.283 A  
HETATM   12  C   UNL     1     -11.201  16.047  68.155  1.00  0.00    -0.325 C  
HETATM   13  C   UNL     1     -10.981  14.674  67.579  1.00  0.00    -0.301 A  
HETATM   14  C   UNL     1     -10.865  14.436  66.197  1.00  0.00    -0.309 A  
HETATM   15  C   UNL     1     -10.935  15.537  65.177  1.00  0.00    -0.422 C  
ENDBRANCH   4   8
BRANCH   7  16
HETATM   16  N   UNL     1     -11.596   8.792  71.316  1.00  0.00    -0.277 NA 
HETATM   17  H   UNL     1     -11.586   8.997  72.315  1.00  0.00     0.000 HD 
BRANCH  16  18
HETATM   18  N   UNL     1     -12.160   7.650  70.824  1.00  0.00    -0.484 NA 
HETATM   19  H   UNL     1     -13.130   7.658  70.509  1.00  0.00     0.000 HD 
BRANCH  18  20
HETATM   20  C   UNL     1     -11.407   6.458  70.748  1.00  0.00    -0.350 A  
HETATM   21  C   UNL     1     -10.858   6.001  69.533  1.00  0.00    -0.369 A  
HETATM   22  C   UNL     1     -10.029   4.866  69.442  1.00  0.00    -0.282 A  
HETATM   23  O   UNL     1     -11.151   6.711  68.386  1.00  0.00    -0.442 OA 
HETATM   24  C   UNL     1     -11.184   5.691  71.893  1.00  0.00    -0.246 A  
HETATM   25  C   UNL     1      -9.860   4.108  70.610  1.00  0.00    -0.249 A  
HETATM   26  H   UNL     1     -10.782   6.402  67.567  1.00  0.00     0.000 HD 
HETATM   27  C   UNL     1     -10.435   4.511  71.821  1.00  0.00    -0.114 A  
BRANCH  22  28
HETATM   28  C   UNL     1      -9.267   4.566  68.212  1.00  0.00    -0.174 A  
HETATM   29  C   UNL     1      -7.892   4.286  68.202  1.00  0.00    -0.079 A  
HETATM   30  C   UNL     1      -7.212   4.069  66.996  1.00  0.00    -0.068 A  
HETATM   31  C   UNL     1      -7.902   4.090  65.782  1.00  0.00    -0.090 A  
HETATM   32  C   UNL     1      -9.274   4.333  65.774  1.00  0.00    -0.146 A  
HETATM   33  C   UNL     1      -9.929   4.615  66.971  1.00  0.00    -0.227 A  
HETATM   34  C   UNL     1     -10.016   4.327  64.491  1.00  0.00    -0.105 C  
HETATM   35  O   UNL     1     -11.279   3.849  64.602  1.00  0.00    -0.266 OA 
HETATM   36  O   UNL     1      -9.525   4.682  63.441  1.00  0.00    -0.067 OA 
ENDBRANCH  22  28
ENDBRANCH  18  20
ENDBRANCH  16  18
ENDBRANCH   7  16
TORSDOF 5
ENDMDL
MODEL      127
REMARK 921   NORMALIZED FREE ENERGY PREDICTED BY IDOCK:   -5.99 KCAL/MOL
REMARK 922        TOTAL FREE ENERGY PREDICTED BY IDOCK:   -9.04 KCAL/MOL
REMARK 923 INTER-LIGAND FREE ENERGY PREDICTED BY IDOCK:   -8.14 KCAL/MOL
REMARK 924 INTRA-LIGAND FREE ENERGY PREDICTED BY IDOCK:   -0.89 KCAL/MOL
REMARK 927      BINDING AFFINITY PREDICTED BY RF-SCORE:    0.00 PKD
ROOT
HETATM    1  C   UNL     1     -12.261  13.525  69.847  1.00  0.00    -0.356 C  
HETATM    2  C   UNL     1     -11.836  13.543  68.426  1.00  0.00    -0.373 C  
HETATM    3  N   UNL     1     -11.422  12.539  67.708  1.00  0.00    -0.300 NA 
HETATM    4  N   UNL     1     -11.154  13.036  66.417  1.00  0.00    -0.281 N  
HETATM    5  O   UNL     1     -11.303  15.182  65.340  1.00  0.00    -0.346 OA 
HETATM    6  C   UNL     1     -11.397  14.392  66.259  1.00  0.00    -0.350 C  
HETATM    7  C   UNL     1     -11.836  14.790  67.624  1.00  0.00    -0.292 C  
ENDROOT
BRANCH   4   8
HETATM    8  C   UNL     1     -10.634  12.161  65.434  1.00  0.00    -0.272 A  
HETATM    9  C   UNL     1     -10.672  12.501  64.080  1.00  0.00    -0.423 A  
HETATM   10  C   UNL     1     -10.138  11.655  63.108  1.00  0.00    -0.409 A  
HETATM   11  C   UNL     1     -10.054  10.935  65.790  1.00  0.00    -0.308 A  
HETATM   12  C   UNL     1      -8.897   8.777  65.299  1.00  0.00    -0.205 C  
HETATM   13  C   UNL     1      -9.511  10.065  64.822  1.00  0.00    -0.366 A  
HETATM   14  C   UNL     1      -9.551  10.434  63.464  1.00  0.00    -0.361 A  
HETATM   15  C   UNL     1      -8.998   9.563  62.372  1.00  0.00    -0.279 C  
ENDBRANCH   4   8
BRANCH   7  16
HETATM   16  N   UNL     1     -12.144  15.962  68.083  1.00  0.00    -0.197 NA 
HETATM   17  H   UNL     1     -13.101  16.315  68.054  1.00  0.00     0.000 HD 
BRANCH  16  18
HETATM   18  N   UNL     1     -11.123  16.700  68.608  1.00  0.00    -0.328 NA 
HETATM   19  H   UNL     1     -11.323  17.430  69.291  1.00  0.00     0.000 HD 
BRANCH  18  20
HETATM   20  C   UNL     1      -9.790  16.459  68.209  1.00  0.00    -0.229 A  
HETATM   21  C   UNL     1      -8.935  15.613  68.943  1.00  0.00    -0.221 A  
HETATM   22  C   UNL     1      -7.632  15.283  68.523  1.00  0.00    -0.119 A  
HETATM   23  O   UNL     1      -9.412  15.086  70.127  1.00  0.00    -0.444 OA 
HETATM   24  C   UNL     1      -9.277  17.062  67.058  1.00  0.00    -0.247 A  
HETATM   25  C   UNL     1      -7.148  15.938  67.381  1.00  0.00    -0.230 A  
HETATM   26  H   UNL     1      -8.835  14.516  70.622  1.00  0.00     0.000 HD 
HETATM   27  C   UNL     1      -7.959  16.822  66.659  1.00  0.00    -0.306 A  
BRANCH  22  28
HETATM   28  C   UNL     1      -6.864  14.200  69.173  1.00  0.00    -0.113 A  
HETATM   29  C   UNL     1      -5.966  14.416  70.229  1.00  0.00    -0.160 A  
HETATM   30  C   UNL     1      -5.220  13.356  70.764  1.00  0.00    -0.134 A  
HETATM   31  C   UNL     1      -5.388  12.057  70.279  1.00  0.00    -0.115 A  
HETATM   32  C   UNL     1      -6.302  11.818  69.255  1.00  0.00    -0.103 A  
HETATM   33  C   UNL     1      -6.987  12.888  68.682  1.00  0.00    -0.101 A  
HETATM   34  C   UNL     1      -6.506  10.438  68.757  1.00  0.00    -0.051 C  
HETATM   35  O   UNL     1      -7.781  10.186  68.374  1.00  0.00    -0.086 OA 
HETATM   36  O   UNL     1      -5.624   9.606  68.729  1.00  0.00    -0.037 OA 
ENDBRANCH  22  28
ENDBRANCH  18  20
ENDBRANCH  16  18
ENDBRANCH   7  16
TORSDOF 5
ENDMDL
MODEL      128
REMARK 921   NORMALIZED FREE ENERGY PREDICTED BY IDOCK:   -5.93 KCAL/MOL
REMARK 922        TOTAL FREE ENERGY PREDICTED BY IDOCK:   -8.96 KCAL/MOL
REMARK 923 INTER-LIGAND FREE ENERGY PREDICTED BY IDOCK:   -8.29 KCAL/MOL
REMARK 924 INTRA-LIGAND FREE ENERGY PREDICTED BY IDOCK:   -0.67 KCAL/MOL
REMARK 927      BINDING AFFINITY PREDICTED BY RF-SCORE:    0.00 PKD
ROOT
HETATM    1  C   UNL     1      -8.342  11.266  66.061  1.00  0.00    -0.071 C  
HETATM    2  C   UNL     1      -9.239  12.296  66.640  1.00  0.00    -0.208 C  
HETATM    3  N   UNL     1      -9.019  13.575  66.740  1.00  0.00    -0.213 NA 
HETATM    4  N   UNL     1     -10.161  14.145  67.337  1.00  0.00    -0.243 N  
HETATM    5  O   UNL     1     -12.276  13.318  68.133  1.00  0.00    -0.266 OA 
HETATM    6  C   UNL     1     -11.169  13.241  67.636  1.00  0.00    -0.280 C  
HETATM    7  C   UNL     1     -10.566  11.950  67.205  1.00  0.00    -0.231 C  
ENDROOT
BRANCH   4   8
HETATM    8  C   UNL     1     -10.174  15.533  67.616  1.00  0.00    -0.255 A  
HETATM    9  C   UNL     1      -9.894  16.007  68.899  1.00  0.00    -0.232 A  
HETATM   10  C   UNL     1      -9.879  17.374  69.177  1.00  0.00    -0.158 A  
HETATM   11  C   UNL     1     -10.454  16.471  66.613  1.00  0.00    -0.266 A  
HETATM   12  C   UNL     1     -10.747  18.789  65.731  1.00  0.00    -0.263 C  
HETATM   13  C   UNL     1     -10.446  17.857  66.874  1.00  0.00    -0.334 A  
HETATM   14  C   UNL     1     -10.150  18.312  68.172  1.00  0.00    -0.397 A  
HETATM   15  C   UNL     1     -10.125  19.770  68.533  1.00  0.00    -0.555 C  
ENDBRANCH   4   8
BRANCH   7  16
HETATM   16  N   UNL     1     -11.038  10.747  67.297  1.00  0.00    -0.305 NA 
HETATM   17  H   UNL     1     -11.648  10.354  66.580  1.00  0.00     0.000 HD 
BRANCH  16  18
HETATM   18  N   UNL     1     -10.677  10.033  68.403  1.00  0.00    -0.223 NA 
HETATM   19  H   UNL     1     -10.455  10.519  69.271  1.00  0.00     0.000 HD 
BRANCH  18  20
HETATM   20  C   UNL     1     -10.608   8.623  68.351  1.00  0.00    -0.120 A  
HETATM   21  C   UNL     1     -10.474   7.841  69.515  1.00  0.00    -0.225 A  
HETATM   22  C   UNL     1     -10.492   6.433  69.503  1.00  0.00    -0.279 A  
HETATM   23  O   UNL     1     -10.323   8.500  70.720  1.00  0.00    -0.190 OA 
HETATM   24  C   UNL     1     -10.671   7.959  67.124  1.00  0.00    -0.306 A  
HETATM   25  C   UNL     1     -10.524   5.810  68.247  1.00  0.00    -0.281 A  
HETATM   26  H   UNL     1     -10.233   7.972  71.504  1.00  0.00     0.000 HD 
HETATM   27  C   UNL     1     -10.606   6.563  67.070  1.00  0.00    -0.402 A  
BRANCH  22  28
HETATM   28  C   UNL     1     -10.610   5.653  70.753  1.00  0.00    -0.335 A  
HETATM   29  C   UNL     1     -11.443   6.023  71.819  1.00  0.00    -0.314 A  
HETATM   30  C   UNL     1     -11.466   5.275  73.005  1.00  0.00    -0.340 A  
HETATM   31  C   UNL     1     -10.686   4.124  73.129  1.00  0.00    -0.277 A  
HETATM   32  C   UNL     1      -9.878   3.722  72.068  1.00  0.00    -0.243 A  
HETATM   33  C   UNL     1      -9.809   4.509  70.920  1.00  0.00    -0.269 A  
HETATM   34  C   UNL     1      -9.070   2.484  72.183  1.00  0.00    -0.085 C  
HETATM   35  O   UNL     1      -8.940   1.814  71.014  1.00  0.00    -0.060 OA 
HETATM   36  O   UNL     1      -8.602   2.095  73.233  1.00  0.00    -0.064 OA 
ENDBRANCH  22  28
ENDBRANCH  18  20
ENDBRANCH  16  18
ENDBRANCH   7  16
TORSDOF 5
ENDMDL
MODEL      129
REMARK 921   NORMALIZED FREE ENERGY PREDICTED BY IDOCK:   -5.90 KCAL/MOL
REMARK 922        TOTAL FREE ENERGY PREDICTED BY IDOCK:   -8.93 KCAL/MOL
REMARK 923 INTER-LIGAND FREE ENERGY PREDICTED BY IDOCK:   -8.19 KCAL/MOL
REMARK 924 INTRA-LIGAND FREE ENERGY PREDICTED BY IDOCK:   -0.74 KCAL/MOL
REMARK 927      BINDING AFFINITY PREDICTED BY RF-SCORE:    0.00 PKD
ROOT
HETATM    1  C   UNL     1      -8.097  11.913  68.459  1.00  0.00    -0.130 C  
HETATM    2  C   UNL     1      -8.954  13.104  68.241  1.00  0.00    -0.175 C  
HETATM    3  N   UNL     1      -8.572  14.337  68.070  1.00  0.00    -0.160 NA 
HETATM    4  N   UNL     1      -9.735  15.109  67.881  1.00  0.00    -0.207 N  
HETATM    5  O   UNL     1     -12.097  14.659  67.797  1.00  0.00    -0.314 OA 
HETATM    6  C   UNL     1     -10.918  14.387  67.916  1.00  0.00    -0.262 C  
HETATM    7  C   UNL     1     -10.433  13.008  68.194  1.00  0.00    -0.245 C  
ENDROOT
BRANCH   4   8
HETATM    8  C   UNL     1      -9.616  16.510  67.723  1.00  0.00    -0.232 A  
HETATM    9  C   UNL     1     -10.574  17.234  67.009  1.00  0.00    -0.231 A  
HETATM   10  C   UNL     1     -10.477  18.618  66.871  1.00  0.00    -0.449 A  
HETATM   11  C   UNL     1      -8.543  17.214  68.287  1.00  0.00    -0.241 A  
HETATM   12  C   UNL     1      -7.247  19.284  68.807  1.00  0.00    -0.380 C  
HETATM   13  C   UNL     1      -8.427  18.613  68.156  1.00  0.00    -0.336 A  
HETATM   14  C   UNL     1      -9.410  19.323  67.442  1.00  0.00    -0.368 A  
HETATM   15  C   UNL     1      -9.357  20.813  67.255  1.00  0.00    -0.418 C  
ENDBRANCH   4   8
BRANCH   7  16
HETATM   16  N   UNL     1     -11.108  11.919  68.388  1.00  0.00    -0.225 NA 
HETATM   17  H   UNL     1     -11.320  11.580  69.327  1.00  0.00     0.000 HD 
BRANCH  16  18
HETATM   18  N   UNL     1     -11.520  11.248  67.273  1.00  0.00    -0.510 NA 
HETATM   19  H   UNL     1     -12.470  11.376  66.927  1.00  0.00     0.000 HD 
BRANCH  18  20
HETATM   20  C   UNL     1     -10.637  10.379  66.596  1.00  0.00    -0.178 A  
HETATM   21  C   UNL     1     -10.377   9.074  67.059  1.00  0.00    -0.269 A  
HETATM   22  C   UNL     1      -9.573   8.154  66.358  1.00  0.00    -0.286 A  
HETATM   23  O   UNL     1     -10.949   8.689  68.255  1.00  0.00    -0.453 OA 
HETATM   24  C   UNL     1      -9.988  10.798  65.432  1.00  0.00    -0.330 A  
HETATM   25  C   UNL     1      -8.916   8.630  65.213  1.00  0.00    -0.150 A  
HETATM   26  H   UNL     1     -10.773   7.809  68.567  1.00  0.00     0.000 HD 
HETATM   27  C   UNL     1      -9.116   9.938  64.758  1.00  0.00    -0.283 A  
BRANCH  22  28
HETATM   28  C   UNL     1      -9.531   6.725  66.732  1.00  0.00    -0.199 A  
HETATM   29  C   UNL     1      -9.350   6.276  68.049  1.00  0.00    -0.114 A  
HETATM   30  C   UNL     1      -9.258   4.906  68.333  1.00  0.00    -0.157 A  
HETATM   31  C   UNL     1      -9.384   3.962  67.312  1.00  0.00    -0.220 A  
HETATM   32  C   UNL     1      -9.599   4.389  66.003  1.00  0.00    -0.190 A  
HETATM   33  C   UNL     1      -9.620   5.753  65.719  1.00  0.00     0.048 A  
HETATM   34  C   UNL     1      -9.763   3.391  64.920  1.00  0.00    -0.135 C  
HETATM   35  O   UNL     1     -10.629   3.780  63.954  1.00  0.00    -0.253 OA 
HETATM   36  O   UNL     1      -9.202   2.315  64.920  1.00  0.00    -0.135 OA 
ENDBRANCH  22  28
ENDBRANCH  18  20
ENDBRANCH  16  18
ENDBRANCH   7  16
TORSDOF 5
ENDMDL
MODEL      130
REMARK 921   NORMALIZED FREE ENERGY PREDICTED BY IDOCK:   -5.83 KCAL/MOL
REMARK 922        TOTAL FREE ENERGY PREDICTED BY IDOCK:   -8.84 KCAL/MOL
REMARK 923 INTER-LIGAND FREE ENERGY PREDICTED BY IDOCK:   -7.61 KCAL/MOL
REMARK 924 INTRA-LIGAND FREE ENERGY PREDICTED BY IDOCK:   -1.23 KCAL/MOL
REMARK 927      BINDING AFFINITY PREDICTED BY RF-SCORE:    0.00 PKD
ROOT
HETATM    1  C   UNL     1      -8.097  11.521  66.919  1.00  0.00    -0.164 C  
HETATM    2  C   UNL     1      -8.922  12.705  67.262  1.00  0.00    -0.194 C  
HETATM    3  N   UNL     1      -8.880  13.887  66.717  1.00  0.00    -0.196 NA 
HETATM    4  N   UNL     1      -9.859  14.673  67.356  1.00  0.00    -0.221 N  
HETATM    5  O   UNL     1     -11.480  14.312  69.097  1.00  0.00    -0.257 OA 
HETATM    6  C   UNL     1     -10.578  14.011  68.339  1.00  0.00    -0.254 C  
HETATM    7  C   UNL     1      -9.946  12.664  68.334  1.00  0.00    -0.210 C  
ENDROOT
BRANCH   4   8
HETATM    8  C   UNL     1      -9.997  16.033  66.992  1.00  0.00    -0.257 A  
HETATM    9  C   UNL     1     -10.483  16.393  65.733  1.00  0.00    -0.369 A  
HETATM   10  C   UNL     1     -10.647  17.731  65.377  1.00  0.00     0.074 A  
HETATM   11  C   UNL     1      -9.665  17.059  67.888  1.00  0.00    -0.263 A  
HETATM   12  C   UNL     1      -9.450  19.450  68.577  1.00  0.00    -0.451 C  
HETATM   13  C   UNL     1      -9.821  18.419  67.546  1.00  0.00    -0.327 A  
HETATM   14  C   UNL     1     -10.323  18.757  66.276  1.00  0.00    -0.497 A  
HETATM   15  C   UNL     1     -10.516  20.179  65.833  1.00  0.00    -0.427 C  
ENDBRANCH   4   8
BRANCH   7  16
HETATM   16  N   UNL     1     -10.178  11.640  69.093  1.00  0.00    -0.416 NA 
HETATM   17  H   UNL     1      -9.808  11.581  70.041  1.00  0.00     0.000 HD 
BRANCH  16  18
HETATM   18  N   UNL     1     -10.944  10.644  68.557  1.00  0.00    -0.229 NA 
HETATM   19  H   UNL     1     -11.913  10.831  68.302  1.00  0.00     0.000 HD 
BRANCH  18  20
HETATM   20  C   UNL     1     -10.400   9.356  68.355  1.00  0.00    -0.205 A  
HETATM   21  C   UNL     1      -9.810   8.625  69.405  1.00  0.00    -0.184 A  
HETATM   22  C   UNL     1      -9.341   7.305  69.254  1.00  0.00    -0.154 A  
HETATM   23  O   UNL     1      -9.696   9.241  70.635  1.00  0.00    -0.232 OA 
HETATM   24  C   UNL     1     -10.435   8.767  67.090  1.00  0.00    -0.354 A  
HETATM   25  C   UNL     1      -9.365   6.767  67.959  1.00  0.00    -0.118 A  
HETATM   26  H   UNL     1      -9.298   8.748  71.342  1.00  0.00     0.000 HD 
HETATM   27  C   UNL     1      -9.900   7.491  66.888  1.00  0.00    -0.295 A  
BRANCH  22  28
HETATM   28  C   UNL     1      -8.969   6.482  70.424  1.00  0.00    -0.152 A  
HETATM   29  C   UNL     1      -7.643   6.194  70.777  1.00  0.00    -0.096 A  
HETATM   30  C   UNL     1      -7.355   5.356  71.863  1.00  0.00    -0.091 A  
HETATM   31  C   UNL     1      -8.388   4.823  72.638  1.00  0.00    -0.112 A  
HETATM   32  C   UNL     1      -9.711   5.126  72.324  1.00  0.00    -0.201 A  
HETATM   33  C   UNL     1      -9.990   5.903  71.202  1.00  0.00    -0.236 A  
HETATM   34  C   UNL     1     -10.809   4.588  73.161  1.00  0.00    -0.254 C  
HETATM   35  O   UNL     1     -11.864   5.430  73.272  1.00  0.00    -0.090 OA 
HETATM   36  O   UNL     1     -10.750   3.513  73.718  1.00  0.00    -0.182 OA 
ENDBRANCH  22  28
ENDBRANCH  18  20
ENDBRANCH  16  18
ENDBRANCH   7  16
TORSDOF 5
ENDMDL
MODEL      131
REMARK 921   NORMALIZED FREE ENERGY PREDICTED BY IDOCK:   -5.80 KCAL/MOL
REMARK 922        TOTAL FREE ENERGY PREDICTED BY IDOCK:   -8.80 KCAL/MOL
REMARK 923 INTER-LIGAND FREE ENERGY PREDICTED BY IDOCK:   -7.58 KCAL/MOL
REMARK 924 INTRA-LIGAND FREE ENERGY PREDICTED BY IDOCK:   -1.22 KCAL/MOL
REMARK 927      BINDING AFFINITY PREDICTED BY RF-SCORE:    0.00 PKD
ROOT
HETATM    1  C   UNL     1      -9.863   9.848  65.209  1.00  0.00    -0.373 C  
HETATM    2  C   UNL     1      -9.293  11.041  65.882  1.00  0.00    -0.204 C  
HETATM    3  N   UNL     1      -9.890  12.168  66.140  1.00  0.00    -0.233 NA 
HETATM    4  N   UNL     1      -8.958  12.987  66.807  1.00  0.00    -0.207 N  
HETATM    5  O   UNL     1      -6.674  12.752  67.529  1.00  0.00    -0.135 OA 
HETATM    6  C   UNL     1      -7.717  12.402  67.010  1.00  0.00    -0.063 C  
HETATM    7  C   UNL     1      -7.889  11.074  66.360  1.00  0.00    -0.150 C  
ENDROOT
BRANCH   4   8
HETATM    8  C   UNL     1      -9.327  14.306  67.164  1.00  0.00    -0.228 A  
HETATM    9  C   UNL     1      -9.001  15.388  66.343  1.00  0.00    -0.351 A  
HETATM   10  C   UNL     1      -9.384  16.687  66.675  1.00  0.00    -0.272 A  
HETATM   11  C   UNL     1     -10.043  14.564  68.341  1.00  0.00    -0.241 A  
HETATM   12  C   UNL     1     -11.214  16.050  69.972  1.00  0.00    -0.362 C  
HETATM   13  C   UNL     1     -10.437  15.871  68.694  1.00  0.00    -0.240 A  
HETATM   14  C   UNL     1     -10.107  16.944  67.847  1.00  0.00    -0.288 A  
HETATM   15  C   UNL     1     -10.487  18.365  68.153  1.00  0.00    -0.355 C  
ENDBRANCH   4   8
BRANCH   7  16
HETATM   16  N   UNL     1      -7.030  10.119  66.195  1.00  0.00    -0.106 NA 
HETATM   17  H   UNL     1      -6.283  10.184  65.503  1.00  0.00     0.000 HD 
BRANCH  16  18
HETATM   18  N   UNL     1      -7.176   9.021  66.993  1.00  0.00    -0.085 NA 
HETATM   19  H   UNL     1      -7.296   8.100  66.572  1.00  0.00     0.000 HD 
BRANCH  18  20
HETATM   20  C   UNL     1      -7.163   9.154  68.399  1.00  0.00    -0.077 A  
HETATM   21  C   UNL     1      -8.319   8.944  69.176  1.00  0.00    -0.124 A  
HETATM   22  C   UNL     1      -8.316   8.982  70.585  1.00  0.00    -0.214 A  
HETATM   23  O   UNL     1      -9.503   8.686  68.515  1.00  0.00    -0.141 OA 
HETATM   24  C   UNL     1      -5.985   9.503  69.063  1.00  0.00    -0.042 A  
HETATM   25  C   UNL     1      -7.120   9.368  71.207  1.00  0.00     0.045 A  
HETATM   26  H   UNL     1     -10.282   8.545  69.039  1.00  0.00     0.000 HD 
HETATM   27  C   UNL     1      -5.969   9.632  70.455  1.00  0.00    -0.066 A  
BRANCH  22  28
HETATM   28  C   UNL     1      -9.475   8.506  71.370  1.00  0.00    -0.279 A  
HETATM   29  C   UNL     1      -9.447   7.354  72.169  1.00  0.00    -0.169 A  
HETATM   30  C   UNL     1     -10.597   6.919  72.842  1.00  0.00    -0.290 A  
HETATM   31  C   UNL     1     -11.783   7.651  72.759  1.00  0.00    -0.276 A  
HETATM   32  C   UNL     1     -11.821   8.817  71.998  1.00  0.00    -0.442 A  
HETATM   33  C   UNL     1     -10.693   9.204  71.277  1.00  0.00    -0.401 A  
HETATM   34  C   UNL     1     -13.069   9.614  71.931  1.00  0.00    -0.436 C  
HETATM   35  O   UNL     1     -12.852  10.948  71.842  1.00  0.00    -0.425 OA 
HETATM   36  O   UNL     1     -14.174   9.118  71.986  1.00  0.00    -0.345 OA 
ENDBRANCH  22  28
ENDBRANCH  18  20
ENDBRANCH  16  18
ENDBRANCH   7  16
TORSDOF 5
ENDMDL
MODEL      132
REMARK 921   NORMALIZED FREE ENERGY PREDICTED BY IDOCK:   -5.78 KCAL/MOL
REMARK 922        TOTAL FREE ENERGY PREDICTED BY IDOCK:   -8.77 KCAL/MOL
REMARK 923 INTER-LIGAND FREE ENERGY PREDICTED BY IDOCK:   -7.30 KCAL/MOL
REMARK 924 INTRA-LIGAND FREE ENERGY PREDICTED BY IDOCK:   -1.47 KCAL/MOL
REMARK 927      BINDING AFFINITY PREDICTED BY RF-SCORE:    0.00 PKD
ROOT
HETATM    1  C   UNL     1      -7.050  10.867  66.535  1.00  0.00    -0.139 C  
HETATM    2  C   UNL     1      -7.836   9.618  66.388  1.00  0.00    -0.101 C  
HETATM    3  N   UNL     1      -7.467   8.509  65.814  1.00  0.00    -0.080 NA 
HETATM    4  N   UNL     1      -8.537   7.601  65.939  1.00  0.00    -0.145 N  
HETATM    5  O   UNL     1     -10.730   7.660  66.928  1.00  0.00    -0.351 OA 
HETATM    6  C   UNL     1      -9.641   8.101  66.613  1.00  0.00    -0.229 C  
HETATM    7  C   UNL     1      -9.219   9.496  66.912  1.00  0.00    -0.143 C  
ENDROOT
BRANCH   4   8
HETATM    8  C   UNL     1      -8.427   6.319  65.351  1.00  0.00    -0.129 A  
HETATM    9  C   UNL     1      -8.099   6.176  64.001  1.00  0.00    -0.074 A  
HETATM   10  C   UNL     1      -7.963   4.915  63.420  1.00  0.00    -0.090 A  
HETATM   11  C   UNL     1      -8.629   5.156  66.107  1.00  0.00    -0.117 A  
HETATM   12  C   UNL     1      -8.723   2.682  66.430  1.00  0.00    -0.124 C  
HETATM   13  C   UNL     1      -8.499   3.872  65.537  1.00  0.00    -0.109 A  
HETATM   14  C   UNL     1      -8.156   3.753  64.178  1.00  0.00    -0.089 A  
HETATM   15  C   UNL     1      -8.001   2.423  63.496  1.00  0.00    -0.073 C  
ENDBRANCH   4   8
BRANCH   7  16
HETATM   16  N   UNL     1      -9.878  10.454  67.483  1.00  0.00    -0.169 NA 
HETATM   17  H   UNL     1      -9.583  10.849  68.376  1.00  0.00     0.000 HD 
BRANCH  16  18
HETATM   18  N   UNL     1     -10.987  10.906  66.829  1.00  0.00    -0.228 NA 
HETATM   19  H   UNL     1     -11.845  10.355  66.843  1.00  0.00     0.000 HD 
BRANCH  18  20
HETATM   20  C   UNL     1     -10.954  12.135  66.133  1.00  0.00    -0.298 A  
HETATM   21  C   UNL     1     -10.407  13.300  66.707  1.00  0.00    -0.257 A  
HETATM   22  C   UNL     1     -10.278  14.515  66.006  1.00  0.00    -0.329 A  
HETATM   23  O   UNL     1      -9.976  13.232  68.017  1.00  0.00    -0.220 OA 
HETATM   24  C   UNL     1     -11.471  12.227  64.839  1.00  0.00    -0.382 A  
HETATM   25  C   UNL     1     -10.841  14.570  64.723  1.00  0.00    -0.410 A  
HETATM   26  H   UNL     1      -9.607  14.017  68.403  1.00  0.00     0.000 HD 
HETATM   27  C   UNL     1     -11.436  13.441  64.147  1.00  0.00    -0.421 A  
BRANCH  22  28
HETATM   28  C   UNL     1      -9.472  15.632  66.543  1.00  0.00    -0.300 A  
HETATM   29  C   UNL     1      -8.075  15.590  66.662  1.00  0.00    -0.189 A  
HETATM   30  C   UNL     1      -7.372  16.657  67.236  1.00  0.00    -0.203 A  
HETATM   31  C   UNL     1      -8.049  17.801  67.665  1.00  0.00    -0.223 A  
HETATM   32  C   UNL     1      -9.433  17.875  67.523  1.00  0.00    -0.258 A  
HETATM   33  C   UNL     1     -10.131  16.782  67.015  1.00  0.00    -0.276 A  
HETATM   34  C   UNL     1     -10.153  19.098  67.949  1.00  0.00    -0.386 C  
HETATM   35  O   UNL     1     -11.226  19.390  67.175  1.00  0.00    -0.351 OA 
HETATM   36  O   UNL     1      -9.793  19.788  68.879  1.00  0.00    -0.410 OA 
ENDBRANCH  22  28
ENDBRANCH  18  20
ENDBRANCH  16  18
ENDBRANCH   7  16
TORSDOF 5
ENDMDL
MODEL      133
REMARK 921   NORMALIZED FREE ENERGY PREDICTED BY IDOCK:   -5.77 KCAL/MOL
REMARK 922        TOTAL FREE ENERGY PREDICTED BY IDOCK:   -8.75 KCAL/MOL
REMARK 923 INTER-LIGAND FREE ENERGY PREDICTED BY IDOCK:   -7.16 KCAL/MOL
REMARK 924 INTRA-LIGAND FREE ENERGY PREDICTED BY IDOCK:   -1.59 KCAL/MOL
REMARK 927      BINDING AFFINITY PREDICTED BY RF-SCORE:    0.00 PKD
ROOT
HETATM    1  C   UNL     1      -6.625  11.235  67.410  1.00  0.00    -0.081 C  
HETATM    2  C   UNL     1      -7.533  10.098  67.701  1.00  0.00    -0.090 C  
HETATM    3  N   UNL     1      -7.486   8.897  67.201  1.00  0.00    -0.084 NA 
HETATM    4  N   UNL     1      -8.536   8.163  67.788  1.00  0.00    -0.131 N  
HETATM    5  O   UNL     1     -10.253   8.623  69.410  1.00  0.00    -0.200 OA 
HETATM    6  C   UNL     1      -9.295   8.875  68.704  1.00  0.00    -0.140 C  
HETATM    7  C   UNL     1      -8.664  10.221  68.652  1.00  0.00    -0.133 C  
ENDROOT
BRANCH   4   8
HETATM    8  C   UNL     1      -8.754   6.825  67.383  1.00  0.00    -0.119 A  
HETATM    9  C   UNL     1      -9.115   6.525  66.067  1.00  0.00    -0.111 A  
HETATM   10  C   UNL     1      -9.307   5.207  65.653  1.00  0.00    -0.149 A  
HETATM   11  C   UNL     1      -8.602   5.761  68.283  1.00  0.00    -0.112 A  
HETATM   12  C   UNL     1      -8.596   3.346  68.918  1.00  0.00    -0.120 C  
HETATM   13  C   UNL     1      -8.794   4.422  67.884  1.00  0.00    -0.124 A  
HETATM   14  C   UNL     1      -9.146   4.143  66.551  1.00  0.00    -0.137 A  
HETATM   15  C   UNL     1      -9.371   2.746  66.047  1.00  0.00    -0.026 C  
ENDBRANCH   4   8
BRANCH   7  16
HETATM   16  N   UNL     1      -8.997  11.314  69.264  1.00  0.00    -0.380 NA 
HETATM   17  H   UNL     1      -8.354  11.792  69.895  1.00  0.00     0.000 HD 
BRANCH  16  18
HETATM   18  N   UNL     1     -10.252  11.792  69.021  1.00  0.00    -0.408 NA 
HETATM   19  H   UNL     1     -11.016  11.556  69.654  1.00  0.00     0.000 HD 
BRANCH  18  20
HETATM   20  C   UNL     1     -10.499  12.610  67.896  1.00  0.00    -0.218 A  
HETATM   21  C   UNL     1     -10.145  13.973  67.877  1.00  0.00    -0.237 A  
HETATM   22  C   UNL     1     -10.296  14.791  66.740  1.00  0.00    -0.268 A  
HETATM   23  O   UNL     1      -9.622  14.520  69.032  1.00  0.00    -0.317 OA 
HETATM   24  C   UNL     1     -11.110  12.079  66.758  1.00  0.00    -0.353 A  
HETATM   25  C   UNL     1     -10.944  14.225  65.632  1.00  0.00    -0.309 A  
HETATM   26  H   UNL     1      -9.384  15.439  69.018  1.00  0.00     0.000 HD 
HETATM   27  C   UNL     1     -11.352  12.886  65.642  1.00  0.00    -0.344 A  
BRANCH  22  28
HETATM   28  C   UNL     1      -9.682  16.134  66.670  1.00  0.00    -0.260 A  
HETATM   29  C   UNL     1     -10.400  17.324  66.860  1.00  0.00    -0.310 A  
HETATM   30  C   UNL     1      -9.774  18.570  66.720  1.00  0.00    -0.345 A  
HETATM   31  C   UNL     1      -8.411  18.647  66.427  1.00  0.00    -0.292 A  
HETATM   32  C   UNL     1      -7.674  17.476  66.269  1.00  0.00    -0.334 A  
HETATM   33  C   UNL     1      -8.318  16.243  66.341  1.00  0.00    -0.365 A  
HETATM   34  C   UNL     1      -6.220  17.551  65.987  1.00  0.00    -0.164 C  
HETATM   35  O   UNL     1      -5.509  16.544  66.547  1.00  0.00    -0.327 OA 
HETATM   36  O   UNL     1      -5.717  18.449  65.346  1.00  0.00    -0.178 OA 
ENDBRANCH  22  28
ENDBRANCH  18  20
ENDBRANCH  16  18
ENDBRANCH   7  16
TORSDOF 5
ENDMDL
MODEL      134
REMARK 921   NORMALIZED FREE ENERGY PREDICTED BY IDOCK:   -5.70 KCAL/MOL
REMARK 922        TOTAL FREE ENERGY PREDICTED BY IDOCK:   -8.67 KCAL/MOL
REMARK 923 INTER-LIGAND FREE ENERGY PREDICTED BY IDOCK:   -8.01 KCAL/MOL
REMARK 924 INTRA-LIGAND FREE ENERGY PREDICTED BY IDOCK:   -0.66 KCAL/MOL
REMARK 927      BINDING AFFINITY PREDICTED BY RF-SCORE:    0.00 PKD
ROOT
HETATM    1  C   UNL     1      -8.738  10.378  69.288  1.00  0.00    -0.160 C  
HETATM    2  C   UNL     1      -9.475  11.429  68.544  1.00  0.00    -0.183 C  
HETATM    3  N   UNL     1      -9.120  12.667  68.357  1.00  0.00    -0.168 NA 
HETATM    4  N   UNL     1     -10.124  13.273  67.576  1.00  0.00    -0.221 N  
HETATM    5  O   UNL     1     -12.190  12.549  66.577  1.00  0.00    -0.569 OA 
HETATM    6  C   UNL     1     -11.167  12.429  67.223  1.00  0.00    -0.303 C  
HETATM    7  C   UNL     1     -10.781  11.159  67.894  1.00  0.00    -0.216 C  
ENDROOT
BRANCH   4   8
HETATM    8  C   UNL     1     -10.019  14.648  67.263  1.00  0.00    -0.235 A  
HETATM    9  C   UNL     1     -11.128  15.492  67.361  1.00  0.00    -0.285 A  
HETATM   10  C   UNL     1     -11.027  16.854  67.079  1.00  0.00     0.066 A  
HETATM   11  C   UNL     1      -8.799  15.208  66.858  1.00  0.00    -0.284 A  
HETATM   12  C   UNL     1      -7.325  17.096  66.151  1.00  0.00    -0.281 C  
HETATM   13  C   UNL     1      -8.678  16.583  66.566  1.00  0.00    -0.317 A  
HETATM   14  C   UNL     1      -9.806  17.415  66.684  1.00  0.00    -0.300 A  
HETATM   15  C   UNL     1      -9.761  18.888  66.388  1.00  0.00    -0.395 C  
ENDBRANCH   4   8
BRANCH   7  16
HETATM   16  N   UNL     1     -11.416  10.032  67.956  1.00  0.00    -0.610 NA 
HETATM   17  H   UNL     1     -12.098   9.841  68.690  1.00  0.00     0.000 HD 
BRANCH  16  18
HETATM   18  N   UNL     1     -11.127   9.113  66.988  1.00  0.00    -0.137 NA 
HETATM   19  H   UNL     1     -11.620   9.143  66.097  1.00  0.00     0.000 HD 
BRANCH  18  20
HETATM   20  C   UNL     1     -10.147   8.122  67.216  1.00  0.00    -0.241 A  
HETATM   21  C   UNL     1     -10.177   7.294  68.356  1.00  0.00    -0.180 A  
HETATM   22  C   UNL     1      -9.267   6.239  68.565  1.00  0.00    -0.123 A  
HETATM   23  O   UNL     1     -11.152   7.537  69.303  1.00  0.00    -0.429 OA 
HETATM   24  C   UNL     1      -9.108   7.934  66.302  1.00  0.00    -0.224 A  
HETATM   25  C   UNL     1      -8.222   6.110  67.639  1.00  0.00    -0.113 A  
HETATM   26  H   UNL     1     -11.172   6.979  70.071  1.00  0.00     0.000 HD 
HETATM   27  C   UNL     1      -8.139   6.951  66.524  1.00  0.00    -0.111 A  
BRANCH  22  28
HETATM   28  C   UNL     1      -9.483   5.237  69.630  1.00  0.00    -0.196 A  
HETATM   29  C   UNL     1      -9.336   3.856  69.433  1.00  0.00    -0.246 A  
HETATM   30  C   UNL     1      -9.614   2.950  70.466  1.00  0.00    -0.172 A  
HETATM   31  C   UNL     1     -10.006   3.412  71.724  1.00  0.00    -0.194 A  
HETATM   32  C   UNL     1     -10.124   4.781  71.949  1.00  0.00    -0.264 A  
HETATM   33  C   UNL     1      -9.912   5.671  70.897  1.00  0.00    -0.251 A  
HETATM   34  C   UNL     1     -10.510   5.278  73.291  1.00  0.00    -0.224 C  
HETATM   35  O   UNL     1      -9.925   6.454  73.620  1.00  0.00    -0.177 OA 
HETATM   36  O   UNL     1     -11.252   4.670  74.033  1.00  0.00    -0.265 OA 
ENDBRANCH  22  28
ENDBRANCH  18  20
ENDBRANCH  16  18
ENDBRANCH   7  16
TORSDOF 5
ENDMDL
MODEL      135
REMARK 921   NORMALIZED FREE ENERGY PREDICTED BY IDOCK:   -5.69 KCAL/MOL
REMARK 922        TOTAL FREE ENERGY PREDICTED BY IDOCK:   -8.65 KCAL/MOL
REMARK 923 INTER-LIGAND FREE ENERGY PREDICTED BY IDOCK:   -7.40 KCAL/MOL
REMARK 924 INTRA-LIGAND FREE ENERGY PREDICTED BY IDOCK:   -1.25 KCAL/MOL
REMARK 927      BINDING AFFINITY PREDICTED BY RF-SCORE:    0.00 PKD
ROOT
HETATM    1  C   UNL     1     -12.917   8.045  72.488  1.00  0.00     0.003 C  
HETATM    2  C   UNL     1     -11.795   7.221  71.977  1.00  0.00    -0.296 C  
HETATM    3  N   UNL     1     -11.154   6.276  72.602  1.00  0.00    -0.253 NA 
HETATM    4  N   UNL     1     -10.188   5.769  71.709  1.00  0.00    -0.191 N  
HETATM    5  O   UNL     1      -9.538   6.236  69.440  1.00  0.00    -0.141 OA 
HETATM    6  C   UNL     1     -10.183   6.374  70.461  1.00  0.00    -0.189 C  
HETATM    7  C   UNL     1     -11.249   7.402  70.609  1.00  0.00    -0.270 C  
ENDROOT
BRANCH   4   8
HETATM    8  C   UNL     1      -9.304   4.757  72.150  1.00  0.00    -0.136 A  
HETATM    9  C   UNL     1      -9.384   3.462  71.634  1.00  0.00    -0.206 A  
HETATM   10  C   UNL     1      -8.499   2.464  72.044  1.00  0.00    -0.071 A  
HETATM   11  C   UNL     1      -8.315   5.025  73.107  1.00  0.00    -0.108 A  
HETATM   12  C   UNL     1      -6.376   4.414  74.558  1.00  0.00    -0.052 C  
HETATM   13  C   UNL     1      -7.413   4.030  73.536  1.00  0.00    -0.075 A  
HETATM   14  C   UNL     1      -7.505   2.735  72.993  1.00  0.00    -0.045 A  
HETATM   15  C   UNL     1      -6.585   1.619  73.400  1.00  0.00    -0.014 C  
ENDBRANCH   4   8
BRANCH   7  16
HETATM   16  N   UNL     1     -11.647   8.306  69.770  1.00  0.00    -0.320 NA 
HETATM   17  H   UNL     1     -12.454   8.156  69.164  1.00  0.00     0.000 HD 
BRANCH  16  18
HETATM   18  N   UNL     1     -10.931   9.467  69.739  1.00  0.00    -0.254 NA 
HETATM   19  H   UNL     1     -10.892  10.061  70.567  1.00  0.00     0.000 HD 
BRANCH  18  20
HETATM   20  C   UNL     1     -10.245   9.851  68.566  1.00  0.00    -0.177 A  
HETATM   21  C   UNL     1     -10.858  10.632  67.567  1.00  0.00    -0.296 A  
HETATM   22  C   UNL     1     -10.173  11.105  66.431  1.00  0.00    -0.279 A  
HETATM   23  O   UNL     1     -12.193  10.946  67.724  1.00  0.00    -0.445 OA 
HETATM   24  C   UNL     1      -8.919   9.459  68.364  1.00  0.00    -0.128 A  
HETATM   25  C   UNL     1      -8.855  10.659  66.253  1.00  0.00    -0.172 A  
HETATM   26  H   UNL     1     -12.607  11.473  67.050  1.00  0.00     0.000 HD 
HETATM   27  C   UNL     1      -8.236   9.841  67.205  1.00  0.00    -0.117 A  
BRANCH  22  28
HETATM   28  C   UNL     1     -10.767  12.127  65.543  1.00  0.00    -0.321 A  
HETATM   29  C   UNL     1     -11.576  11.818  64.440  1.00  0.00    -0.325 A  
HETATM   30  C   UNL     1     -12.060  12.829  63.599  1.00  0.00    -0.624 A  
HETATM   31  C   UNL     1     -11.776  14.169  63.868  1.00  0.00    -0.120 A  
HETATM   32  C   UNL     1     -11.002  14.498  64.979  1.00  0.00    -0.408 A  
HETATM   33  C   UNL     1     -10.468  13.483  65.770  1.00  0.00    -0.293 A  
HETATM   34  C   UNL     1     -10.722  15.921  65.288  1.00  0.00    -0.424 C  
HETATM   35  O   UNL     1     -10.650  16.181  66.615  1.00  0.00    -0.311 OA 
HETATM   36  O   UNL     1     -10.605  16.772  64.432  1.00  0.00    -0.342 OA 
ENDBRANCH  22  28
ENDBRANCH  18  20
ENDBRANCH  16  18
ENDBRANCH   7  16
TORSDOF 5
ENDMDL
MODEL      136
REMARK 921   NORMALIZED FREE ENERGY PREDICTED BY IDOCK:   -5.67 KCAL/MOL
REMARK 922        TOTAL FREE ENERGY PREDICTED BY IDOCK:   -8.62 KCAL/MOL
REMARK 923 INTER-LIGAND FREE ENERGY PREDICTED BY IDOCK:   -7.64 KCAL/MOL
REMARK 924 INTRA-LIGAND FREE ENERGY PREDICTED BY IDOCK:   -0.99 KCAL/MOL
REMARK 927      BINDING AFFINITY PREDICTED BY RF-SCORE:    0.00 PKD
ROOT
HETATM    1  C   UNL     1     -13.354  12.721  72.302  1.00  0.00    -0.563 C  
HETATM    2  C   UNL     1     -12.766  12.511  70.956  1.00  0.00    -0.225 C  
HETATM    3  N   UNL     1     -12.650  13.381  69.995  1.00  0.00    -0.112 NA 
HETATM    4  N   UNL     1     -12.012  12.729  68.921  1.00  0.00    -0.286 N  
HETATM    5  O   UNL     1     -11.144  10.520  68.527  1.00  0.00    -0.242 OA 
HETATM    6  C   UNL     1     -11.685  11.403  69.163  1.00  0.00    -0.342 C  
HETATM    7  C   UNL     1     -12.215  11.199  70.539  1.00  0.00    -0.384 C  
ENDROOT
BRANCH   4   8
HETATM    8  C   UNL     1     -11.804  13.433  67.711  1.00  0.00    -0.358 A  
HETATM    9  C   UNL     1     -12.729  13.354  66.668  1.00  0.00     0.218 A  
HETATM   10  C   UNL     1     -12.544  14.065  65.483  1.00  0.00    -0.543 A  
HETATM   11  C   UNL     1     -10.673  14.241  67.529  1.00  0.00    -0.270 A  
HETATM   12  C   UNL     1      -9.229  15.817  66.237  1.00  0.00    -0.368 C  
HETATM   13  C   UNL     1     -10.467  14.966  66.337  1.00  0.00    -0.301 A  
HETATM   14  C   UNL     1     -11.418  14.880  65.304  1.00  0.00    -0.336 A  
HETATM   15  C   UNL     1     -11.271  15.617  64.004  1.00  0.00     0.343 C  
ENDBRANCH   4   8
BRANCH   7  16
HETATM   16  N   UNL     1     -12.240  10.124  71.262  1.00  0.00    -0.369 NA 
HETATM   17  H   UNL     1     -13.117   9.726  71.600  1.00  0.00     0.000 HD 
BRANCH  16  18
HETATM   18  N   UNL     1     -11.035   9.552  71.548  1.00  0.00    -0.357 NA 
HETATM   19  H   UNL     1     -10.199  10.133  71.611  1.00  0.00     0.000 HD 
BRANCH  18  20
HETATM   20  C   UNL     1     -10.938   8.158  71.757  1.00  0.00    -0.261 A  
HETATM   21  C   UNL     1     -10.492   7.284  70.746  1.00  0.00    -0.212 A  
HETATM   22  C   UNL     1     -10.300   5.903  70.952  1.00  0.00    -0.288 A  
HETATM   23  O   UNL     1     -10.230   7.819  69.500  1.00  0.00    -0.197 OA 
HETATM   24  C   UNL     1     -11.288   7.604  72.990  1.00  0.00    -0.334 A  
HETATM   25  C   UNL     1     -10.696   5.386  72.194  1.00  0.00    -0.286 A  
HETATM   26  H   UNL     1      -9.931   7.229  68.819  1.00  0.00     0.000 HD 
HETATM   27  C   UNL     1     -11.190   6.225  73.200  1.00  0.00    -0.125 A  
BRANCH  22  28
HETATM   28  C   UNL     1      -9.593   5.068  69.959  1.00  0.00    -0.258 A  
HETATM   29  C   UNL     1      -8.588   4.150  70.297  1.00  0.00    -0.104 A  
HETATM   30  C   UNL     1      -7.910   3.430  69.304  1.00  0.00    -0.054 A  
HETATM   31  C   UNL     1      -8.251   3.587  67.959  1.00  0.00    -0.090 A  
HETATM   32  C   UNL     1      -9.270   4.469  67.607  1.00  0.00    -0.160 A  
HETATM   33  C   UNL     1      -9.892   5.231  68.594  1.00  0.00    -0.216 A  
HETATM   34  C   UNL     1      -9.658   4.618  66.184  1.00  0.00    -0.184 C  
HETATM   35  O   UNL     1     -10.980   4.851  66.007  1.00  0.00    -0.245 OA 
HETATM   36  O   UNL     1      -8.870   4.506  65.269  1.00  0.00    -0.129 OA 
ENDBRANCH  22  28
ENDBRANCH  18  20
ENDBRANCH  16  18
ENDBRANCH   7  16
TORSDOF 5
ENDMDL
MODEL      137
REMARK 921   NORMALIZED FREE ENERGY PREDICTED BY IDOCK:   -5.65 KCAL/MOL
REMARK 922        TOTAL FREE ENERGY PREDICTED BY IDOCK:   -8.61 KCAL/MOL
REMARK 923 INTER-LIGAND FREE ENERGY PREDICTED BY IDOCK:   -7.86 KCAL/MOL
REMARK 924 INTRA-LIGAND FREE ENERGY PREDICTED BY IDOCK:   -0.75 KCAL/MOL
REMARK 927      BINDING AFFINITY PREDICTED BY RF-SCORE:    0.00 PKD
ROOT
HETATM    1  C   UNL     1     -11.099  10.354  70.211  1.00  0.00    -0.379 C  
HETATM    2  C   UNL     1     -10.188   9.432  69.488  1.00  0.00    -0.209 C  
HETATM    3  N   UNL     1     -10.476   8.269  68.979  1.00  0.00    -0.217 NA 
HETATM    4  N   UNL     1      -9.301   7.779  68.376  1.00  0.00    -0.143 N  
HETATM    5  O   UNL     1      -7.051   8.585  68.097  1.00  0.00    -0.082 OA 
HETATM    6  C   UNL     1      -8.207   8.626  68.471  1.00  0.00    -0.122 C  
HETATM    7  C   UNL     1      -8.761   9.762  69.258  1.00  0.00    -0.164 C  
ENDROOT
BRANCH   4   8
HETATM    8  C   UNL     1      -9.312   6.493  67.784  1.00  0.00    -0.118 A  
HETATM    9  C   UNL     1      -9.315   6.344  66.396  1.00  0.00    -0.176 A  
HETATM   10  C   UNL     1      -9.301   5.081  65.805  1.00  0.00    -0.167 A  
HETATM   11  C   UNL     1      -9.308   5.334  68.572  1.00  0.00    -0.152 A  
HETATM   12  C   UNL     1      -9.279   2.861  68.919  1.00  0.00    -0.228 C  
HETATM   13  C   UNL     1      -9.296   4.048  67.993  1.00  0.00    -0.220 A  
HETATM   14  C   UNL     1      -9.287   3.922  66.592  1.00  0.00    -0.201 A  
HETATM   15  C   UNL     1      -9.277   2.590  65.898  1.00  0.00    -0.047 C  
ENDBRANCH   4   8
BRANCH   7  16
HETATM   16  N   UNL     1      -8.169  10.827  69.698  1.00  0.00    -0.381 NA 
HETATM   17  H   UNL     1      -8.384  11.220  70.614  1.00  0.00     0.000 HD 
BRANCH  16  18
HETATM   18  N   UNL     1      -7.243  11.397  68.872  1.00  0.00    -0.107 NA 
HETATM   19  H   UNL     1      -6.388  10.891  68.643  1.00  0.00     0.000 HD 
BRANCH  18  20
HETATM   20  C   UNL     1      -7.463  12.684  68.334  1.00  0.00    -0.127 A  
HETATM   21  C   UNL     1      -8.381  12.907  67.289  1.00  0.00    -0.185 A  
HETATM   22  C   UNL     1      -8.687  14.190  66.794  1.00  0.00    -0.148 A  
HETATM   23  O   UNL     1      -9.008  11.808  66.737  1.00  0.00    -0.184 OA 
HETATM   24  C   UNL     1      -6.763  13.785  68.833  1.00  0.00    -0.108 A  
HETATM   25  C   UNL     1      -7.936  15.261  67.301  1.00  0.00    -0.231 A  
HETATM   26  H   UNL     1      -9.626  11.958  66.032  1.00  0.00     0.000 HD 
HETATM   27  C   UNL     1      -6.981  15.062  68.304  1.00  0.00    -0.118 A  
BRANCH  22  28
HETATM   28  C   UNL     1      -9.832  14.412  65.887  1.00  0.00    -0.336 A  
HETATM   29  C   UNL     1     -10.402  15.673  65.655  1.00  0.00    -0.408 A  
HETATM   30  C   UNL     1     -11.527  15.811  64.831  1.00  0.00    -0.193 A  
HETATM   31  C   UNL     1     -12.078  14.697  64.194  1.00  0.00    -0.346 A  
HETATM   32  C   UNL     1     -11.505  13.442  64.385  1.00  0.00    -0.417 A  
HETATM   33  C   UNL     1     -10.430  13.303  65.260  1.00  0.00    -0.324 A  
HETATM   34  C   UNL     1     -12.068  12.261  63.688  1.00  0.00    -0.554 C  
HETATM   35  O   UNL     1     -11.132  11.347  63.335  1.00  0.00    -0.378 OA 
HETATM   36  O   UNL     1     -13.247  12.145  63.429  1.00  0.00    -0.689 OA 
ENDBRANCH  22  28
ENDBRANCH  18  20
ENDBRANCH  16  18
ENDBRANCH   7  16
TORSDOF 5
ENDMDL
MODEL      138
REMARK 921   NORMALIZED FREE ENERGY PREDICTED BY IDOCK:   -5.65 KCAL/MOL
REMARK 922        TOTAL FREE ENERGY PREDICTED BY IDOCK:   -8.61 KCAL/MOL
REMARK 923 INTER-LIGAND FREE ENERGY PREDICTED BY IDOCK:   -6.87 KCAL/MOL
REMARK 924 INTRA-LIGAND FREE ENERGY PREDICTED BY IDOCK:   -1.74 KCAL/MOL
REMARK 927      BINDING AFFINITY PREDICTED BY RF-SCORE:    0.00 PKD
ROOT
HETATM    1  C   UNL     1     -11.065  10.933  69.018  1.00  0.00    -0.302 C  
HETATM    2  C   UNL     1     -10.761  12.126  68.190  1.00  0.00    -0.211 C  
HETATM    3  N   UNL     1     -10.435  13.317  68.602  1.00  0.00    -0.249 NA 
HETATM    4  N   UNL     1     -10.222  14.108  67.456  1.00  0.00    -0.240 N  
HETATM    5  O   UNL     1     -10.310  13.742  65.079  1.00  0.00    -0.359 OA 
HETATM    6  C   UNL     1     -10.397  13.439  66.253  1.00  0.00    -0.291 C  
HETATM    7  C   UNL     1     -10.802  12.081  66.708  1.00  0.00    -0.266 C  
ENDROOT
BRANCH   4   8
HETATM    8  C   UNL     1      -9.903  15.478  67.611  1.00  0.00    -0.213 A  
HETATM    9  C   UNL     1     -10.823  16.368  68.171  1.00  0.00    -0.346 A  
HETATM   10  C   UNL     1     -10.507  17.714  68.351  1.00  0.00    -0.360 A  
HETATM   11  C   UNL     1      -8.653  15.979  67.222  1.00  0.00    -0.205 A  
HETATM   12  C   UNL     1      -6.945  17.782  66.958  1.00  0.00    -0.205 C  
HETATM   13  C   UNL     1      -8.316  17.338  67.394  1.00  0.00    -0.211 A  
HETATM   14  C   UNL     1      -9.254  18.214  67.970  1.00  0.00    -0.285 A  
HETATM   15  C   UNL     1      -8.974  19.674  68.185  1.00  0.00    -0.381 C  
ENDBRANCH   4   8
BRANCH   7  16
HETATM   16  N   UNL     1     -11.150  11.047  66.010  1.00  0.00    -0.067 NA 
HETATM   17  H   UNL     1     -12.086  10.646  66.076  1.00  0.00     0.000 HD 
BRANCH  16  18
HETATM   18  N   UNL     1     -10.200  10.520  65.183  1.00  0.00    -0.306 NA 
HETATM   19  H   UNL     1     -10.266  10.668  64.176  1.00  0.00     0.000 HD 
BRANCH  18  20
HETATM   20  C   UNL     1      -9.127   9.771  65.714  1.00  0.00    -0.177 A  
HETATM   21  C   UNL     1      -9.339   8.616  66.492  1.00  0.00    -0.200 A  
HETATM   22  C   UNL     1      -8.291   7.800  66.960  1.00  0.00    -0.117 A  
HETATM   23  O   UNL     1     -10.642   8.277  66.800  1.00  0.00    -0.306 OA 
HETATM   24  C   UNL     1      -7.808  10.164  65.477  1.00  0.00    -0.147 A  
HETATM   25  C   UNL     1      -6.983   8.251  66.727  1.00  0.00    -0.070 A  
HETATM   26  H   UNL     1     -10.784   7.499  67.325  1.00  0.00     0.000 HD 
HETATM   27  C   UNL     1      -6.743   9.423  65.999  1.00  0.00    -0.081 A  
BRANCH  22  28
HETATM   28  C   UNL     1      -8.554   6.469  67.545  1.00  0.00    -0.119 A  
HETATM   29  C   UNL     1      -8.542   5.280  66.801  1.00  0.00    -0.106 A  
HETATM   30  C   UNL     1      -8.860   4.054  67.401  1.00  0.00    -0.132 A  
HETATM   31  C   UNL     1      -9.157   3.990  68.764  1.00  0.00    -0.190 A  
HETATM   32  C   UNL     1      -9.140   5.155  69.527  1.00  0.00    -0.145 A  
HETATM   33  C   UNL     1      -8.891   6.379  68.908  1.00  0.00    -0.125 A  
HETATM   34  C   UNL     1      -9.425   5.090  70.980  1.00  0.00    -0.162 C  
HETATM   35  O   UNL     1      -8.722   5.988  71.709  1.00  0.00    -0.137 OA 
HETATM   36  O   UNL     1     -10.189   4.284  71.468  1.00  0.00    -0.160 OA 
ENDBRANCH  22  28
ENDBRANCH  18  20
ENDBRANCH  16  18
ENDBRANCH   7  16
TORSDOF 5
ENDMDL
MODEL      139
REMARK 921   NORMALIZED FREE ENERGY PREDICTED BY IDOCK:   -5.63 KCAL/MOL
REMARK 922        TOTAL FREE ENERGY PREDICTED BY IDOCK:   -8.58 KCAL/MOL
REMARK 923 INTER-LIGAND FREE ENERGY PREDICTED BY IDOCK:   -7.90 KCAL/MOL
REMARK 924 INTRA-LIGAND FREE ENERGY PREDICTED BY IDOCK:   -0.69 KCAL/MOL
REMARK 927      BINDING AFFINITY PREDICTED BY RF-SCORE:    0.00 PKD
ROOT
HETATM    1  C   UNL     1      -8.362   6.753  73.495  1.00  0.00    -0.130 C  
HETATM    2  C   UNL     1      -8.772   6.298  72.144  1.00  0.00    -0.133 C  
HETATM    3  N   UNL     1      -8.091   5.563  71.312  1.00  0.00    -0.111 NA 
HETATM    4  N   UNL     1      -8.896   5.375  70.171  1.00  0.00    -0.125 N  
HETATM    5  O   UNL     1     -11.101   6.061  69.495  1.00  0.00    -0.373 OA 
HETATM    6  C   UNL     1     -10.140   5.984  70.236  1.00  0.00    -0.194 C  
HETATM    7  C   UNL     1     -10.087   6.659  71.561  1.00  0.00    -0.182 C  
ENDROOT
BRANCH   4   8
HETATM    8  C   UNL     1      -8.377   4.649  69.073  1.00  0.00    -0.080 A  
HETATM    9  C   UNL     1      -7.799   3.391  69.255  1.00  0.00    -0.054 A  
HETATM   10  C   UNL     1      -7.309   2.658  68.174  1.00  0.00    -0.049 A  
HETATM   11  C   UNL     1      -8.441   5.163  67.770  1.00  0.00    -0.104 A  
HETATM   12  C   UNL     1      -8.072   5.066  65.302  1.00  0.00    -0.117 C  
HETATM   13  C   UNL     1      -7.949   4.438  66.665  1.00  0.00    -0.099 A  
HETATM   14  C   UNL     1      -7.381   3.168  66.871  1.00  0.00    -0.070 A  
HETATM   15  C   UNL     1      -6.832   2.334  65.748  1.00  0.00    -0.039 C  
ENDBRANCH   4   8
BRANCH   7  16
HETATM   16  N   UNL     1     -10.960   7.429  72.131  1.00  0.00    -0.235 NA 
HETATM   17  H   UNL     1     -10.885   7.688  73.115  1.00  0.00     0.000 HD 
BRANCH  16  18
HETATM   18  N   UNL     1     -11.984   7.877  71.346  1.00  0.00    -0.297 NA 
HETATM   19  H   UNL     1     -12.610   7.208  70.900  1.00  0.00     0.000 HD 
BRANCH  18  20
HETATM   20  C   UNL     1     -12.179   9.261  71.150  1.00  0.00    -0.301 A  
HETATM   21  C   UNL     1     -11.718   9.921  69.993  1.00  0.00    -0.124 A  
HETATM   22  C   UNL     1     -11.975  11.280  69.728  1.00  0.00    -0.431 A  
HETATM   23  O   UNL     1     -10.983   9.187  69.083  1.00  0.00    -0.397 OA 
HETATM   24  C   UNL     1     -12.845  10.023  72.112  1.00  0.00    -0.414 A  
HETATM   25  C   UNL     1     -12.617  12.013  70.737  1.00  0.00    -0.312 A  
HETATM   26  H   UNL     1     -10.672   9.632  68.303  1.00  0.00     0.000 HD 
HETATM   27  C   UNL     1     -13.042  11.394  71.918  1.00  0.00    -0.505 A  
BRANCH  22  28
HETATM   28  C   UNL     1     -11.705  11.870  68.400  1.00  0.00    -0.387 A  
HETATM   29  C   UNL     1     -12.010  13.198  68.067  1.00  0.00    -0.345 A  
HETATM   30  C   UNL     1     -11.786  13.682  66.771  1.00  0.00    -0.452 A  
HETATM   31  C   UNL     1     -11.218  12.859  65.797  1.00  0.00    -0.324 A  
HETATM   32  C   UNL     1     -10.876  11.547  66.118  1.00  0.00    -0.330 A  
HETATM   33  C   UNL     1     -11.166  11.053  67.389  1.00  0.00    -0.355 A  
HETATM   34  C   UNL     1     -10.245  10.678  65.097  1.00  0.00    -0.299 C  
HETATM   35  O   UNL     1      -9.345   9.807  65.612  1.00  0.00    -0.190 OA 
HETATM   36  O   UNL     1     -10.488  10.766  63.912  1.00  0.00    -0.338 OA 
ENDBRANCH  22  28
ENDBRANCH  18  20
ENDBRANCH  16  18
ENDBRANCH   7  16
TORSDOF 5
ENDMDL
MODEL      140
REMARK 921   NORMALIZED FREE ENERGY PREDICTED BY IDOCK:   -5.58 KCAL/MOL
REMARK 922        TOTAL FREE ENERGY PREDICTED BY IDOCK:   -8.51 KCAL/MOL
REMARK 923 INTER-LIGAND FREE ENERGY PREDICTED BY IDOCK:   -8.30 KCAL/MOL
REMARK 924 INTRA-LIGAND FREE ENERGY PREDICTED BY IDOCK:   -0.21 KCAL/MOL
REMARK 927      BINDING AFFINITY PREDICTED BY RF-SCORE:    0.00 PKD
ROOT
HETATM    1  C   UNL     1      -6.913  11.057  68.794  1.00  0.00    -0.081 C  
HETATM    2  C   UNL     1      -8.039  11.940  68.405  1.00  0.00    -0.155 C  
HETATM    3  N   UNL     1      -7.977  13.177  68.004  1.00  0.00    -0.143 NA 
HETATM    4  N   UNL     1      -9.296  13.590  67.729  1.00  0.00    -0.204 N  
HETATM    5  O   UNL     1     -11.470  12.564  67.824  1.00  0.00    -0.279 OA 
HETATM    6  C   UNL     1     -10.261  12.617  67.940  1.00  0.00    -0.220 C  
HETATM    7  C   UNL     1      -9.447  11.475  68.437  1.00  0.00    -0.195 C  
ENDROOT
BRANCH   4   8
HETATM    8  C   UNL     1      -9.530  14.925  67.321  1.00  0.00    -0.213 A  
HETATM    9  C   UNL     1     -10.291  15.202  66.183  1.00  0.00    -0.313 A  
HETATM   10  C   UNL     1     -10.548  16.515  65.789  1.00  0.00    -0.307 A  
HETATM   11  C   UNL     1      -9.019  16.006  68.052  1.00  0.00    -0.187 A  
HETATM   12  C   UNL     1      -8.687  18.436  68.523  1.00  0.00    -0.336 C  
HETATM   13  C   UNL     1      -9.266  17.341  67.668  1.00  0.00    -0.229 A  
HETATM   14  C   UNL     1     -10.045  17.596  66.525  1.00  0.00    -0.350 A  
HETATM   15  C   UNL     1     -10.351  18.987  66.048  1.00  0.00    -0.512 C  
ENDBRANCH   4   8
BRANCH   7  16
HETATM   16  N   UNL     1      -9.829  10.307  68.849  1.00  0.00    -0.185 NA 
HETATM   17  H   UNL     1     -10.224   9.616  68.210  1.00  0.00     0.000 HD 
BRANCH  16  18
HETATM   18  N   UNL     1      -9.674  10.047  70.180  1.00  0.00    -0.394 NA 
HETATM   19  H   UNL     1      -8.939  10.518  70.706  1.00  0.00     0.000 HD 
BRANCH  18  20
HETATM   20  C   UNL     1     -10.527   9.130  70.832  1.00  0.00    -0.278 A  
HETATM   21  C   UNL     1     -10.287   7.742  70.805  1.00  0.00    -0.203 A  
HETATM   22  C   UNL     1     -11.067   6.811  71.518  1.00  0.00    -0.289 A  
HETATM   23  O   UNL     1      -9.230   7.286  70.042  1.00  0.00    -0.149 OA 
HETATM   24  C   UNL     1     -11.649   9.583  71.530  1.00  0.00    -0.465 A  
HETATM   25  C   UNL     1     -12.201   7.308  72.178  1.00  0.00    -0.260 A  
HETATM   26  H   UNL     1      -9.068   6.350  70.024  1.00  0.00     0.000 HD 
HETATM   27  C   UNL     1     -12.493   8.677  72.179  1.00  0.00    -0.453 A  
BRANCH  22  28
HETATM   28  C   UNL     1     -10.637   5.406  71.677  1.00  0.00    -0.284 A  
HETATM   29  C   UNL     1     -10.761   4.690  72.876  1.00  0.00    -0.295 A  
HETATM   30  C   UNL     1     -10.278   3.379  72.982  1.00  0.00    -0.236 A  
HETATM   31  C   UNL     1      -9.698   2.747  71.880  1.00  0.00    -0.221 A  
HETATM   32  C   UNL     1      -9.597   3.431  70.670  1.00  0.00    -0.238 A  
HETATM   33  C   UNL     1     -10.017   4.757  70.593  1.00  0.00    -0.300 A  
HETATM   34  C   UNL     1      -9.010   2.756  69.488  1.00  0.00    -0.108 C  
HETATM   35  O   UNL     1      -9.577   3.130  68.317  1.00  0.00    -0.176 OA 
HETATM   36  O   UNL     1      -8.131   1.925  69.571  1.00  0.00    -0.045 OA 
ENDBRANCH  22  28
ENDBRANCH  18  20
ENDBRANCH  16  18
ENDBRANCH   7  16
TORSDOF 5
ENDMDL
MODEL      141
REMARK 921   NORMALIZED FREE ENERGY PREDICTED BY IDOCK:   -5.58 KCAL/MOL
REMARK 922        TOTAL FREE ENERGY PREDICTED BY IDOCK:   -8.51 KCAL/MOL
REMARK 923 INTER-LIGAND FREE ENERGY PREDICTED BY IDOCK:   -7.70 KCAL/MOL
REMARK 924 INTRA-LIGAND FREE ENERGY PREDICTED BY IDOCK:   -0.81 KCAL/MOL
REMARK 927      BINDING AFFINITY PREDICTED BY RF-SCORE:    0.00 PKD
ROOT
HETATM    1  C   UNL     1      -6.185   6.570  65.961  1.00  0.00    -0.038 C  
HETATM    2  C   UNL     1      -7.461   6.720  66.702  1.00  0.00    -0.079 C  
HETATM    3  N   UNL     1      -7.750   6.264  67.887  1.00  0.00    -0.101 NA 
HETATM    4  N   UNL     1      -9.066   6.673  68.178  1.00  0.00    -0.120 N  
HETATM    5  O   UNL     1     -10.756   7.953  67.041  1.00  0.00    -0.339 OA 
HETATM    6  C   UNL     1      -9.672   7.423  67.181  1.00  0.00    -0.171 C  
HETATM    7  C   UNL     1      -8.617   7.453  66.131  1.00  0.00    -0.146 C  
ENDROOT
BRANCH   4   8
HETATM    8  C   UNL     1      -9.662   6.265  69.395  1.00  0.00    -0.141 A  
HETATM    9  C   UNL     1      -9.055   5.301  70.202  1.00  0.00    -0.168 A  
HETATM   10  C   UNL     1      -9.623   4.912  71.416  1.00  0.00    -0.226 A  
HETATM   11  C   UNL     1     -10.870   6.825  69.833  1.00  0.00    -0.310 A  
HETATM   12  C   UNL     1     -12.753   7.110  71.450  1.00  0.00    -0.433 C  
HETATM   13  C   UNL     1     -11.461   6.444  71.056  1.00  0.00    -0.394 A  
HETATM   14  C   UNL     1     -10.825   5.479  71.858  1.00  0.00    -0.286 A  
HETATM   15  C   UNL     1     -11.391   5.017  73.171  1.00  0.00    -0.397 C  
ENDBRANCH   4   8
BRANCH   7  16
HETATM   16  N   UNL     1      -8.649   7.972  64.944  1.00  0.00    -0.372 NA 
HETATM   17  H   UNL     1      -8.339   7.451  64.124  1.00  0.00     0.000 HD 
BRANCH  16  18
HETATM   18  N   UNL     1      -9.119   9.250  64.848  1.00  0.00    -0.358 NA 
HETATM   19  H   UNL     1      -9.887   9.461  64.212  1.00  0.00     0.000 HD 
BRANCH  18  20
HETATM   20  C   UNL     1      -8.547  10.280  65.626  1.00  0.00    -0.161 A  
HETATM   21  C   UNL     1      -9.313  11.357  66.113  1.00  0.00    -0.215 A  
HETATM   22  C   UNL     1      -8.791  12.351  66.964  1.00  0.00    -0.210 A  
HETATM   23  O   UNL     1     -10.639  11.428  65.734  1.00  0.00    -0.255 OA 
HETATM   24  C   UNL     1      -7.185  10.257  65.936  1.00  0.00    -0.131 A  
HETATM   25  C   UNL     1      -7.412  12.306  67.220  1.00  0.00    -0.147 A  
HETATM   26  H   UNL     1     -11.155  12.154  66.063  1.00  0.00     0.000 HD 
HETATM   27  C   UNL     1      -6.617  11.275  66.708  1.00  0.00    -0.140 A  
BRANCH  22  28
HETATM   28  C   UNL     1      -9.673  13.311  67.659  1.00  0.00    -0.219 A  
HETATM   29  C   UNL     1     -10.664  12.928  68.575  1.00  0.00    -0.275 A  
HETATM   30  C   UNL     1     -11.511  13.881  69.156  1.00  0.00    -0.345 A  
HETATM   31  C   UNL     1     -11.357  15.237  68.862  1.00  0.00    -0.315 A  
HETATM   32  C   UNL     1     -10.356  15.641  67.981  1.00  0.00    -0.246 A  
HETATM   33  C   UNL     1      -9.564  14.681  67.355  1.00  0.00    -0.215 A  
HETATM   34  C   UNL     1     -10.169  17.081  67.688  1.00  0.00    -0.317 C  
HETATM   35  O   UNL     1      -8.875  17.426  67.482  1.00  0.00    -0.221 OA 
HETATM   36  O   UNL     1     -11.084  17.878  67.671  1.00  0.00    -0.211 OA 
ENDBRANCH  22  28
ENDBRANCH  18  20
ENDBRANCH  16  18
ENDBRANCH   7  16
TORSDOF 5
ENDMDL
MODEL      142
REMARK 921   NORMALIZED FREE ENERGY PREDICTED BY IDOCK:   -5.57 KCAL/MOL
REMARK 922        TOTAL FREE ENERGY PREDICTED BY IDOCK:   -8.50 KCAL/MOL
REMARK 923 INTER-LIGAND FREE ENERGY PREDICTED BY IDOCK:   -7.29 KCAL/MOL
REMARK 924 INTRA-LIGAND FREE ENERGY PREDICTED BY IDOCK:   -1.21 KCAL/MOL
REMARK 927      BINDING AFFINITY PREDICTED BY RF-SCORE:    0.00 PKD
ROOT
HETATM    1  C   UNL     1     -12.332  12.466  65.026  1.00  0.00    -0.441 C  
HETATM    2  C   UNL     1     -11.075  11.721  65.282  1.00  0.00    -0.276 C  
HETATM    3  N   UNL     1     -10.342  11.080  64.418  1.00  0.00    -0.339 NA 
HETATM    4  N   UNL     1      -9.242  10.550  65.121  1.00  0.00    -0.191 N  
HETATM    5  O   UNL     1      -8.484  10.592  67.404  1.00  0.00    -0.122 OA 
HETATM    6  C   UNL     1      -9.227  10.845  66.476  1.00  0.00    -0.171 C  
HETATM    7  C   UNL     1     -10.487  11.620  66.640  1.00  0.00    -0.233 C  
ENDROOT
BRANCH   4   8
HETATM    8  C   UNL     1      -8.299   9.753  64.429  1.00  0.00    -0.168 A  
HETATM    9  C   UNL     1      -7.255  10.340  63.711  1.00  0.00    -0.060 A  
HETATM   10  C   UNL     1      -6.307   9.561  63.048  1.00  0.00    -0.101 A  
HETATM   11  C   UNL     1      -8.376   8.354  64.455  1.00  0.00    -0.125 A  
HETATM   12  C   UNL     1      -7.586   6.055  63.884  1.00  0.00    -0.088 C  
HETATM   13  C   UNL     1      -7.429   7.549  63.789  1.00  0.00    -0.108 A  
HETATM   14  C   UNL     1      -6.379   8.162  63.081  1.00  0.00    -0.081 A  
HETATM   15  C   UNL     1      -5.332   7.377  62.344  1.00  0.00    -0.045 C  
ENDBRANCH   4   8
BRANCH   7  16
HETATM   16  N   UNL     1     -11.022  12.109  67.714  1.00  0.00    -0.222 NA 
HETATM   17  H   UNL     1     -11.864  12.684  67.679  1.00  0.00     0.000 HD 
BRANCH  16  18
HETATM   18  N   UNL     1     -10.402  11.814  68.894  1.00  0.00    -0.357 NA 
HETATM   19  H   UNL     1      -9.496  12.229  69.108  1.00  0.00     0.000 HD 
BRANCH  18  20
HETATM   20  C   UNL     1     -11.009  10.937  69.819  1.00  0.00    -0.226 A  
HETATM   21  C   UNL     1     -10.296   9.882  70.423  1.00  0.00    -0.260 A  
HETATM   22  C   UNL     1     -10.849   9.048  71.414  1.00  0.00    -0.400 A  
HETATM   23  O   UNL     1      -8.994   9.670  70.017  1.00  0.00    -0.207 OA 
HETATM   24  C   UNL     1     -12.353  11.095  70.164  1.00  0.00    -0.373 A  
HETATM   25  C   UNL     1     -12.210   9.223  71.704  1.00  0.00    -0.445 A  
HETATM   26  H   UNL     1      -8.513   8.959  70.424  1.00  0.00     0.000 HD 
HETATM   27  C   UNL     1     -12.956  10.230  71.082  1.00  0.00    -0.503 A  
BRANCH  22  28
HETATM   28  C   UNL     1     -10.004   8.129  72.205  1.00  0.00    -0.332 A  
HETATM   29  C   UNL     1      -8.778   8.502  72.774  1.00  0.00    -0.178 A  
HETATM   30  C   UNL     1      -7.992   7.567  73.462  1.00  0.00    -0.158 A  
HETATM   31  C   UNL     1      -8.437   6.254  73.627  1.00  0.00    -0.123 A  
HETATM   32  C   UNL     1      -9.669   5.874  73.099  1.00  0.00    -0.163 A  
HETATM   33  C   UNL     1     -10.411   6.790  72.357  1.00  0.00    -0.230 A  
HETATM   34  C   UNL     1     -10.161   4.489  73.297  1.00  0.00    -0.160 C  
HETATM   35  O   UNL     1     -11.506   4.409  73.433  1.00  0.00    -0.300 OA 
HETATM   36  O   UNL     1      -9.423   3.529  73.365  1.00  0.00    -0.103 OA 
ENDBRANCH  22  28
ENDBRANCH  18  20
ENDBRANCH  16  18
ENDBRANCH   7  16
TORSDOF 5
ENDMDL
MODEL      143
REMARK 921   NORMALIZED FREE ENERGY PREDICTED BY IDOCK:   -5.54 KCAL/MOL
REMARK 922        TOTAL FREE ENERGY PREDICTED BY IDOCK:   -8.46 KCAL/MOL
REMARK 923 INTER-LIGAND FREE ENERGY PREDICTED BY IDOCK:   -7.87 KCAL/MOL
REMARK 924 INTRA-LIGAND FREE ENERGY PREDICTED BY IDOCK:   -0.60 KCAL/MOL
REMARK 927      BINDING AFFINITY PREDICTED BY RF-SCORE:    0.00 PKD
ROOT
HETATM    1  C   UNL     1      -8.157   8.837  71.184  1.00  0.00    -0.192 C  
HETATM    2  C   UNL     1      -8.960   9.320  70.034  1.00  0.00    -0.198 C  
HETATM    3  N   UNL     1      -8.583   9.430  68.793  1.00  0.00    -0.125 NA 
HETATM    4  N   UNL     1      -9.690   9.911  68.065  1.00  0.00    -0.139 N  
HETATM    5  O   UNL     1     -11.960  10.511  68.592  1.00  0.00    -0.334 OA 
HETATM    6  C   UNL     1     -10.832  10.121  68.824  1.00  0.00    -0.225 C  
HETATM    7  C   UNL     1     -10.368   9.760  70.191  1.00  0.00    -0.282 C  
ENDROOT
BRANCH   4   8
HETATM    8  C   UNL     1      -9.545  10.176  66.683  1.00  0.00    -0.183 A  
HETATM    9  C   UNL     1     -10.608  10.690  65.937  1.00  0.00    -0.178 A  
HETATM   10  C   UNL     1     -10.466  10.978  64.580  1.00  0.00    -0.411 A  
HETATM   11  C   UNL     1      -8.329   9.946  66.025  1.00  0.00    -0.124 A  
HETATM   12  C   UNL     1      -6.819   9.960  64.035  1.00  0.00    -0.126 C  
HETATM   13  C   UNL     1      -8.166  10.228  64.653  1.00  0.00    -0.161 A  
HETATM   14  C   UNL     1      -9.247  10.756  63.924  1.00  0.00    -0.258 A  
HETATM   15  C   UNL     1      -9.156  11.081  62.460  1.00  0.00    -0.362 C  
ENDBRANCH   4   8
BRANCH   7  16
HETATM   16  N   UNL     1     -11.001   9.818  71.320  1.00  0.00    -0.326 NA 
HETATM   17  H   UNL     1     -10.919  10.624  71.940  1.00  0.00     0.000 HD 
BRANCH  16  18
HETATM   18  N   UNL     1     -11.784   8.746  71.636  1.00  0.00    -0.308 NA 
HETATM   19  H   UNL     1     -12.796   8.805  71.522  1.00  0.00     0.000 HD 
BRANCH  18  20
HETATM   20  C   UNL     1     -11.201   7.555  72.122  1.00  0.00    -0.270 A  
HETATM   21  C   UNL     1     -11.036   6.420  71.303  1.00  0.00    -0.271 A  
HETATM   22  C   UNL     1     -10.378   5.250  71.732  1.00  0.00    -0.277 A  
HETATM   23  O   UNL     1     -11.544   6.471  70.020  1.00  0.00    -0.442 OA 
HETATM   24  C   UNL     1     -10.766   7.471  73.446  1.00  0.00    -0.387 A  
HETATM   25  C   UNL     1      -9.989   5.199  73.079  1.00  0.00    -0.190 A  
HETATM   26  H   UNL     1     -11.433   5.706  69.469  1.00  0.00     0.000 HD 
HETATM   27  C   UNL     1     -10.185   6.294  73.928  1.00  0.00    -0.307 A  
BRANCH  22  28
HETATM   28  C   UNL     1      -9.996   4.188  70.779  1.00  0.00    -0.192 A  
HETATM   29  C   UNL     1      -9.703   2.871  71.164  1.00  0.00    -0.187 A  
HETATM   30  C   UNL     1      -9.286   1.923  70.220  1.00  0.00    -0.172 A  
HETATM   31  C   UNL     1      -9.193   2.264  68.869  1.00  0.00    -0.216 A  
HETATM   32  C   UNL     1      -9.514   3.557  68.462  1.00  0.00    -0.207 A  
HETATM   33  C   UNL     1      -9.860   4.512  69.416  1.00  0.00    -0.260 A  
HETATM   34  C   UNL     1      -9.446   3.917  67.026  1.00  0.00    -0.200 C  
HETATM   35  O   UNL     1     -10.387   4.815  66.650  1.00  0.00    -0.246 OA 
HETATM   36  O   UNL     1      -8.646   3.426  66.258  1.00  0.00    -0.110 OA 
ENDBRANCH  22  28
ENDBRANCH  18  20
ENDBRANCH  16  18
ENDBRANCH   7  16
TORSDOF 5
ENDMDL
MODEL      144
REMARK 921   NORMALIZED FREE ENERGY PREDICTED BY IDOCK:   -5.54 KCAL/MOL
REMARK 922        TOTAL FREE ENERGY PREDICTED BY IDOCK:   -8.45 KCAL/MOL
REMARK 923 INTER-LIGAND FREE ENERGY PREDICTED BY IDOCK:   -7.65 KCAL/MOL
REMARK 924 INTRA-LIGAND FREE ENERGY PREDICTED BY IDOCK:   -0.80 KCAL/MOL
REMARK 927      BINDING AFFINITY PREDICTED BY RF-SCORE:    0.00 PKD
ROOT
HETATM    1  C   UNL     1      -6.410  10.981  69.121  1.00  0.00    -0.057 C  
HETATM    2  C   UNL     1      -6.984  10.011  68.157  1.00  0.00    -0.075 C  
HETATM    3  N   UNL     1      -6.909   8.712  68.198  1.00  0.00    -0.068 NA 
HETATM    4  N   UNL     1      -7.622   8.221  67.086  1.00  0.00    -0.092 N  
HETATM    5  O   UNL     1      -8.866   9.203  65.276  1.00  0.00    -0.179 OA 
HETATM    6  C   UNL     1      -8.193   9.201  66.288  1.00  0.00    -0.111 C  
HETATM    7  C   UNL     1      -7.753  10.450  66.967  1.00  0.00    -0.105 C  
ENDROOT
BRANCH   4   8
HETATM    8  C   UNL     1      -7.660   6.826  66.851  1.00  0.00    -0.091 A  
HETATM    9  C   UNL     1      -8.306   5.967  67.744  1.00  0.00    -0.112 A  
HETATM   10  C   UNL     1      -8.370   4.594  67.507  1.00  0.00    -0.104 A  
HETATM   11  C   UNL     1      -7.065   6.266  65.712  1.00  0.00    -0.069 A  
HETATM   12  C   UNL     1      -6.460   4.373  64.201  1.00  0.00    -0.038 C  
HETATM   13  C   UNL     1      -7.117   4.880  65.456  1.00  0.00    -0.067 A  
HETATM   14  C   UNL     1      -7.783   4.036  66.364  1.00  0.00    -0.090 A  
HETATM   15  C   UNL     1      -7.881   2.550  66.165  1.00  0.00    -0.081 C  
ENDBRANCH   4   8
BRANCH   7  16
HETATM   16  N   UNL     1      -7.946  11.686  66.629  1.00  0.00    -0.282 NA 
HETATM   17  H   UNL     1      -7.340  12.434  66.964  1.00  0.00     0.000 HD 
BRANCH  16  18
HETATM   18  N   UNL     1      -9.002  11.934  65.800  1.00  0.00    -0.412 NA 
HETATM   19  H   UNL     1      -8.995  11.573  64.847  1.00  0.00     0.000 HD 
BRANCH  18  20
HETATM   20  C   UNL     1     -10.106  12.688  66.257  1.00  0.00    -0.253 A  
HETATM   21  C   UNL     1     -10.679  12.475  67.526  1.00  0.00    -0.225 A  
HETATM   22  C   UNL     1     -11.720  13.269  68.044  1.00  0.00    -0.394 A  
HETATM   23  O   UNL     1     -10.184  11.436  68.290  1.00  0.00    -0.180 OA 
HETATM   24  C   UNL     1     -10.664  13.680  65.448  1.00  0.00    -0.311 A  
HETATM   25  C   UNL     1     -12.272  14.231  67.185  1.00  0.00    -0.312 A  
HETATM   26  H   UNL     1     -10.571  11.292  69.145  1.00  0.00     0.000 HD 
HETATM   27  C   UNL     1     -11.755  14.431  65.899  1.00  0.00    -0.371 A  
BRANCH  22  28
HETATM   28  C   UNL     1     -12.118  13.187  69.465  1.00  0.00    -0.296 A  
HETATM   29  C   UNL     1     -12.406  11.979  70.118  1.00  0.00    -0.230 A  
HETATM   30  C   UNL     1     -12.839  11.970  71.451  1.00  0.00    -0.391 A  
HETATM   31  C   UNL     1     -12.953  13.164  72.166  1.00  0.00    -0.382 A  
HETATM   32  C   UNL     1     -12.639  14.371  71.544  1.00  0.00    -0.424 A  
HETATM   33  C   UNL     1     -12.276  14.377  70.198  1.00  0.00    -0.401 A  
HETATM   34  C   UNL     1     -12.730  15.639  72.306  1.00  0.00    -0.430 C  
HETATM   35  O   UNL     1     -11.794  16.551  71.950  1.00  0.00    -0.454 OA 
HETATM   36  O   UNL     1     -13.543  15.825  73.186  1.00  0.00    -0.567 OA 
ENDBRANCH  22  28
ENDBRANCH  18  20
ENDBRANCH  16  18
ENDBRANCH   7  16
TORSDOF 5
ENDMDL
MODEL      145
REMARK 921   NORMALIZED FREE ENERGY PREDICTED BY IDOCK:   -5.45 KCAL/MOL
REMARK 922        TOTAL FREE ENERGY PREDICTED BY IDOCK:   -8.34 KCAL/MOL
REMARK 923 INTER-LIGAND FREE ENERGY PREDICTED BY IDOCK:   -7.21 KCAL/MOL
REMARK 924 INTRA-LIGAND FREE ENERGY PREDICTED BY IDOCK:   -1.13 KCAL/MOL
REMARK 927      BINDING AFFINITY PREDICTED BY RF-SCORE:    0.00 PKD
ROOT
HETATM    1  C   UNL     1     -12.826  15.455  70.275  1.00  0.00    -0.277 C  
HETATM    2  C   UNL     1     -11.627  15.534  69.406  1.00  0.00    -0.355 C  
HETATM    3  N   UNL     1     -10.842  16.557  69.226  1.00  0.00    -0.326 NA 
HETATM    4  N   UNL     1      -9.831  16.152  68.332  1.00  0.00    -0.218 N  
HETATM    5  O   UNL     1      -9.284  14.117  67.170  1.00  0.00    -0.211 OA 
HETATM    6  C   UNL     1      -9.930  14.835  67.909  1.00  0.00    -0.213 C  
HETATM    7  C   UNL     1     -11.169  14.379  68.595  1.00  0.00    -0.259 C  
ENDROOT
BRANCH   4   8
HETATM    8  C   UNL     1      -8.860  17.092  67.916  1.00  0.00    -0.226 A  
HETATM    9  C   UNL     1      -8.825  17.550  66.597  1.00  0.00    -0.284 A  
HETATM   10  C   UNL     1      -7.887  18.496  66.185  1.00  0.00    -0.235 A  
HETATM   11  C   UNL     1      -7.914  17.603  68.816  1.00  0.00    -0.244 A  
HETATM   12  C   UNL     1      -5.988  19.058  69.457  1.00  0.00    -0.279 C  
HETATM   13  C   UNL     1      -6.956  18.558  68.418  1.00  0.00    -0.278 A  
HETATM   14  C   UNL     1      -6.947  19.013  67.087  1.00  0.00    -0.210 A  
HETATM   15  C   UNL     1      -5.959  20.026  66.583  1.00  0.00    -0.189 C  
ENDBRANCH   4   8
BRANCH   7  16
HETATM   16  N   UNL     1     -11.782  13.240  68.522  1.00  0.00    -0.332 NA 
HETATM   17  H   UNL     1     -12.701  13.098  68.940  1.00  0.00     0.000 HD 
BRANCH  16  18
HETATM   18  N   UNL     1     -11.133  12.239  67.858  1.00  0.00    -0.228 NA 
HETATM   19  H   UNL     1     -10.852  12.374  66.887  1.00  0.00     0.000 HD 
BRANCH  18  20
HETATM   20  C   UNL     1     -10.850  11.018  68.508  1.00  0.00    -0.213 A  
HETATM   21  C   UNL     1     -10.691   9.814  67.793  1.00  0.00    -0.272 A  
HETATM   22  C   UNL     1     -10.320   8.600  68.403  1.00  0.00    -0.239 A  
HETATM   23  O   UNL     1     -10.906   9.841  66.429  1.00  0.00    -0.003 OA 
HETATM   24  C   UNL     1     -10.720  10.972  69.897  1.00  0.00    -0.055 A  
HETATM   25  C   UNL     1     -10.233   8.594  69.803  1.00  0.00    -0.206 A  
HETATM   26  H   UNL     1     -10.798   9.030  65.947  1.00  0.00     0.000 HD 
HETATM   27  C   UNL     1     -10.436   9.764  70.543  1.00  0.00    -0.366 A  
BRANCH  22  28
HETATM   28  C   UNL     1      -9.911   7.428  67.600  1.00  0.00    -0.213 A  
HETATM   29  C   UNL     1     -10.791   6.401  67.228  1.00  0.00    -0.463 A  
HETATM   30  C   UNL     1     -10.330   5.283  66.518  1.00  0.00    -0.332 A  
HETATM   31  C   UNL     1      -8.990   5.193  66.135  1.00  0.00    -0.135 A  
HETATM   32  C   UNL     1      -8.109   6.220  66.465  1.00  0.00    -0.110 A  
HETATM   33  C   UNL     1      -8.560   7.293  67.231  1.00  0.00    -0.121 A  
HETATM   34  C   UNL     1      -6.692   6.144  66.035  1.00  0.00    -0.052 C  
HETATM   35  O   UNL     1      -6.153   7.350  65.738  1.00  0.00    -0.037 OA 
HETATM   36  O   UNL     1      -6.089   5.097  65.927  1.00  0.00    -0.028 OA 
ENDBRANCH  22  28
ENDBRANCH  18  20
ENDBRANCH  16  18
ENDBRANCH   7  16
TORSDOF 5
ENDMDL
MODEL      146
REMARK 921   NORMALIZED FREE ENERGY PREDICTED BY IDOCK:   -5.44 KCAL/MOL
REMARK 922        TOTAL FREE ENERGY PREDICTED BY IDOCK:   -8.34 KCAL/MOL
REMARK 923 INTER-LIGAND FREE ENERGY PREDICTED BY IDOCK:   -8.25 KCAL/MOL
REMARK 924 INTRA-LIGAND FREE ENERGY PREDICTED BY IDOCK:   -0.08 KCAL/MOL
REMARK 927      BINDING AFFINITY PREDICTED BY RF-SCORE:    0.00 PKD
ROOT
HETATM    1  C   UNL     1     -12.327  12.694  63.457  1.00  0.00    -0.591 C  
HETATM    2  C   UNL     1     -11.538  13.270  64.573  1.00  0.00    -0.369 C  
HETATM    3  N   UNL     1     -11.625  14.469  65.073  1.00  0.00    -0.367 NA 
HETATM    4  N   UNL     1     -10.694  14.548  66.127  1.00  0.00    -0.303 N  
HETATM    5  O   UNL     1      -9.108  13.042  67.131  1.00  0.00    -0.209 OA 
HETATM    6  C   UNL     1      -9.973  13.384  66.348  1.00  0.00    -0.293 C  
HETATM    7  C   UNL     1     -10.496  12.487  65.281  1.00  0.00    -0.287 C  
ENDROOT
BRANCH   4   8
HETATM    8  C   UNL     1     -10.538  15.771  66.820  1.00  0.00    -0.309 A  
HETATM    9  C   UNL     1     -10.357  15.792  68.205  1.00  0.00    -0.242 A  
HETATM   10  C   UNL     1     -10.177  16.992  68.892  1.00  0.00    -0.322 A  
HETATM   11  C   UNL     1     -10.546  16.996  66.138  1.00  0.00    -0.194 A  
HETATM   12  C   UNL     1     -10.378  19.484  65.998  1.00  0.00    -0.604 C  
HETATM   13  C   UNL     1     -10.367  18.220  66.816  1.00  0.00    -0.403 A  
HETATM   14  C   UNL     1     -10.176  18.215  68.210  1.00  0.00    -0.402 A  
HETATM   15  C   UNL     1      -9.982  19.475  69.005  1.00  0.00    -0.490 C  
ENDBRANCH   4   8
BRANCH   7  16
HETATM   16  N   UNL     1     -10.142  11.280  64.971  1.00  0.00    -0.262 NA 
HETATM   17  H   UNL     1     -10.763  10.484  65.120  1.00  0.00     0.000 HD 
BRANCH  16  18
HETATM   18  N   UNL     1      -8.896  11.127  64.435  1.00  0.00    -0.380 NA 
HETATM   19  H   UNL     1      -8.546  11.809  63.762  1.00  0.00     0.000 HD 
BRANCH  18  20
HETATM   20  C   UNL     1      -8.088  10.030  64.807  1.00  0.00    -0.155 A  
HETATM   21  C   UNL     1      -8.627   8.887  65.428  1.00  0.00    -0.176 A  
HETATM   22  C   UNL     1      -7.863   7.742  65.729  1.00  0.00    -0.104 A  
HETATM   23  O   UNL     1      -9.970   8.899  65.747  1.00  0.00    -0.459 OA 
HETATM   24  C   UNL     1      -6.713  10.053  64.564  1.00  0.00    -0.128 A  
HETATM   25  C   UNL     1      -6.482   7.822  65.499  1.00  0.00    -0.042 A  
HETATM   26  H   UNL     1     -10.333   8.128  66.167  1.00  0.00     0.000 HD 
HETATM   27  C   UNL     1      -5.911   8.966  64.928  1.00  0.00    -0.064 A  
BRANCH  22  28
HETATM   28  C   UNL     1      -8.503   6.474  66.138  1.00  0.00    -0.137 A  
HETATM   29  C   UNL     1      -9.892   6.307  66.241  1.00  0.00    -0.065 A  
HETATM   30  C   UNL     1     -10.438   5.099  66.694  1.00  0.00    -0.328 A  
HETATM   31  C   UNL     1      -9.607   4.023  67.014  1.00  0.00    -0.231 A  
HETATM   32  C   UNL     1      -8.226   4.159  66.884  1.00  0.00    -0.101 A  
HETATM   33  C   UNL     1      -7.689   5.385  66.500  1.00  0.00    -0.099 A  
HETATM   34  C   UNL     1      -7.340   3.011  67.194  1.00  0.00    -0.062 C  
HETATM   35  O   UNL     1      -6.238   2.954  66.409  1.00  0.00    -0.024 OA 
HETATM   36  O   UNL     1      -7.599   2.186  68.044  1.00  0.00    -0.054 OA 
ENDBRANCH  22  28
ENDBRANCH  18  20
ENDBRANCH  16  18
ENDBRANCH   7  16
TORSDOF 5
ENDMDL
MODEL      147
REMARK 921   NORMALIZED FREE ENERGY PREDICTED BY IDOCK:   -5.41 KCAL/MOL
REMARK 922        TOTAL FREE ENERGY PREDICTED BY IDOCK:   -8.30 KCAL/MOL
REMARK 923 INTER-LIGAND FREE ENERGY PREDICTED BY IDOCK:   -8.01 KCAL/MOL
REMARK 924 INTRA-LIGAND FREE ENERGY PREDICTED BY IDOCK:   -0.28 KCAL/MOL
REMARK 927      BINDING AFFINITY PREDICTED BY RF-SCORE:    0.00 PKD
ROOT
HETATM    1  C   UNL     1     -10.777  20.178  65.894  1.00  0.00    -0.280 C  
HETATM    2  C   UNL     1     -10.378  18.755  65.762  1.00  0.00    -0.213 C  
HETATM    3  N   UNL     1     -11.081  17.774  65.275  1.00  0.00    -0.331 NA 
HETATM    4  N   UNL     1     -10.278  16.618  65.337  1.00  0.00    -0.193 N  
HETATM    5  O   UNL     1      -8.046  16.118  66.082  1.00  0.00    -0.262 OA 
HETATM    6  C   UNL     1      -9.012  16.822  65.865  1.00  0.00    -0.068 C  
HETATM    7  C   UNL     1      -9.047  18.271  66.203  1.00  0.00    -0.105 C  
ENDROOT
BRANCH   4   8
HETATM    8  C   UNL     1     -10.818  15.379  64.917  1.00  0.00    -0.425 A  
HETATM    9  C   UNL     1     -12.127  15.294  64.436  1.00  0.00    -0.263 A  
HETATM   10  C   UNL     1     -12.657  14.082  63.996  1.00  0.00    -0.076 A  
HETATM   11  C   UNL     1     -10.053  14.205  64.956  1.00  0.00    -0.326 A  
HETATM   12  C   UNL     1      -9.672  11.765  64.587  1.00  0.00    -0.172 C  
HETATM   13  C   UNL     1     -10.572  12.969  64.518  1.00  0.00    -0.413 A  
HETATM   14  C   UNL     1     -11.890  12.910  64.027  1.00  0.00    -0.512 A  
HETATM   15  C   UNL     1     -12.517  11.633  63.545  1.00  0.00    -0.345 C  
ENDBRANCH   4   8
BRANCH   7  16
HETATM   16  N   UNL     1      -8.149  19.006  66.780  1.00  0.00    -0.259 NA 
HETATM   17  H   UNL     1      -7.583  19.672  66.255  1.00  0.00     0.000 HD 
BRANCH  16  18
HETATM   18  N   UNL     1      -7.999  18.842  68.127  1.00  0.00    -0.281 NA 
HETATM   19  H   UNL     1      -7.939  19.659  68.734  1.00  0.00     0.000 HD 
BRANCH  18  20
HETATM   20  C   UNL     1      -7.928  17.546  68.685  1.00  0.00    -0.268 A  
HETATM   21  C   UNL     1      -9.061  16.902  69.218  1.00  0.00     0.020 A  
HETATM   22  C   UNL     1      -9.040  15.578  69.699  1.00  0.00    -0.187 A  
HETATM   23  O   UNL     1     -10.245  17.613  69.262  1.00  0.00    -0.303 OA 
HETATM   24  C   UNL     1      -6.711  16.861  68.722  1.00  0.00    -0.190 A  
HETATM   25  C   UNL     1      -7.791  14.942  69.748  1.00  0.00     0.045 A  
HETATM   26  H   UNL     1     -11.009  17.178  69.623  1.00  0.00     0.000 HD 
HETATM   27  C   UNL     1      -6.638  15.577  69.270  1.00  0.00    -0.147 A  
BRANCH  22  28
HETATM   28  C   UNL     1     -10.288  14.851  70.008  1.00  0.00    -0.013 A  
HETATM   29  C   UNL     1     -11.192  15.253  71.002  1.00  0.00    -0.378 A  
HETATM   30  C   UNL     1     -12.329  14.487  71.291  1.00  0.00    -0.418 A  
HETATM   31  C   UNL     1     -12.603  13.326  70.565  1.00  0.00    -0.259 A  
HETATM   32  C   UNL     1     -11.735  12.929  69.550  1.00  0.00    -0.387 A  
HETATM   33  C   UNL     1     -10.571  13.658  69.316  1.00  0.00     0.008 A  
HETATM   34  C   UNL     1     -12.035  11.714  68.756  1.00  0.00    -0.264 C  
HETATM   35  O   UNL     1     -11.644  11.805  67.463  1.00  0.00    -0.426 OA 
HETATM   36  O   UNL     1     -12.608  10.749  69.215  1.00  0.00    -0.324 OA 
ENDBRANCH  22  28
ENDBRANCH  18  20
ENDBRANCH  16  18
ENDBRANCH   7  16
TORSDOF 5
ENDMDL
MODEL      148
REMARK 921   NORMALIZED FREE ENERGY PREDICTED BY IDOCK:   -5.41 KCAL/MOL
REMARK 922        TOTAL FREE ENERGY PREDICTED BY IDOCK:   -8.30 KCAL/MOL
REMARK 923 INTER-LIGAND FREE ENERGY PREDICTED BY IDOCK:   -7.59 KCAL/MOL
REMARK 924 INTRA-LIGAND FREE ENERGY PREDICTED BY IDOCK:   -0.71 KCAL/MOL
REMARK 927      BINDING AFFINITY PREDICTED BY RF-SCORE:    0.00 PKD
ROOT
HETATM    1  C   UNL     1     -10.994  11.693  68.126  1.00  0.00    -0.275 C  
HETATM    2  C   UNL     1     -10.103  12.857  67.899  1.00  0.00    -0.232 C  
HETATM    3  N   UNL     1     -10.417  14.119  67.946  1.00  0.00    -0.235 NA 
HETATM    4  N   UNL     1      -9.241  14.849  67.683  1.00  0.00    -0.185 N  
HETATM    5  O   UNL     1      -6.946  14.295  67.218  1.00  0.00    -0.199 OA 
HETATM    6  C   UNL     1      -8.115  14.070  67.464  1.00  0.00    -0.186 C  
HETATM    7  C   UNL     1      -8.666  12.691  67.569  1.00  0.00    -0.184 C  
ENDROOT
BRANCH   4   8
HETATM    8  C   UNL     1      -9.304  16.261  67.620  1.00  0.00    -0.218 A  
HETATM    9  C   UNL     1     -10.294  16.901  66.869  1.00  0.00    -0.304 A  
HETATM   10  C   UNL     1     -10.379  18.292  66.822  1.00  0.00    -0.403 A  
HETATM   11  C   UNL     1      -8.387  17.059  68.317  1.00  0.00    -0.228 A  
HETATM   12  C   UNL     1      -7.434  19.241  69.071  1.00  0.00    -0.372 C  
HETATM   13  C   UNL     1      -8.455  18.468  68.280  1.00  0.00    -0.341 A  
HETATM   14  C   UNL     1      -9.467  19.090  67.527  1.00  0.00    -0.351 A  
HETATM   15  C   UNL     1      -9.606  20.583  67.434  1.00  0.00    -0.578 C  
ENDBRANCH   4   8
BRANCH   7  16
HETATM   16  N   UNL     1      -8.075  11.551  67.397  1.00  0.00    -0.139 NA 
HETATM   17  H   UNL     1      -7.696  11.275  66.491  1.00  0.00     0.000 HD 
BRANCH  16  18
HETATM   18  N   UNL     1      -7.986  10.739  68.491  1.00  0.00    -0.122 NA 
HETATM   19  H   UNL     1      -7.601  11.102  69.362  1.00  0.00     0.000 HD 
BRANCH  18  20
HETATM   20  C   UNL     1      -8.424   9.398  68.421  1.00  0.00    -0.120 A  
HETATM   21  C   UNL     1      -9.024   8.754  69.521  1.00  0.00    -0.145 A  
HETATM   22  C   UNL     1      -9.551   7.449  69.455  1.00  0.00    -0.155 A  
HETATM   23  O   UNL     1      -9.099   9.447  70.712  1.00  0.00    -0.245 OA 
HETATM   24  C   UNL     1      -8.268   8.665  67.242  1.00  0.00    -0.105 A  
HETATM   25  C   UNL     1      -9.343   6.740  68.262  1.00  0.00    -0.124 A  
HETATM   26  H   UNL     1      -9.503   9.012  71.454  1.00  0.00     0.000 HD 
HETATM   27  C   UNL     1      -8.704   7.338  67.170  1.00  0.00    -0.121 A  
BRANCH  22  28
HETATM   28  C   UNL     1     -10.398   6.904  70.537  1.00  0.00    -0.224 A  
HETATM   29  C   UNL     1     -11.671   7.403  70.848  1.00  0.00    -0.325 A  
HETATM   30  C   UNL     1     -12.401   6.885  71.926  1.00  0.00    -0.364 A  
HETATM   31  C   UNL     1     -11.888   5.833  72.688  1.00  0.00    -0.198 A  
HETATM   32  C   UNL     1     -10.640   5.301  72.372  1.00  0.00    -0.280 A  
HETATM   33  C   UNL     1      -9.891   5.868  71.343  1.00  0.00    -0.205 A  
HETATM   34  C   UNL     1     -10.102   4.165  73.158  1.00  0.00    -0.146 C  
HETATM   35  O   UNL     1      -9.361   3.303  72.422  1.00  0.00    -0.099 OA 
HETATM   36  O   UNL     1     -10.335   4.008  74.338  1.00  0.00    -0.184 OA 
ENDBRANCH  22  28
ENDBRANCH  18  20
ENDBRANCH  16  18
ENDBRANCH   7  16
TORSDOF 5
ENDMDL
MODEL      149
REMARK 921   NORMALIZED FREE ENERGY PREDICTED BY IDOCK:   -5.41 KCAL/MOL
REMARK 922        TOTAL FREE ENERGY PREDICTED BY IDOCK:   -8.29 KCAL/MOL
REMARK 923 INTER-LIGAND FREE ENERGY PREDICTED BY IDOCK:   -7.79 KCAL/MOL
REMARK 924 INTRA-LIGAND FREE ENERGY PREDICTED BY IDOCK:   -0.50 KCAL/MOL
REMARK 927      BINDING AFFINITY PREDICTED BY RF-SCORE:    0.00 PKD
ROOT
HETATM    1  C   UNL     1     -11.050  11.439  64.042  1.00  0.00    -0.400 C  
HETATM    2  C   UNL     1     -10.795  12.459  65.089  1.00  0.00    -0.297 C  
HETATM    3  N   UNL     1     -10.349  13.671  64.924  1.00  0.00    -0.393 NA 
HETATM    4  N   UNL     1     -10.289  14.267  66.200  1.00  0.00    -0.290 N  
HETATM    5  O   UNL     1     -10.815  13.574  68.443  1.00  0.00    -0.250 OA 
HETATM    6  C   UNL     1     -10.709  13.449  67.238  1.00  0.00    -0.260 C  
HETATM    7  C   UNL     1     -11.035  12.184  66.526  1.00  0.00    -0.284 C  
ENDROOT
BRANCH   4   8
HETATM    8  C   UNL     1      -9.784  15.583  66.324  1.00  0.00    -0.302 A  
HETATM    9  C   UNL     1      -8.525  15.816  66.882  1.00  0.00    -0.281 A  
HETATM   10  C   UNL     1      -8.009  17.108  66.985  1.00  0.00    -0.230 A  
HETATM   11  C   UNL     1     -10.523  16.687  65.880  1.00  0.00    -0.324 A  
HETATM   12  C   UNL     1     -10.881  19.123  65.462  1.00  0.00    -0.084 C  
HETATM   13  C   UNL     1     -10.020  18.001  65.977  1.00  0.00    -0.221 A  
HETATM   14  C   UNL     1      -8.744  18.212  66.532  1.00  0.00    -0.286 A  
HETATM   15  C   UNL     1      -8.138  19.579  66.674  1.00  0.00    -0.324 C  
ENDBRANCH   4   8
BRANCH   7  16
HETATM   16  N   UNL     1     -11.426  11.045  67.004  1.00  0.00    -0.395 NA 
HETATM   17  H   UNL     1     -12.195  10.979  67.670  1.00  0.00     0.000 HD 
BRANCH  16  18
HETATM   18  N   UNL     1     -10.756   9.938  66.570  1.00  0.00    -0.078 NA 
HETATM   19  H   UNL     1     -11.002   9.513  65.676  1.00  0.00     0.000 HD 
BRANCH  18  20
HETATM   20  C   UNL     1      -9.722   9.377  67.352  1.00  0.00    -0.159 A  
HETATM   21  C   UNL     1      -9.959   8.316  68.248  1.00  0.00    -0.191 A  
HETATM   22  C   UNL     1      -8.935   7.677  68.974  1.00  0.00    -0.137 A  
HETATM   23  O   UNL     1     -11.262   7.888  68.409  1.00  0.00    -0.324 OA 
HETATM   24  C   UNL     1      -8.418   9.868  67.255  1.00  0.00    -0.121 A  
HETATM   25  C   UNL     1      -7.648   8.226  68.871  1.00  0.00    -0.093 A  
HETATM   26  H   UNL     1     -11.422   7.173  69.014  1.00  0.00     0.000 HD 
HETATM   27  C   UNL     1      -7.393   9.312  68.026  1.00  0.00    -0.080 A  
BRANCH  22  28
HETATM   28  C   UNL     1      -9.178   6.413  69.699  1.00  0.00    -0.143 A  
HETATM   29  C   UNL     1      -8.716   5.165  69.254  1.00  0.00    -0.108 A  
HETATM   30  C   UNL     1      -9.032   3.992  69.954  1.00  0.00    -0.161 A  
HETATM   31  C   UNL     1      -9.780   4.051  71.131  1.00  0.00    -0.257 A  
HETATM   32  C   UNL     1     -10.218   5.285  71.607  1.00  0.00    -0.274 A  
HETATM   33  C   UNL     1      -9.959   6.438  70.869  1.00  0.00    -0.211 A  
HETATM   34  C   UNL     1     -10.988   5.356  72.872  1.00  0.00    -0.287 C  
HETATM   35  O   UNL     1     -10.740   6.476  73.592  1.00  0.00    -0.285 OA 
HETATM   36  O   UNL     1     -11.739   4.478  73.240  1.00  0.00    -0.262 OA 
ENDBRANCH  22  28
ENDBRANCH  18  20
ENDBRANCH  16  18
ENDBRANCH   7  16
TORSDOF 5
ENDMDL
MODEL      150
REMARK 921   NORMALIZED FREE ENERGY PREDICTED BY IDOCK:   -5.38 KCAL/MOL
REMARK 922        TOTAL FREE ENERGY PREDICTED BY IDOCK:   -8.25 KCAL/MOL
REMARK 923 INTER-LIGAND FREE ENERGY PREDICTED BY IDOCK:   -7.22 KCAL/MOL
REMARK 924 INTRA-LIGAND FREE ENERGY PREDICTED BY IDOCK:   -1.03 KCAL/MOL
REMARK 927      BINDING AFFINITY PREDICTED BY RF-SCORE:    0.00 PKD
ROOT
HETATM    1  C   UNL     1     -10.162  11.342  66.474  1.00  0.00    -0.269 C  
HETATM    2  C   UNL     1      -9.267  12.503  66.702  1.00  0.00    -0.223 C  
HETATM    3  N   UNL     1      -9.588  13.764  66.711  1.00  0.00    -0.270 NA 
HETATM    4  N   UNL     1      -8.412  14.489  66.989  1.00  0.00    -0.215 N  
HETATM    5  O   UNL     1      -6.115  13.927  67.432  1.00  0.00    -0.345 OA 
HETATM    6  C   UNL     1      -7.283  13.706  67.178  1.00  0.00     0.211 C  
HETATM    7  C   UNL     1      -7.816  12.334  66.957  1.00  0.00    -0.108 C  
ENDROOT
BRANCH   4   8
HETATM    8  C   UNL     1      -8.461  15.903  67.007  1.00  0.00    -0.217 A  
HETATM    9  C   UNL     1      -7.404  16.662  66.501  1.00  0.00    -0.273 A  
HETATM   10  C   UNL     1      -7.455  18.056  66.491  1.00  0.00    -0.275 A  
HETATM   11  C   UNL     1      -9.575  16.583  67.519  1.00  0.00    -0.231 A  
HETATM   12  C   UNL     1     -10.886  18.633  68.081  1.00  0.00    -0.052 C  
HETATM   13  C   UNL     1      -9.644  17.991  67.521  1.00  0.00    -0.273 A  
HETATM   14  C   UNL     1      -8.572  18.735  66.996  1.00  0.00    -0.290 A  
HETATM   15  C   UNL     1      -8.567  20.237  66.963  1.00  0.00    -0.398 C  
ENDBRANCH   4   8
BRANCH   7  16
HETATM   16  N   UNL     1      -7.193  11.198  66.952  1.00  0.00    -0.130 NA 
HETATM   17  H   UNL     1      -6.756  10.830  66.107  1.00  0.00     0.000 HD 
BRANCH  16  18
HETATM   18  N   UNL     1      -7.150  10.519  68.136  1.00  0.00    -0.081 NA 
HETATM   19  H   UNL     1      -6.599  10.886  68.911  1.00  0.00     0.000 HD 
BRANCH  18  20
HETATM   20  C   UNL     1      -7.865   9.312  68.292  1.00  0.00    -0.098 A  
HETATM   21  C   UNL     1      -8.495   8.972  69.505  1.00  0.00    -0.125 A  
HETATM   22  C   UNL     1      -9.289   7.819  69.665  1.00  0.00    -0.153 A  
HETATM   23  O   UNL     1      -8.321   9.820  70.581  1.00  0.00    -0.331 OA 
HETATM   24  C   UNL     1      -7.967   8.410  67.231  1.00  0.00    -0.105 A  
HETATM   25  C   UNL     1      -9.335   6.927  68.583  1.00  0.00    -0.135 A  
HETATM   26  H   UNL     1      -8.746   9.591  71.399  1.00  0.00     0.000 HD 
HETATM   27  C   UNL     1      -8.677   7.215  67.382  1.00  0.00    -0.120 A  
BRANCH  22  28
HETATM   28  C   UNL     1     -10.138   7.628  70.859  1.00  0.00    -0.194 A  
HETATM   29  C   UNL     1      -9.894   6.648  71.832  1.00  0.00    -0.174 A  
HETATM   30  C   UNL     1     -10.772   6.475  72.912  1.00  0.00    -0.280 A  
HETATM   31  C   UNL     1     -11.886   7.303  73.057  1.00  0.00     0.193 A  
HETATM   32  C   UNL     1     -12.126   8.305  72.118  1.00  0.00    -0.425 A  
HETATM   33  C   UNL     1     -11.288   8.425  71.012  1.00  0.00    -0.303 A  
HETATM   34  C   UNL     1     -13.291   9.206  72.283  1.00  0.00    -0.477 C  
HETATM   35  O   UNL     1     -13.061  10.469  71.849  1.00  0.00    -0.457 OA 
HETATM   36  O   UNL     1     -14.335   8.853  72.790  1.00  0.00    -0.600 OA 
ENDBRANCH  22  28
ENDBRANCH  18  20
ENDBRANCH  16  18
ENDBRANCH   7  16
TORSDOF 5
ENDMDL
MODEL      151
REMARK 921   NORMALIZED FREE ENERGY PREDICTED BY IDOCK:   -5.36 KCAL/MOL
REMARK 922        TOTAL FREE ENERGY PREDICTED BY IDOCK:   -8.23 KCAL/MOL
REMARK 923 INTER-LIGAND FREE ENERGY PREDICTED BY IDOCK:   -8.11 KCAL/MOL
REMARK 924 INTRA-LIGAND FREE ENERGY PREDICTED BY IDOCK:   -0.13 KCAL/MOL
REMARK 927      BINDING AFFINITY PREDICTED BY RF-SCORE:    0.00 PKD
ROOT
HETATM    1  C   UNL     1     -10.160   4.131  65.128  1.00  0.00    -0.219 C  
HETATM    2  C   UNL     1     -10.026   4.408  66.579  1.00  0.00    -0.223 C  
HETATM    3  N   UNL     1      -9.644   3.586  67.513  1.00  0.00    -0.186 NA 
HETATM    4  N   UNL     1      -9.654   4.303  68.726  1.00  0.00    -0.162 N  
HETATM    5  O   UNL     1     -10.173   6.559  69.380  1.00  0.00    -0.169 OA 
HETATM    6  C   UNL     1     -10.039   5.630  68.608  1.00  0.00    -0.183 C  
HETATM    7  C   UNL     1     -10.338   5.739  67.154  1.00  0.00    -0.240 C  
ENDROOT
BRANCH   4   8
HETATM    8  C   UNL     1      -9.327   3.631  69.928  1.00  0.00    -0.176 A  
HETATM    9  C   UNL     1      -8.308   2.676  69.961  1.00  0.00    -0.074 A  
HETATM   10  C   UNL     1      -7.964   2.029  71.147  1.00  0.00    -0.049 A  
HETATM   11  C   UNL     1     -10.006   3.912  71.122  1.00  0.00    -0.169 A  
HETATM   12  C   UNL     1     -10.449   3.643  73.565  1.00  0.00    -0.261 C  
HETATM   13  C   UNL     1      -9.674   3.267  72.331  1.00  0.00    -0.214 A  
HETATM   14  C   UNL     1      -8.636   2.317  72.342  1.00  0.00    -0.072 A  
HETATM   15  C   UNL     1      -8.223   1.583  73.587  1.00  0.00    -0.046 C  
ENDBRANCH   4   8
BRANCH   7  16
HETATM   16  N   UNL     1     -10.797   6.745  66.479  1.00  0.00    -0.488 NA 
HETATM   17  H   UNL     1     -11.784   6.821  66.235  1.00  0.00     0.000 HD 
BRANCH  16  18
HETATM   18  N   UNL     1      -9.891   7.698  66.113  1.00  0.00    -0.451 NA 
HETATM   19  H   UNL     1      -9.141   7.463  65.463  1.00  0.00     0.000 HD 
BRANCH  18  20
HETATM   20  C   UNL     1      -9.987   9.010  66.628  1.00  0.00    -0.278 A  
HETATM   21  C   UNL     1     -10.315  10.109  65.810  1.00  0.00    -0.146 A  
HETATM   22  C   UNL     1     -10.505  11.412  66.311  1.00  0.00    -0.301 A  
HETATM   23  O   UNL     1     -10.459   9.883  64.456  1.00  0.00    -0.200 OA 
HETATM   24  C   UNL     1      -9.753   9.253  67.984  1.00  0.00    -0.172 A  
HETATM   25  C   UNL     1     -10.228  11.615  67.671  1.00  0.00    -0.206 A  
HETATM   26  H   UNL     1     -10.681  10.624  63.904  1.00  0.00     0.000 HD 
HETATM   27  C   UNL     1      -9.851  10.550  68.497  1.00  0.00    -0.175 A  
BRANCH  22  28
HETATM   28  C   UNL     1     -11.097  12.478  65.477  1.00  0.00    -0.336 A  
HETATM   29  C   UNL     1     -11.893  12.227  64.349  1.00  0.00    -0.464 A  
HETATM   30  C   UNL     1     -12.375  13.281  63.562  1.00  0.00    -0.442 A  
HETATM   31  C   UNL     1     -12.104  14.606  63.911  1.00  0.00    -0.076 A  
HETATM   32  C   UNL     1     -11.345  14.876  65.048  1.00  0.00    -0.398 A  
HETATM   33  C   UNL     1     -10.811  13.821  65.785  1.00  0.00    -0.277 A  
HETATM   34  C   UNL     1     -11.079  16.281  65.440  1.00  0.00    -0.087 C  
HETATM   35  O   UNL     1     -11.022  16.465  66.780  1.00  0.00    -0.163 OA 
HETATM   36  O   UNL     1     -10.959  17.181  64.636  1.00  0.00    -1.005 OA 
ENDBRANCH  22  28
ENDBRANCH  18  20
ENDBRANCH  16  18
ENDBRANCH   7  16
TORSDOF 5
ENDMDL
MODEL      152
REMARK 921   NORMALIZED FREE ENERGY PREDICTED BY IDOCK:   -5.34 KCAL/MOL
REMARK 922        TOTAL FREE ENERGY PREDICTED BY IDOCK:   -8.21 KCAL/MOL
REMARK 923 INTER-LIGAND FREE ENERGY PREDICTED BY IDOCK:   -7.40 KCAL/MOL
REMARK 924 INTRA-LIGAND FREE ENERGY PREDICTED BY IDOCK:   -0.80 KCAL/MOL
REMARK 927      BINDING AFFINITY PREDICTED BY RF-SCORE:    0.00 PKD
ROOT
HETATM    1  C   UNL     1      -7.048  11.709  66.716  1.00  0.00    -0.083 C  
HETATM    2  C   UNL     1      -8.486  11.904  67.028  1.00  0.00    -0.177 C  
HETATM    3  N   UNL     1      -9.012  12.236  68.171  1.00  0.00    -0.189 NA 
HETATM    4  N   UNL     1     -10.405  12.321  67.976  1.00  0.00    -0.208 N  
HETATM    5  O   UNL     1     -11.898  12.020  66.113  1.00  0.00    -0.546 OA 
HETATM    6  C   UNL     1     -10.824  12.051  66.682  1.00  0.00    -0.272 C  
HETATM    7  C   UNL     1      -9.541  11.726  66.001  1.00  0.00    -0.230 C  
ENDROOT
BRANCH   4   8
HETATM    8  C   UNL     1     -11.240  12.617  69.079  1.00  0.00    -0.269 A  
HETATM    9  C   UNL     1     -11.732  11.599  69.899  1.00  0.00    -0.414 A  
HETATM   10  C   UNL     1     -12.535  11.885  71.003  1.00  0.00    -0.390 A  
HETATM   11  C   UNL     1     -11.586  13.939  69.391  1.00  0.00    -0.350 A  
HETATM   12  C   UNL     1     -12.706  15.698  70.766  1.00  0.00    -0.483 C  
HETATM   13  C   UNL     1     -12.398  14.248  70.502  1.00  0.00    -0.430 A  
HETATM   14  C   UNL     1     -12.873  13.207  71.320  1.00  0.00    -0.384 A  
HETATM   15  C   UNL     1     -13.744  13.452  72.519  1.00  0.00    -0.636 C  
ENDBRANCH   4   8
BRANCH   7  16
HETATM   16  N   UNL     1      -9.328  11.341  64.782  1.00  0.00    -0.338 NA 
HETATM   17  H   UNL     1      -8.925  11.967  64.085  1.00  0.00     0.000 HD 
BRANCH  16  18
HETATM   18  N   UNL     1      -9.670  10.055  64.480  1.00  0.00    -0.376 NA 
HETATM   19  H   UNL     1     -10.575   9.857  64.053  1.00  0.00     0.000 HD 
BRANCH  18  20
HETATM   20  C   UNL     1      -8.777   8.995  64.754  1.00  0.00    -0.153 A  
HETATM   21  C   UNL     1      -8.858   8.243  65.942  1.00  0.00    -0.160 A  
HETATM   22  C   UNL     1      -8.041   7.126  66.204  1.00  0.00    -0.121 A  
HETATM   23  O   UNL     1      -9.791   8.627  66.886  1.00  0.00    -0.193 OA 
HETATM   24  C   UNL     1      -7.775   8.663  63.840  1.00  0.00    -0.135 A  
HETATM   25  C   UNL     1      -7.028   6.850  65.274  1.00  0.00    -0.052 A  
HETATM   26  H   UNL     1      -9.845   8.120  67.687  1.00  0.00     0.000 HD 
HETATM   27  C   UNL     1      -6.892   7.612  64.108  1.00  0.00    -0.056 A  
BRANCH  22  28
HETATM   28  C   UNL     1      -8.324   6.212  67.330  1.00  0.00    -0.108 A  
HETATM   29  C   UNL     1      -9.469   6.306  68.134  1.00  0.00    -0.113 A  
HETATM   30  C   UNL     1      -9.651   5.448  69.227  1.00  0.00    -0.198 A  
HETATM   31  C   UNL     1      -8.711   4.455  69.511  1.00  0.00    -0.117 A  
HETATM   32  C   UNL     1      -7.584   4.323  68.702  1.00  0.00    -0.063 A  
HETATM   33  C   UNL     1      -7.376   5.225  67.661  1.00  0.00    -0.076 A  
HETATM   34  C   UNL     1      -6.597   3.253  68.981  1.00  0.00    -0.034 C  
HETATM   35  O   UNL     1      -6.024   2.744  67.864  1.00  0.00    -0.023 OA 
HETATM   36  O   UNL     1      -6.356   2.850  70.099  1.00  0.00    -0.027 OA 
ENDBRANCH  22  28
ENDBRANCH  18  20
ENDBRANCH  16  18
ENDBRANCH   7  16
TORSDOF 5
ENDMDL
MODEL      153
REMARK 921   NORMALIZED FREE ENERGY PREDICTED BY IDOCK:   -5.32 KCAL/MOL
REMARK 922        TOTAL FREE ENERGY PREDICTED BY IDOCK:   -8.18 KCAL/MOL
REMARK 923 INTER-LIGAND FREE ENERGY PREDICTED BY IDOCK:   -6.30 KCAL/MOL
REMARK 924 INTRA-LIGAND FREE ENERGY PREDICTED BY IDOCK:   -1.88 KCAL/MOL
REMARK 927      BINDING AFFINITY PREDICTED BY RF-SCORE:    0.00 PKD
ROOT
HETATM    1  C   UNL     1     -11.388  16.207  70.627  1.00  0.00    -0.394 C  
HETATM    2  C   UNL     1     -11.206  16.016  69.167  1.00  0.00    -0.342 C  
HETATM    3  N   UNL     1     -11.622  15.021  68.438  1.00  0.00    -0.323 NA 
HETATM    4  N   UNL     1     -11.232  15.289  67.111  1.00  0.00    -0.321 N  
HETATM    5  O   UNL     1     -10.065  17.070  65.992  1.00  0.00    -0.371 OA 
HETATM    6  C   UNL     1     -10.552  16.485  66.940  1.00  0.00    -0.238 C  
HETATM    7  C   UNL     1     -10.481  17.005  68.332  1.00  0.00    -0.370 C  
ENDROOT
BRANCH   4   8
HETATM    8  C   UNL     1     -11.512  14.335  66.104  1.00  0.00    -0.355 A  
HETATM    9  C   UNL     1     -12.826  14.079  65.706  1.00  0.00    -0.416 A  
HETATM   10  C   UNL     1     -13.109  13.160  64.696  1.00  0.00     0.060 A  
HETATM   11  C   UNL     1     -10.482  13.632  65.466  1.00  0.00    -0.314 A  
HETATM   12  C   UNL     1      -9.575  11.998  63.809  1.00  0.00    -0.095 C  
HETATM   13  C   UNL     1     -10.747  12.696  64.444  1.00  0.00    -0.384 A  
HETATM   14  C   UNL     1     -12.078  12.463  64.052  1.00  0.00    -0.563 A  
HETATM   15  C   UNL     1     -12.445  11.481  62.975  1.00  0.00     0.217 C  
ENDBRANCH   4   8
BRANCH   7  16
HETATM   16  N   UNL     1      -9.903  18.072  68.787  1.00  0.00    -0.361 NA 
HETATM   17  H   UNL     1     -10.355  18.985  68.742  1.00  0.00     0.000 HD 
BRANCH  16  18
HETATM   18  N   UNL     1      -8.661  17.911  69.328  1.00  0.00     0.165 NA 
HETATM   19  H   UNL     1      -8.455  18.296  70.249  1.00  0.00     0.000 HD 
BRANCH  18  20
HETATM   20  C   UNL     1      -7.658  17.213  68.619  1.00  0.00    -0.258 A  
HETATM   21  C   UNL     1      -7.347  15.868  68.900  1.00  0.00    -0.167 A  
HETATM   22  C   UNL     1      -6.416  15.121  68.152  1.00  0.00    -0.135 A  
HETATM   23  O   UNL     1      -7.995  15.265  69.960  1.00  0.00    -0.236 OA 
HETATM   24  C   UNL     1      -6.939  17.850  67.605  1.00  0.00    -0.204 A  
HETATM   25  C   UNL     1      -5.695  15.810  67.166  1.00  0.00     0.205 A  
HETATM   26  H   UNL     1      -7.784  14.358  70.149  1.00  0.00     0.000 HD 
HETATM   27  C   UNL     1      -5.949  17.160  66.898  1.00  0.00    -0.224 A  
BRANCH  22  28
HETATM   28  C   UNL     1      -6.304  13.655  68.305  1.00  0.00    -0.107 A  
HETATM   29  C   UNL     1      -5.227  13.025  68.944  1.00  0.00    -0.068 A  
HETATM   30  C   UNL     1      -5.146  11.627  69.004  1.00  0.00    -0.043 A  
HETATM   31  C   UNL     1      -6.161  10.836  68.462  1.00  0.00    -0.046 A  
HETATM   32  C   UNL     1      -7.257  11.445  67.853  1.00  0.00    -0.084 A  
HETATM   33  C   UNL     1      -7.295  12.833  67.737  1.00  0.00    -0.130 A  
HETATM   34  C   UNL     1      -8.351  10.612  67.302  1.00  0.00    -0.120 C  
HETATM   35  O   UNL     1      -9.574  11.182  67.419  1.00  0.00    -0.167 OA 
HETATM   36  O   UNL     1      -8.170   9.512  66.825  1.00  0.00    -0.112 OA 
ENDBRANCH  22  28
ENDBRANCH  18  20
ENDBRANCH  16  18
ENDBRANCH   7  16
TORSDOF 5
ENDMDL
MODEL      154
REMARK 921   NORMALIZED FREE ENERGY PREDICTED BY IDOCK:   -5.30 KCAL/MOL
REMARK 922        TOTAL FREE ENERGY PREDICTED BY IDOCK:   -8.16 KCAL/MOL
REMARK 923 INTER-LIGAND FREE ENERGY PREDICTED BY IDOCK:   -6.70 KCAL/MOL
REMARK 924 INTRA-LIGAND FREE ENERGY PREDICTED BY IDOCK:   -1.46 KCAL/MOL
REMARK 927      BINDING AFFINITY PREDICTED BY RF-SCORE:    0.00 PKD
ROOT
HETATM    1  C   UNL     1      -6.077  10.287  65.601  1.00  0.00    -0.108 C  
HETATM    2  C   UNL     1      -6.631   9.063  66.230  1.00  0.00    -0.066 C  
HETATM    3  N   UNL     1      -6.827   7.903  65.672  1.00  0.00    -0.052 NA 
HETATM    4  N   UNL     1      -7.349   7.050  66.664  1.00  0.00    -0.079 N  
HETATM    5  O   UNL     1      -7.897   7.265  68.997  1.00  0.00    -0.113 OA 
HETATM    6  C   UNL     1      -7.500   7.639  67.911  1.00  0.00    -0.108 C  
HETATM    7  C   UNL     1      -7.051   9.034  67.652  1.00  0.00    -0.076 C  
ENDROOT
BRANCH   4   8
HETATM    8  C   UNL     1      -7.708   5.726  66.317  1.00  0.00    -0.099 A  
HETATM    9  C   UNL     1      -6.869   4.653  66.624  1.00  0.00    -0.052 A  
HETATM   10  C   UNL     1      -7.227   3.342  66.308  1.00  0.00    -0.067 A  
HETATM   11  C   UNL     1      -8.920   5.450  65.670  1.00  0.00    -0.160 A  
HETATM   12  C   UNL     1     -10.625   3.933  64.656  1.00  0.00    -0.171 C  
HETATM   13  C   UNL     1      -9.299   4.133  65.340  1.00  0.00    -0.163 A  
HETATM   14  C   UNL     1      -8.443   3.066  65.669  1.00  0.00    -0.105 A  
HETATM   15  C   UNL     1      -8.771   1.635  65.350  1.00  0.00    -0.117 C  
ENDBRANCH   4   8
BRANCH   7  16
HETATM   16  N   UNL     1      -7.028  10.055  68.449  1.00  0.00    -0.066 NA 
HETATM   17  H   UNL     1      -6.348  10.807  68.337  1.00  0.00     0.000 HD 
BRANCH  16  18
HETATM   18  N   UNL     1      -7.961  10.073  69.445  1.00  0.00    -0.130 NA 
HETATM   19  H   UNL     1      -7.723   9.713  70.369  1.00  0.00     0.000 HD 
BRANCH  18  20
HETATM   20  C   UNL     1      -9.254  10.587  69.203  1.00  0.00    -0.171 A  
HETATM   21  C   UNL     1      -9.466  11.705  68.373  1.00  0.00    -0.193 A  
HETATM   22  C   UNL     1     -10.748  12.185  68.041  1.00  0.00    -0.242 A  
HETATM   23  O   UNL     1      -8.356  12.349  67.863  1.00  0.00    -0.144 OA 
HETATM   24  C   UNL     1     -10.371   9.990  69.790  1.00  0.00    -0.290 A  
HETATM   25  C   UNL     1     -11.839  11.576  68.680  1.00  0.00    -0.382 A  
HETATM   26  H   UNL     1      -8.500  13.104  67.304  1.00  0.00     0.000 HD 
HETATM   27  C   UNL     1     -11.653  10.495  69.549  1.00  0.00    -0.332 A  
BRANCH  22  28
HETATM   28  C   UNL     1     -10.943  13.188  66.973  1.00  0.00    -0.289 A  
HETATM   29  C   UNL     1     -11.421  12.871  65.693  1.00  0.00    -0.368 A  
HETATM   30  C   UNL     1     -11.526  13.856  64.702  1.00  0.00    -0.386 A  
HETATM   31  C   UNL     1     -11.192  15.182  64.985  1.00  0.00    -0.414 A  
HETATM   32  C   UNL     1     -10.747  15.522  66.261  1.00  0.00    -0.307 A  
HETATM   33  C   UNL     1     -10.581  14.525  67.219  1.00  0.00    -0.280 A  
HETATM   34  C   UNL     1     -10.420  16.933  66.576  1.00  0.00    -0.253 C  
HETATM   35  O   UNL     1     -10.713  17.283  67.851  1.00  0.00    -0.372 OA 
HETATM   36  O   UNL     1      -9.966  17.705  65.758  1.00  0.00    -0.544 OA 
ENDBRANCH  22  28
ENDBRANCH  18  20
ENDBRANCH  16  18
ENDBRANCH   7  16
TORSDOF 5
ENDMDL
MODEL      155
REMARK 921   NORMALIZED FREE ENERGY PREDICTED BY IDOCK:   -5.29 KCAL/MOL
REMARK 922        TOTAL FREE ENERGY PREDICTED BY IDOCK:   -8.14 KCAL/MOL
REMARK 923 INTER-LIGAND FREE ENERGY PREDICTED BY IDOCK:   -7.79 KCAL/MOL
REMARK 924 INTRA-LIGAND FREE ENERGY PREDICTED BY IDOCK:   -0.35 KCAL/MOL
REMARK 927      BINDING AFFINITY PREDICTED BY RF-SCORE:    0.00 PKD
ROOT
HETATM    1  C   UNL     1     -10.472   9.657  70.935  1.00  0.00    -0.359 C  
HETATM    2  C   UNL     1     -10.323   9.622  69.459  1.00  0.00    -0.221 C  
HETATM    3  N   UNL     1      -9.678   8.743  68.747  1.00  0.00    -0.162 NA 
HETATM    4  N   UNL     1      -9.834   9.111  67.396  1.00  0.00    -0.173 N  
HETATM    5  O   UNL     1     -10.968  10.877  66.219  1.00  0.00    -0.185 OA 
HETATM    6  C   UNL     1     -10.601  10.249  67.192  1.00  0.00    -0.260 C  
HETATM    7  C   UNL     1     -10.932  10.654  68.586  1.00  0.00    -0.246 C  
ENDROOT
BRANCH   4   8
HETATM    8  C   UNL     1      -9.185   8.352  66.394  1.00  0.00    -0.201 A  
HETATM    9  C   UNL     1      -9.168   6.956  66.452  1.00  0.00    -0.186 A  
HETATM   10  C   UNL     1      -8.553   6.199  65.455  1.00  0.00    -0.111 A  
HETATM   11  C   UNL     1      -8.553   8.974  65.308  1.00  0.00    -0.199 A  
HETATM   12  C   UNL     1      -7.283   8.982  63.158  1.00  0.00    -0.092 C  
HETATM   13  C   UNL     1      -7.924   8.226  64.291  1.00  0.00    -0.148 A  
HETATM   14  C   UNL     1      -7.929   6.821  64.365  1.00  0.00    -0.096 A  
HETATM   15  C   UNL     1      -7.279   5.953  63.325  1.00  0.00    -0.050 C  
ENDBRANCH   4   8
BRANCH   7  16
HETATM   16  N   UNL     1     -11.587  11.688  69.011  1.00  0.00    -0.287 NA 
HETATM   17  H   UNL     1     -12.606  11.720  68.997  1.00  0.00     0.000 HD 
BRANCH  16  18
HETATM   18  N   UNL     1     -10.842  12.732  69.480  1.00  0.00    -0.432 NA 
HETATM   19  H   UNL     1     -10.939  13.028  70.451  1.00  0.00     0.000 HD 
BRANCH  18  20
HETATM   20  C   UNL     1      -9.939  13.404  68.627  1.00  0.00    -0.135 A  
HETATM   21  C   UNL     1     -10.201  14.699  68.139  1.00  0.00    -0.231 A  
HETATM   22  C   UNL     1      -9.281  15.430  67.361  1.00  0.00    -0.204 A  
HETATM   23  O   UNL     1     -11.419  15.271  68.450  1.00  0.00    -0.316 OA 
HETATM   24  C   UNL     1      -8.746  12.791  68.239  1.00  0.00    -0.168 A  
HETATM   25  C   UNL     1      -8.112  14.762  66.969  1.00  0.00    -0.177 A  
HETATM   26  H   UNL     1     -11.595  16.144  68.121  1.00  0.00     0.000 HD 
HETATM   27  C   UNL     1      -7.849  13.456  67.397  1.00  0.00    -0.154 A  
BRANCH  22  28
HETATM   28  C   UNL     1      -9.476  16.869  67.087  1.00  0.00    -0.241 A  
HETATM   29  C   UNL     1     -10.520  17.371  66.296  1.00  0.00    -0.276 A  
HETATM   30  C   UNL     1     -10.616  18.742  66.022  1.00  0.00    -0.442 A  
HETATM   31  C   UNL     1      -9.693  19.639  66.565  1.00  0.00    -0.498 A  
HETATM   32  C   UNL     1      -8.669  19.162  67.381  1.00  0.00    -0.317 A  
HETATM   33  C   UNL     1      -8.540  17.791  67.592  1.00  0.00    -0.230 A  
HETATM   34  C   UNL     1      -7.704  20.112  67.984  1.00  0.00    -0.231 C  
HETATM   35  O   UNL     1      -7.281  19.740  69.215  1.00  0.00    -0.340 OA 
HETATM   36  O   UNL     1      -7.358  21.139  67.439  1.00  0.00    -0.427 OA 
ENDBRANCH  22  28
ENDBRANCH  18  20
ENDBRANCH  16  18
ENDBRANCH   7  16
TORSDOF 5
ENDMDL
MODEL      156
REMARK 921   NORMALIZED FREE ENERGY PREDICTED BY IDOCK:   -5.25 KCAL/MOL
REMARK 922        TOTAL FREE ENERGY PREDICTED BY IDOCK:   -8.09 KCAL/MOL
REMARK 923 INTER-LIGAND FREE ENERGY PREDICTED BY IDOCK:   -8.63 KCAL/MOL
REMARK 924 INTRA-LIGAND FREE ENERGY PREDICTED BY IDOCK:    0.54 KCAL/MOL
REMARK 927      BINDING AFFINITY PREDICTED BY RF-SCORE:    0.00 PKD
ROOT
HETATM    1  C   UNL     1      -7.666  15.367  66.771  1.00  0.00    -0.045 C  
HETATM    2  C   UNL     1      -8.220  14.033  67.110  1.00  0.00    -0.125 C  
HETATM    3  N   UNL     1      -7.878  13.259  68.099  1.00  0.00    -0.134 NA 
HETATM    4  N   UNL     1      -8.691  12.110  68.027  1.00  0.00    -0.173 N  
HETATM    5  O   UNL     1     -10.456  11.346  66.581  1.00  0.00    -0.225 OA 
HETATM    6  C   UNL     1      -9.601  12.113  66.981  1.00  0.00    -0.205 C  
HETATM    7  C   UNL     1      -9.291  13.401  66.302  1.00  0.00    -0.121 C  
ENDROOT
BRANCH   4   8
HETATM    8  C   UNL     1      -8.494  11.065  68.961  1.00  0.00    -0.076 A  
HETATM    9  C   UNL     1      -9.569  10.294  69.409  1.00  0.00    -0.237 A  
HETATM   10  C   UNL     1      -9.380   9.246  70.310  1.00  0.00    -0.277 A  
HETATM   11  C   UNL     1      -7.217  10.764  69.451  1.00  0.00    -0.132 A  
HETATM   12  C   UNL     1      -5.596   9.452  70.826  1.00  0.00    -0.046 C  
HETATM   13  C   UNL     1      -7.005   9.709  70.364  1.00  0.00    -0.128 A  
HETATM   14  C   UNL     1      -8.101   8.939  70.793  1.00  0.00    -0.179 A  
HETATM   15  C   UNL     1      -7.961   7.801  71.765  1.00  0.00    -0.104 C  
ENDBRANCH   4   8
BRANCH   7  16
HETATM   16  N   UNL     1      -9.797  13.907  65.222  1.00  0.00    -0.572 NA 
HETATM   17  H   UNL     1      -9.536  13.565  64.297  1.00  0.00     0.000 HD 
BRANCH  16  18
HETATM   18  N   UNL     1     -10.696  14.921  65.385  1.00  0.00    -0.349 NA 
HETATM   19  H   UNL     1     -11.232  15.257  64.586  1.00  0.00     0.000 HD 
BRANCH  18  20
HETATM   20  C   UNL     1     -10.888  15.507  66.656  1.00  0.00    -0.285 A  
HETATM   21  C   UNL     1     -11.694  14.902  67.640  1.00  0.00    -0.307 A  
HETATM   22  C   UNL     1     -11.833  15.416  68.944  1.00  0.00    -0.350 A  
HETATM   23  O   UNL     1     -12.372  13.749  67.298  1.00  0.00    -0.426 OA 
HETATM   24  C   UNL     1     -10.273  16.720  66.973  1.00  0.00    -0.292 A  
HETATM   25  C   UNL     1     -11.225  16.653  69.207  1.00  0.00    -0.123 A  
HETATM   26  H   UNL     1     -12.917  13.342  67.961  1.00  0.00     0.000 HD 
HETATM   27  C   UNL     1     -10.459  17.301  68.231  1.00  0.00    -0.385 A  
BRANCH  22  28
HETATM   28  C   UNL     1     -12.471  14.627  70.019  1.00  0.00    -0.333 A  
HETATM   29  C   UNL     1     -13.184  15.202  71.081  1.00  0.00    -0.535 A  
HETATM   30  C   UNL     1     -13.714  14.404  72.104  1.00  0.00    -0.557 A  
HETATM   31  C   UNL     1     -13.574  13.015  72.063  1.00  0.00    -0.530 A  
HETATM   32  C   UNL     1     -12.898  12.423  70.997  1.00  0.00    -0.245 A  
HETATM   33  C   UNL     1     -12.315  13.228  70.021  1.00  0.00    -0.269 A  
HETATM   34  C   UNL     1     -12.772  10.948  70.932  1.00  0.00    -0.370 C  
HETATM   35  O   UNL     1     -12.800  10.460  69.669  1.00  0.00    -0.078 OA 
HETATM   36  O   UNL     1     -12.689  10.247  71.918  1.00  0.00    -0.415 OA 
ENDBRANCH  22  28
ENDBRANCH  18  20
ENDBRANCH  16  18
ENDBRANCH   7  16
TORSDOF 5
ENDMDL
MODEL      157
REMARK 921   NORMALIZED FREE ENERGY PREDICTED BY IDOCK:   -5.22 KCAL/MOL
REMARK 922        TOTAL FREE ENERGY PREDICTED BY IDOCK:   -8.04 KCAL/MOL
REMARK 923 INTER-LIGAND FREE ENERGY PREDICTED BY IDOCK:   -6.10 KCAL/MOL
REMARK 924 INTRA-LIGAND FREE ENERGY PREDICTED BY IDOCK:   -1.94 KCAL/MOL
REMARK 927      BINDING AFFINITY PREDICTED BY RF-SCORE:    0.00 PKD
ROOT
HETATM    1  C   UNL     1     -10.593   6.003  68.535  1.00  0.00    -0.325 C  
HETATM    2  C   UNL     1     -10.521   7.196  69.413  1.00  0.00    -0.222 C  
HETATM    3  N   UNL     1     -11.354   8.194  69.468  1.00  0.00     0.168 NA 
HETATM    4  N   UNL     1     -10.883   9.074  70.463  1.00  0.00    -0.238 N  
HETATM    5  O   UNL     1      -9.014   9.106  71.978  1.00  0.00    -0.337 OA 
HETATM    6  C   UNL     1      -9.720   8.659  71.095  1.00  0.00    -0.224 C  
HETATM    7  C   UNL     1      -9.415   7.389  70.383  1.00  0.00    -0.165 C  
ENDROOT
BRANCH   4   8
HETATM    8  C   UNL     1     -11.577  10.284  70.701  1.00  0.00    -0.347 A  
HETATM    9  C   UNL     1     -12.551  10.367  71.698  1.00  0.00    -0.521 A  
HETATM   10  C   UNL     1     -13.222  11.562  71.956  1.00  0.00    -0.443 A  
HETATM   11  C   UNL     1     -11.300  11.436  69.953  1.00  0.00    -0.300 A  
HETATM   12  C   UNL     1     -11.594  13.842  69.352  1.00  0.00    -0.350 C  
HETATM   13  C   UNL     1     -11.968  12.654  70.197  1.00  0.00    -0.375 A  
HETATM   14  C   UNL     1     -12.938  12.717  71.215  1.00  0.00    -0.310 A  
HETATM   15  C   UNL     1     -13.696  13.974  71.535  1.00  0.00    -0.356 C  
ENDBRANCH   4   8
BRANCH   7  16
HETATM   16  N   UNL     1      -8.404   6.590  70.517  1.00  0.00    -0.131 NA 
HETATM   17  H   UNL     1      -8.509   5.656  70.914  1.00  0.00     0.000 HD 
BRANCH  16  18
HETATM   18  N   UNL     1      -7.193   7.061  70.101  1.00  0.00    -0.074 NA 
HETATM   19  H   UNL     1      -6.448   7.218  70.780  1.00  0.00     0.000 HD 
BRANCH  18  20
HETATM   20  C   UNL     1      -6.965   7.333  68.734  1.00  0.00    -0.079 A  
HETATM   21  C   UNL     1      -7.017   6.321  67.755  1.00  0.00    -0.075 A  
HETATM   22  C   UNL     1      -6.883   6.576  66.376  1.00  0.00    -0.061 A  
HETATM   23  O   UNL     1      -7.215   5.023  68.181  1.00  0.00    -0.061 OA 
HETATM   24  C   UNL     1      -6.676   8.633  68.312  1.00  0.00    -0.065 A  
HETATM   25  C   UNL     1      -6.561   7.890  66.002  1.00  0.00    -0.049 A  
HETATM   26  H   UNL     1      -7.250   4.341  67.521  1.00  0.00     0.000 HD 
HETATM   27  C   UNL     1      -6.453   8.906  66.959  1.00  0.00    -0.061 A  
BRANCH  22  28
HETATM   28  C   UNL     1      -7.199   5.544  65.367  1.00  0.00    -0.067 A  
HETATM   29  C   UNL     1      -6.222   4.827  64.662  1.00  0.00    -0.030 A  
HETATM   30  C   UNL     1      -6.584   3.903  63.672  1.00  0.00    -0.038 A  
HETATM   31  C   UNL     1      -7.930   3.651  63.399  1.00  0.00    -0.079 A  
HETATM   32  C   UNL     1      -8.916   4.328  64.114  1.00  0.00    -0.148 A  
HETATM   33  C   UNL     1      -8.547   5.295  65.047  1.00  0.00    -0.150 A  
HETATM   34  C   UNL     1     -10.346   4.043  63.849  1.00  0.00    -0.145 C  
HETATM   35  O   UNL     1     -11.126   4.128  64.953  1.00  0.00    -0.240 OA 
HETATM   36  O   UNL     1     -10.767   3.729  62.756  1.00  0.00    -0.206 OA 
ENDBRANCH  22  28
ENDBRANCH  18  20
ENDBRANCH  16  18
ENDBRANCH   7  16
TORSDOF 5
ENDMDL
MODEL      158
REMARK 921   NORMALIZED FREE ENERGY PREDICTED BY IDOCK:   -5.21 KCAL/MOL
REMARK 922        TOTAL FREE ENERGY PREDICTED BY IDOCK:   -8.03 KCAL/MOL
REMARK 923 INTER-LIGAND FREE ENERGY PREDICTED BY IDOCK:   -7.02 KCAL/MOL
REMARK 924 INTRA-LIGAND FREE ENERGY PREDICTED BY IDOCK:   -1.01 KCAL/MOL
REMARK 927      BINDING AFFINITY PREDICTED BY RF-SCORE:    0.00 PKD
ROOT
HETATM    1  C   UNL     1      -5.548  11.688  69.666  1.00  0.00    -0.076 C  
HETATM    2  C   UNL     1      -6.798  12.186  69.043  1.00  0.00    -0.098 C  
HETATM    3  N   UNL     1      -7.053  13.393  68.627  1.00  0.00    -0.102 NA 
HETATM    4  N   UNL     1      -8.357  13.380  68.093  1.00  0.00    -0.157 N  
HETATM    5  O   UNL     1     -10.073  11.720  67.795  1.00  0.00    -0.183 OA 
HETATM    6  C   UNL     1      -8.988  12.146  68.140  1.00  0.00    -0.195 C  
HETATM    7  C   UNL     1      -7.967  11.301  68.816  1.00  0.00    -0.137 C  
ENDROOT
BRANCH   4   8
HETATM    8  C   UNL     1      -8.917  14.587  67.611  1.00  0.00    -0.193 A  
HETATM    9  C   UNL     1      -9.413  14.676  66.308  1.00  0.00    -0.322 A  
HETATM   10  C   UNL     1      -9.990  15.854  65.834  1.00  0.00    -0.377 A  
HETATM   11  C   UNL     1      -9.004  15.722  68.428  1.00  0.00    -0.187 A  
HETATM   12  C   UNL     1      -9.643  18.086  68.921  1.00  0.00    -0.240 C  
HETATM   13  C   UNL     1      -9.582  16.923  67.966  1.00  0.00    -0.247 A  
HETATM   14  C   UNL     1     -10.085  16.986  66.654  1.00  0.00    -0.308 A  
HETATM   15  C   UNL     1     -10.712  18.227  66.086  1.00  0.00    -0.185 C  
ENDBRANCH   4   8
BRANCH   7  16
HETATM   16  N   UNL     1      -8.032  10.058  69.178  1.00  0.00    -0.105 NA 
HETATM   17  H   UNL     1      -7.533   9.326  68.672  1.00  0.00     0.000 HD 
BRANCH  16  18
HETATM   18  N   UNL     1      -8.803   9.780  70.270  1.00  0.00    -0.326 NA 
HETATM   19  H   UNL     1      -8.685  10.323  71.125  1.00  0.00     0.000 HD 
BRANCH  18  20
HETATM   20  C   UNL     1      -9.761   8.743  70.222  1.00  0.00    -0.176 A  
HETATM   21  C   UNL     1      -9.526   7.546  69.517  1.00  0.00    -0.156 A  
HETATM   22  C   UNL     1     -10.424   6.460  69.525  1.00  0.00    -0.279 A  
HETATM   23  O   UNL     1      -8.355   7.443  68.793  1.00  0.00    -0.127 OA 
HETATM   24  C   UNL     1     -10.984   8.882  70.882  1.00  0.00    -0.325 A  
HETATM   25  C   UNL     1     -11.652   6.657  70.172  1.00  0.00    -0.446 A  
HETATM   26  H   UNL     1      -8.198   6.636  68.317  1.00  0.00     0.000 HD 
HETATM   27  C   UNL     1     -11.932   7.856  70.838  1.00  0.00    -0.211 A  
BRANCH  22  28
HETATM   28  C   UNL     1     -10.035   5.136  68.996  1.00  0.00    -0.265 A  
HETATM   29  C   UNL     1      -9.679   4.051  69.811  1.00  0.00    -0.254 A  
HETATM   30  C   UNL     1      -9.260   2.838  69.248  1.00  0.00    -0.209 A  
HETATM   31  C   UNL     1      -9.227   2.676  67.862  1.00  0.00    -0.252 A  
HETATM   32  C   UNL     1      -9.610   3.731  67.036  1.00  0.00    -0.213 A  
HETATM   33  C   UNL     1      -9.959   4.955  67.603  1.00  0.00    -0.192 A  
HETATM   34  C   UNL     1      -9.606   3.554  65.565  1.00  0.00    -0.125 C  
HETATM   35  O   UNL     1     -10.593   4.236  64.937  1.00  0.00    -0.240 OA 
HETATM   36  O   UNL     1      -8.815   2.840  64.986  1.00  0.00    -0.111 OA 
ENDBRANCH  22  28
ENDBRANCH  18  20
ENDBRANCH  16  18
ENDBRANCH   7  16
TORSDOF 5
ENDMDL
MODEL      159
REMARK 921   NORMALIZED FREE ENERGY PREDICTED BY IDOCK:   -5.15 KCAL/MOL
REMARK 922        TOTAL FREE ENERGY PREDICTED BY IDOCK:   -7.95 KCAL/MOL
REMARK 923 INTER-LIGAND FREE ENERGY PREDICTED BY IDOCK:   -7.22 KCAL/MOL
REMARK 924 INTRA-LIGAND FREE ENERGY PREDICTED BY IDOCK:   -0.74 KCAL/MOL
REMARK 927      BINDING AFFINITY PREDICTED BY RF-SCORE:    0.00 PKD
ROOT
HETATM    1  C   UNL     1     -11.550   6.936  70.231  1.00  0.00    -0.362 C  
HETATM    2  C   UNL     1     -10.898   6.992  68.900  1.00  0.00    -0.167 C  
HETATM    3  N   UNL     1     -10.310   6.021  68.262  1.00  0.00    -0.185 NA 
HETATM    4  N   UNL     1      -9.863   6.544  67.032  1.00  0.00    -0.148 N  
HETATM    5  O   UNL     1      -9.965   8.686  65.941  1.00  0.00    -0.162 OA 
HETATM    6  C   UNL     1     -10.160   7.884  66.833  1.00  0.00    -0.291 C  
HETATM    7  C   UNL     1     -10.843   8.243  68.106  1.00  0.00     0.078 C  
ENDROOT
BRANCH   4   8
HETATM    8  C   UNL     1      -9.135   5.710  66.151  1.00  0.00    -0.152 A  
HETATM    9  C   UNL     1      -7.809   5.999  65.823  1.00  0.00    -0.104 A  
HETATM   10  C   UNL     1      -7.076   5.168  64.976  1.00  0.00    -0.062 A  
HETATM   11  C   UNL     1      -9.717   4.563  65.593  1.00  0.00    -0.207 A  
HETATM   12  C   UNL     1      -9.698   2.497  64.190  1.00  0.00    -0.138 C  
HETATM   13  C   UNL     1      -8.994   3.712  64.732  1.00  0.00    -0.125 A  
HETATM   14  C   UNL     1      -7.655   4.017  64.425  1.00  0.00    -0.076 A  
HETATM   15  C   UNL     1      -6.818   3.164  63.515  1.00  0.00    -0.039 C  
ENDBRANCH   4   8
BRANCH   7  16
HETATM   16  N   UNL     1     -11.294   9.391  68.505  1.00  0.00    -0.391 NA 
HETATM   17  H   UNL     1     -12.252   9.504  68.834  1.00  0.00     0.000 HD 
BRANCH  16  18
HETATM   18  N   UNL     1     -10.420  10.438  68.463  1.00  0.00    -0.175 NA 
HETATM   19  H   UNL     1      -9.580  10.422  69.041  1.00  0.00     0.000 HD 
BRANCH  18  20
HETATM   20  C   UNL     1     -10.673  11.546  67.625  1.00  0.00    -0.211 A  
HETATM   21  C   UNL     1      -9.979  12.763  67.771  1.00  0.00    -0.219 A  
HETATM   22  C   UNL     1     -10.146  13.854  66.895  1.00  0.00    -0.260 A  
HETATM   23  O   UNL     1      -9.093  12.878  68.823  1.00  0.00    -0.388 OA 
HETATM   24  C   UNL     1     -11.634  11.461  66.615  1.00  0.00     0.010 A  
HETATM   25  C   UNL     1     -11.145  13.735  65.917  1.00  0.00    -0.286 A  
HETATM   26  H   UNL     1      -8.626  13.699  68.922  1.00  0.00     0.000 HD 
HETATM   27  C   UNL     1     -11.884  12.555  65.781  1.00  0.00    -0.494 A  
BRANCH  22  28
HETATM   28  C   UNL     1      -9.224  15.009  66.919  1.00  0.00    -0.265 A  
HETATM   29  C   UNL     1      -7.851  14.897  67.182  1.00  0.00    -0.203 A  
HETATM   30  C   UNL     1      -7.039  16.037  67.252  1.00  0.00    -0.238 A  
HETATM   31  C   UNL     1      -7.577  17.305  67.021  1.00  0.00    -0.228 A  
HETATM   32  C   UNL     1      -8.933  17.433  66.724  1.00  0.00    -0.272 A  
HETATM   33  C   UNL     1      -9.746  16.301  66.724  1.00  0.00    -0.253 A  
HETATM   34  C   UNL     1      -9.504  18.772  66.448  1.00  0.00    -0.322 C  
HETATM   35  O   UNL     1     -10.495  18.756  65.525  1.00  0.00    -0.569 OA 
HETATM   36  O   UNL     1      -9.096  19.786  66.974  1.00  0.00    -0.311 OA 
ENDBRANCH  22  28
ENDBRANCH  18  20
ENDBRANCH  16  18
ENDBRANCH   7  16
TORSDOF 5
ENDMDL
MODEL      160
REMARK 921   NORMALIZED FREE ENERGY PREDICTED BY IDOCK:   -5.11 KCAL/MOL
REMARK 922        TOTAL FREE ENERGY PREDICTED BY IDOCK:   -7.91 KCAL/MOL
REMARK 923 INTER-LIGAND FREE ENERGY PREDICTED BY IDOCK:   -7.12 KCAL/MOL
REMARK 924 INTRA-LIGAND FREE ENERGY PREDICTED BY IDOCK:   -0.79 KCAL/MOL
REMARK 927      BINDING AFFINITY PREDICTED BY RF-SCORE:    0.00 PKD
ROOT
HETATM    1  C   UNL     1      -9.801   8.970  68.139  1.00  0.00    -0.191 C  
HETATM    2  C   UNL     1      -9.998   8.164  69.368  1.00  0.00    -0.188 C  
HETATM    3  N   UNL     1      -9.323   7.118  69.749  1.00  0.00    -0.147 NA 
HETATM    4  N   UNL     1      -9.858   6.708  70.986  1.00  0.00    -0.182 N  
HETATM    5  O   UNL     1     -11.612   7.485  72.439  1.00  0.00    -0.294 OA 
HETATM    6  C   UNL     1     -10.903   7.493  71.452  1.00  0.00    -0.229 C  
HETATM    7  C   UNL     1     -11.057   8.487  70.356  1.00  0.00    -0.231 C  
ENDROOT
BRANCH   4   8
HETATM    8  C   UNL     1      -9.342   5.548  71.611  1.00  0.00    -0.146 A  
HETATM    9  C   UNL     1      -8.013   5.497  72.040  1.00  0.00    -0.111 A  
HETATM   10  C   UNL     1      -7.504   4.368  72.680  1.00  0.00    -0.079 A  
HETATM   11  C   UNL     1     -10.149   4.424  71.831  1.00  0.00    -0.245 A  
HETATM   12  C   UNL     1     -10.596   2.117  72.678  1.00  0.00    -0.194 C  
HETATM   13  C   UNL     1      -9.652   3.271  72.475  1.00  0.00    -0.189 A  
HETATM   14  C   UNL     1      -8.313   3.247  72.908  1.00  0.00    -0.081 A  
HETATM   15  C   UNL     1      -7.707   2.058  73.598  1.00  0.00    -0.042 C  
ENDBRANCH   4   8
BRANCH   7  16
HETATM   16  N   UNL     1     -11.924   9.440  70.222  1.00  0.00    -0.470 NA 
HETATM   17  H   UNL     1     -12.270   9.725  69.305  1.00  0.00     0.000 HD 
BRANCH  16  18
HETATM   18  N   UNL     1     -12.351  10.043  71.369  1.00  0.00    -0.385 NA 
HETATM   19  H   UNL     1     -12.517   9.483  72.205  1.00  0.00     0.000 HD 
BRANCH  18  20
HETATM   20  C   UNL     1     -12.565  11.439  71.406  1.00  0.00    -0.334 A  
HETATM   21  C   UNL     1     -11.809  12.328  70.616  1.00  0.00     0.052 A  
HETATM   22  C   UNL     1     -12.058  13.713  70.563  1.00  0.00    -0.411 A  
HETATM   23  O   UNL     1     -10.781  11.802  69.858  1.00  0.00    -0.397 OA 
HETATM   24  C   UNL     1     -13.546  11.981  72.239  1.00  0.00    -0.164 A  
HETATM   25  C   UNL     1     -13.030  14.217  71.442  1.00  0.00    -0.422 A  
HETATM   26  H   UNL     1     -10.272  12.402  69.326  1.00  0.00     0.000 HD 
HETATM   27  C   UNL     1     -13.761  13.362  72.274  1.00  0.00    -0.705 A  
BRANCH  22  28
HETATM   28  C   UNL     1     -11.426  14.571  69.540  1.00  0.00    -0.330 A  
HETATM   29  C   UNL     1     -12.149  15.405  68.675  1.00  0.00    -0.126 A  
HETATM   30  C   UNL     1     -11.496  16.150  67.683  1.00  0.00     0.038 A  
HETATM   31  C   UNL     1     -10.106  16.103  67.564  1.00  0.00    -0.256 A  
HETATM   32  C   UNL     1      -9.367  15.307  68.437  1.00  0.00    -0.194 A  
HETATM   33  C   UNL     1     -10.029  14.518  69.375  1.00  0.00     0.026 A  
HETATM   34  C   UNL     1      -7.889  15.277  68.335  1.00  0.00    -0.122 C  
HETATM   35  O   UNL     1      -7.269  15.133  69.530  1.00  0.00    -0.179 OA 
HETATM   36  O   UNL     1      -7.295  15.405  67.285  1.00  0.00    -0.194 OA 
ENDBRANCH  22  28
ENDBRANCH  18  20
ENDBRANCH  16  18
ENDBRANCH   7  16
TORSDOF 5
ENDMDL
MODEL      161
REMARK 921   NORMALIZED FREE ENERGY PREDICTED BY IDOCK:   -5.10 KCAL/MOL
REMARK 922        TOTAL FREE ENERGY PREDICTED BY IDOCK:   -7.89 KCAL/MOL
REMARK 923 INTER-LIGAND FREE ENERGY PREDICTED BY IDOCK:   -6.18 KCAL/MOL
REMARK 924 INTRA-LIGAND FREE ENERGY PREDICTED BY IDOCK:   -1.71 KCAL/MOL
REMARK 927      BINDING AFFINITY PREDICTED BY RF-SCORE:    0.00 PKD
ROOT
HETATM    1  C   UNL     1     -11.612   4.862  73.113  1.00  0.00    -0.300 C  
HETATM    2  C   UNL     1     -11.055   6.193  72.766  1.00  0.00    -0.259 C  
HETATM    3  N   UNL     1     -11.592   7.106  72.011  1.00  0.00    -0.272 NA 
HETATM    4  N   UNL     1     -10.707   8.202  71.993  1.00  0.00    -0.257 N  
HETATM    5  O   UNL     1      -8.582   8.707  73.002  1.00  0.00    -0.395 OA 
HETATM    6  C   UNL     1      -9.560   8.030  72.754  1.00  0.00    -0.277 C  
HETATM    7  C   UNL     1      -9.740   6.649  73.278  1.00  0.00    -0.170 C  
ENDROOT
BRANCH   4   8
HETATM    8  C   UNL     1     -11.019   9.330  71.197  1.00  0.00    -0.339 A  
HETATM    9  C   UNL     1     -12.166  10.087  71.446  1.00  0.00    -0.510 A  
HETATM   10  C   UNL     1     -12.467  11.215  70.682  1.00  0.00    -0.448 A  
HETATM   11  C   UNL     1     -10.183   9.727  70.145  1.00  0.00    -0.328 A  
HETATM   12  C   UNL     1      -9.508  11.220  68.259  1.00  0.00    -0.190 C  
HETATM   13  C   UNL     1     -10.471  10.863  69.359  1.00  0.00    -0.205 A  
HETATM   14  C   UNL     1     -11.626  11.617  69.637  1.00  0.00    -0.401 A  
HETATM   15  C   UNL     1     -12.006  12.837  68.846  1.00  0.00    -0.286 C  
ENDBRANCH   4   8
BRANCH   7  16
HETATM   16  N   UNL     1      -8.944   5.934  74.010  1.00  0.00    -0.126 NA 
HETATM   17  H   UNL     1      -9.138   5.756  74.995  1.00  0.00     0.000 HD 
BRANCH  16  18
HETATM   18  N   UNL     1      -7.836   5.430  73.393  1.00  0.00    -0.106 NA 
HETATM   19  H   UNL     1      -6.916   5.812  73.612  1.00  0.00     0.000 HD 
BRANCH  18  20
HETATM   20  C   UNL     1      -7.955   4.382  72.454  1.00  0.00    -0.092 A  
HETATM   21  C   UNL     1      -7.744   4.591  71.077  1.00  0.00    -0.072 A  
HETATM   22  C   UNL     1      -7.769   3.550  70.128  1.00  0.00    -0.047 A  
HETATM   23  O   UNL     1      -7.498   5.881  70.650  1.00  0.00    -0.082 OA 
HETATM   24  C   UNL     1      -8.292   3.094  72.874  1.00  0.00    -0.080 A  
HETATM   25  C   UNL     1      -8.143   2.279  70.590  1.00  0.00    -0.054 A  
HETATM   26  H   UNL     1      -7.356   6.021  69.722  1.00  0.00     0.000 HD 
HETATM   27  C   UNL     1      -8.408   2.054  71.946  1.00  0.00    -0.058 A  
BRANCH  22  28
HETATM   28  C   UNL     1      -7.292   3.757  68.744  1.00  0.00    -0.054 A  
HETATM   29  C   UNL     1      -5.948   3.634  68.363  1.00  0.00    -0.027 A  
HETATM   30  C   UNL     1      -5.547   3.904  67.047  1.00  0.00    -0.021 A  
HETATM   31  C   UNL     1      -6.490   4.262  66.081  1.00  0.00    -0.041 A  
HETATM   32  C   UNL     1      -7.834   4.356  66.433  1.00  0.00    -0.098 A  
HETATM   33  C   UNL     1      -8.214   4.154  67.758  1.00  0.00    -0.094 A  
HETATM   34  C   UNL     1      -8.843   4.707  65.405  1.00  0.00    -0.141 C  
HETATM   35  O   UNL     1     -10.038   4.098  65.592  1.00  0.00    -0.211 OA 
HETATM   36  O   UNL     1      -8.606   5.442  64.470  1.00  0.00    -0.137 OA 
ENDBRANCH  22  28
ENDBRANCH  18  20
ENDBRANCH  16  18
ENDBRANCH   7  16
TORSDOF 5
ENDMDL
MODEL      162
REMARK 921   NORMALIZED FREE ENERGY PREDICTED BY IDOCK:   -5.02 KCAL/MOL
REMARK 922        TOTAL FREE ENERGY PREDICTED BY IDOCK:   -7.79 KCAL/MOL
REMARK 923 INTER-LIGAND FREE ENERGY PREDICTED BY IDOCK:   -6.02 KCAL/MOL
REMARK 924 INTRA-LIGAND FREE ENERGY PREDICTED BY IDOCK:   -1.77 KCAL/MOL
REMARK 927      BINDING AFFINITY PREDICTED BY RF-SCORE:    0.00 PKD
ROOT
HETATM    1  C   UNL     1     -11.961   5.254  72.912  1.00  0.00    -0.068 C  
HETATM    2  C   UNL     1     -11.375   6.564  72.538  1.00  0.00    -0.262 C  
HETATM    3  N   UNL     1     -11.988   7.592  72.026  1.00  0.00    -0.288 NA 
HETATM    4  N   UNL     1     -11.026   8.609  71.862  1.00  0.00    -0.318 N  
HETATM    5  O   UNL     1      -8.673   8.832  72.309  1.00  0.00    -0.375 OA 
HETATM    6  C   UNL     1      -9.748   8.266  72.276  1.00  0.00    -0.292 C  
HETATM    7  C   UNL     1      -9.932   6.857  72.718  1.00  0.00    -0.171 C  
ENDROOT
BRANCH   4   8
HETATM    8  C   UNL     1     -11.412   9.834  71.269  1.00  0.00    -0.385 A  
HETATM    9  C   UNL     1     -12.430  10.611  71.826  1.00  0.00    -0.321 A  
HETATM   10  C   UNL     1     -12.798  11.832  71.262  1.00  0.00    -0.409 A  
HETATM   11  C   UNL     1     -10.776  10.312  70.114  1.00  0.00    -0.334 A  
HETATM   12  C   UNL     1     -10.387  11.980  68.297  1.00  0.00    -0.211 C  
HETATM   13  C   UNL     1     -11.135  11.543  69.528  1.00  0.00    -0.256 A  
HETATM   14  C   UNL     1     -12.156  12.314  70.114  1.00  0.00    -0.364 A  
HETATM   15  C   UNL     1     -12.600  13.634  69.550  1.00  0.00     0.095 C  
ENDBRANCH   4   8
BRANCH   7  16
HETATM   16  N   UNL     1      -9.056   6.007  73.154  1.00  0.00    -0.131 NA 
HETATM   17  H   UNL     1      -9.074   5.664  74.114  1.00  0.00     0.000 HD 
BRANCH  16  18
HETATM   18  N   UNL     1      -8.108   5.596  72.262  1.00  0.00    -0.107 NA 
HETATM   19  H   UNL     1      -7.140   5.487  72.564  1.00  0.00     0.000 HD 
BRANCH  18  20
HETATM   20  C   UNL     1      -8.460   5.320  70.922  1.00  0.00    -0.121 A  
HETATM   21  C   UNL     1      -7.961   6.085  69.849  1.00  0.00    -0.113 A  
HETATM   22  C   UNL     1      -8.222   5.779  68.499  1.00  0.00    -0.108 A  
HETATM   23  O   UNL     1      -7.175   7.180  70.149  1.00  0.00    -0.074 OA 
HETATM   24  C   UNL     1      -9.326   4.266  70.624  1.00  0.00    -0.213 A  
HETATM   25  C   UNL     1      -9.123   4.734  68.248  1.00  0.00    -0.145 A  
HETATM   26  H   UNL     1      -6.839   7.696  69.426  1.00  0.00     0.000 HD 
HETATM   27  C   UNL     1      -9.674   3.989  69.298  1.00  0.00    -0.191 A  
BRANCH  22  28
HETATM   28  C   UNL     1      -7.481   6.437  67.403  1.00  0.00    -0.088 A  
HETATM   29  C   UNL     1      -6.243   5.983  66.925  1.00  0.00    -0.026 A  
HETATM   30  C   UNL     1      -5.559   6.686  65.924  1.00  0.00    -0.021 A  
HETATM   31  C   UNL     1      -6.118   7.832  65.357  1.00  0.00    -0.038 A  
HETATM   32  C   UNL     1      -7.362   8.280  65.795  1.00  0.00    -0.072 A  
HETATM   33  C   UNL     1      -8.004   7.615  66.838  1.00  0.00    -0.115 A  
HETATM   34  C   UNL     1      -7.975   9.479  65.176  1.00  0.00    -0.117 C  
HETATM   35  O   UNL     1      -9.325   9.415  65.094  1.00  0.00    -0.252 OA 
HETATM   36  O   UNL     1      -7.323  10.411  64.753  1.00  0.00    -0.124 OA 
ENDBRANCH  22  28
ENDBRANCH  18  20
ENDBRANCH  16  18
ENDBRANCH   7  16
TORSDOF 5
ENDMDL
MODEL      163
REMARK 921   NORMALIZED FREE ENERGY PREDICTED BY IDOCK:   -5.00 KCAL/MOL
REMARK 922        TOTAL FREE ENERGY PREDICTED BY IDOCK:   -7.76 KCAL/MOL
REMARK 923 INTER-LIGAND FREE ENERGY PREDICTED BY IDOCK:   -6.60 KCAL/MOL
REMARK 924 INTRA-LIGAND FREE ENERGY PREDICTED BY IDOCK:   -1.17 KCAL/MOL
REMARK 927      BINDING AFFINITY PREDICTED BY RF-SCORE:    0.00 PKD
ROOT
HETATM    1  C   UNL     1     -10.395  10.581  68.812  1.00  0.00    -0.208 C  
HETATM    2  C   UNL     1     -10.124   9.125  68.721  1.00  0.00    -0.197 C  
HETATM    3  N   UNL     1     -10.299   8.225  69.645  1.00  0.00    -0.214 NA 
HETATM    4  N   UNL     1      -9.924   6.985  69.092  1.00  0.00    -0.162 N  
HETATM    5  O   UNL     1      -9.106   6.237  66.956  1.00  0.00    -0.119 OA 
HETATM    6  C   UNL     1      -9.498   7.047  67.773  1.00  0.00    -0.124 C  
HETATM    7  C   UNL     1      -9.586   8.504  67.486  1.00  0.00    -0.154 C  
ENDROOT
BRANCH   4   8
HETATM    8  C   UNL     1      -9.964   5.826  69.903  1.00  0.00    -0.194 A  
HETATM    9  C   UNL     1      -9.521   4.595  69.415  1.00  0.00    -0.239 A  
HETATM   10  C   UNL     1      -9.534   3.454  70.217  1.00  0.00    -0.247 A  
HETATM   11  C   UNL     1     -10.437   5.882  71.221  1.00  0.00    -0.289 A  
HETATM   12  C   UNL     1     -10.973   4.897  73.453  1.00  0.00    -0.394 C  
HETATM   13  C   UNL     1     -10.460   4.738  72.047  1.00  0.00    -0.225 A  
HETATM   14  C   UNL     1      -9.997   3.511  71.538  1.00  0.00    -0.172 A  
HETATM   15  C   UNL     1      -9.992   2.247  72.350  1.00  0.00    -0.220 C  
ENDBRANCH   4   8
BRANCH   7  16
HETATM   16  N   UNL     1      -9.258   9.156  66.415  1.00  0.00    -0.170 NA 
HETATM   17  H   UNL     1      -9.956   9.457  65.736  1.00  0.00     0.000 HD 
BRANCH  16  18
HETATM   18  N   UNL     1      -7.929   9.420  66.244  1.00  0.00    -0.110 NA 
HETATM   19  H   UNL     1      -7.360   8.800  65.669  1.00  0.00     0.000 HD 
BRANCH  18  20
HETATM   20  C   UNL     1      -7.340  10.546  66.860  1.00  0.00    -0.110 A  
HETATM   21  C   UNL     1      -7.928  11.824  66.791  1.00  0.00    -0.116 A  
HETATM   22  C   UNL     1      -7.412  12.946  67.469  1.00  0.00    -0.155 A  
HETATM   23  O   UNL     1      -9.066  11.969  66.023  1.00  0.00    -0.348 OA 
HETATM   24  C   UNL     1      -6.140  10.417  67.564  1.00  0.00    -0.053 A  
HETATM   25  C   UNL     1      -6.189  12.778  68.135  1.00  0.00    -0.088 A  
HETATM   26  H   UNL     1      -9.462  12.831  65.977  1.00  0.00     0.000 HD 
HETATM   27  C   UNL     1      -5.556  11.530  68.177  1.00  0.00    -0.042 A  
BRANCH  22  28
HETATM   28  C   UNL     1      -8.188  14.198  67.587  1.00  0.00    -0.193 A  
HETATM   29  C   UNL     1      -7.726  15.440  67.128  1.00  0.00    -0.246 A  
HETATM   30  C   UNL     1      -8.481  16.604  67.323  1.00  0.00    -0.214 A  
HETATM   31  C   UNL     1      -9.729  16.541  67.947  1.00  0.00    -0.236 A  
HETATM   32  C   UNL     1     -10.220  15.311  68.379  1.00  0.00    -0.223 A  
HETATM   33  C   UNL     1      -9.432  14.170  68.243  1.00  0.00    -0.211 A  
HETATM   34  C   UNL     1     -11.557  15.232  69.015  1.00  0.00    -0.343 C  
HETATM   35  O   UNL     1     -12.221  14.085  68.735  1.00  0.00    -0.337 OA 
HETATM   36  O   UNL     1     -12.022  16.126  69.690  1.00  0.00    -0.245 OA 
ENDBRANCH  22  28
ENDBRANCH  18  20
ENDBRANCH  16  18
ENDBRANCH   7  16
TORSDOF 5
ENDMDL
MODEL      164
REMARK 921   NORMALIZED FREE ENERGY PREDICTED BY IDOCK:   -4.98 KCAL/MOL
REMARK 922        TOTAL FREE ENERGY PREDICTED BY IDOCK:   -7.73 KCAL/MOL
REMARK 923 INTER-LIGAND FREE ENERGY PREDICTED BY IDOCK:   -6.29 KCAL/MOL
REMARK 924 INTRA-LIGAND FREE ENERGY PREDICTED BY IDOCK:   -1.44 KCAL/MOL
REMARK 927      BINDING AFFINITY PREDICTED BY RF-SCORE:    0.00 PKD
ROOT
HETATM    1  C   UNL     1      -5.606  10.600  65.412  1.00  0.00    -0.140 C  
HETATM    2  C   UNL     1      -6.180   9.295  65.820  1.00  0.00    -0.056 C  
HETATM    3  N   UNL     1      -6.406   8.257  65.068  1.00  0.00    -0.049 NA 
HETATM    4  N   UNL     1      -6.937   7.250  65.899  1.00  0.00    -0.060 N  
HETATM    5  O   UNL     1      -7.457   7.057  68.240  1.00  0.00    -0.094 OA 
HETATM    6  C   UNL     1      -7.062   7.610  67.232  1.00  0.00    -0.085 C  
HETATM    7  C   UNL     1      -6.586   9.020  67.220  1.00  0.00    -0.061 C  
ENDROOT
BRANCH   4   8
HETATM    8  C   UNL     1      -7.327   6.017  65.327  1.00  0.00    -0.076 A  
HETATM    9  C   UNL     1      -8.056   5.978  64.136  1.00  0.00    -0.095 A  
HETATM   10  C   UNL     1      -8.423   4.766  63.552  1.00  0.00    -0.127 A  
HETATM   11  C   UNL     1      -6.984   4.798  65.928  1.00  0.00    -0.063 A  
HETATM   12  C   UNL     1      -6.923   2.305  66.066  1.00  0.00    -0.044 C  
HETATM   13  C   UNL     1      -7.347   3.562  65.355  1.00  0.00    -0.076 A  
HETATM   14  C   UNL     1      -8.072   3.548  64.149  1.00  0.00    -0.086 A  
HETATM   15  C   UNL     1      -8.499   2.275  63.475  1.00  0.00    -0.085 C  
ENDBRANCH   4   8
BRANCH   7  16
HETATM   16  N   UNL     1      -6.533   9.882  68.186  1.00  0.00    -0.055 NA 
HETATM   17  H   UNL     1      -5.926  10.701  68.141  1.00  0.00     0.000 HD 
BRANCH  16  18
HETATM   18  N   UNL     1      -7.331   9.639  69.266  1.00  0.00    -0.074 NA 
HETATM   19  H   UNL     1      -6.944   9.180  70.090  1.00  0.00     0.000 HD 
BRANCH  18  20
HETATM   20  C   UNL     1      -8.692  10.018  69.248  1.00  0.00    -0.177 A  
HETATM   21  C   UNL     1      -9.122  11.214  68.641  1.00  0.00    -0.166 A  
HETATM   22  C   UNL     1     -10.480  11.575  68.528  1.00  0.00    -0.228 A  
HETATM   23  O   UNL     1      -8.159  12.062  68.132  1.00  0.00    -0.143 OA 
HETATM   24  C   UNL     1      -9.659   9.204  69.841  1.00  0.00    -0.206 A  
HETATM   25  C   UNL     1     -11.412  10.745  69.168  1.00  0.00    -0.368 A  
HETATM   26  H   UNL     1      -8.449  12.868  67.723  1.00  0.00     0.000 HD 
HETATM   27  C   UNL     1     -11.007   9.575  69.822  1.00  0.00    -0.245 A  
BRANCH  22  28
HETATM   28  C   UNL     1     -10.910  12.696  67.666  1.00  0.00    -0.248 A  
HETATM   29  C   UNL     1     -11.117  14.000  68.139  1.00  0.00    -0.280 A  
HETATM   30  C   UNL     1     -11.585  15.007  67.284  1.00  0.00    -0.285 A  
HETATM   31  C   UNL     1     -11.815  14.738  65.934  1.00  0.00    -0.204 A  
HETATM   32  C   UNL     1     -11.582  13.457  65.438  1.00  0.00    -0.335 A  
HETATM   33  C   UNL     1     -11.183  12.445  66.309  1.00  0.00    -0.361 A  
HETATM   34  C   UNL     1     -11.796  13.172  63.999  1.00  0.00    -0.453 C  
HETATM   35  O   UNL     1     -10.927  12.265  63.494  1.00  0.00    -0.425 OA 
HETATM   36  O   UNL     1     -12.646  13.727  63.335  1.00  0.00    -0.842 OA 
ENDBRANCH  22  28
ENDBRANCH  18  20
ENDBRANCH  16  18
ENDBRANCH   7  16
TORSDOF 5
ENDMDL
MODEL      165
REMARK 921   NORMALIZED FREE ENERGY PREDICTED BY IDOCK:   -4.97 KCAL/MOL
REMARK 922        TOTAL FREE ENERGY PREDICTED BY IDOCK:   -7.73 KCAL/MOL
REMARK 923 INTER-LIGAND FREE ENERGY PREDICTED BY IDOCK:   -6.55 KCAL/MOL
REMARK 924 INTRA-LIGAND FREE ENERGY PREDICTED BY IDOCK:   -1.17 KCAL/MOL
REMARK 927      BINDING AFFINITY PREDICTED BY RF-SCORE:    0.00 PKD
ROOT
HETATM    1  C   UNL     1     -11.763  14.665  69.878  1.00  0.00    -0.349 C  
HETATM    2  C   UNL     1     -10.567  14.991  69.063  1.00  0.00    -0.245 C  
HETATM    3  N   UNL     1     -10.131  16.171  68.729  1.00  0.00    -0.227 NA 
HETATM    4  N   UNL     1      -8.957  15.981  67.973  1.00  0.00    -0.186 N  
HETATM    5  O   UNL     1      -7.679  14.078  67.241  1.00  0.00    -0.175 OA 
HETATM    6  C   UNL     1      -8.591  14.654  67.802  1.00  0.00    -0.173 C  
HETATM    7  C   UNL     1      -9.687  13.935  68.506  1.00  0.00    -0.202 C  
ENDROOT
BRANCH   4   8
HETATM    8  C   UNL     1      -8.295  17.107  67.430  1.00  0.00    -0.190 A  
HETATM    9  C   UNL     1      -7.162  16.954  66.627  1.00  0.00    -0.294 A  
HETATM   10  C   UNL     1      -6.519  18.057  66.067  1.00  0.00    -0.299 A  
HETATM   11  C   UNL     1      -8.763  18.407  67.668  1.00  0.00    -0.268 A  
HETATM   12  C   UNL     1      -8.707  20.890  67.413  1.00  0.00    -0.134 C  
HETATM   13  C   UNL     1      -8.125  19.535  67.112  1.00  0.00    -0.301 A  
HETATM   14  C   UNL     1      -6.992  19.356  66.298  1.00  0.00    -0.242 A  
HETATM   15  C   UNL     1      -6.255  20.505  65.671  1.00  0.00    -0.266 C  
ENDBRANCH   4   8
BRANCH   7  16
HETATM   16  N   UNL     1      -9.897  12.662  68.624  1.00  0.00    -0.400 NA 
HETATM   17  H   UNL     1     -10.222  12.251  69.499  1.00  0.00     0.000 HD 
BRANCH  16  18
HETATM   18  N   UNL     1      -9.662  11.899  67.516  1.00  0.00    -0.180 NA 
HETATM   19  H   UNL     1     -10.057  12.174  66.618  1.00  0.00     0.000 HD 
BRANCH  18  20
HETATM   20  C   UNL     1      -8.873  10.731  67.609  1.00  0.00    -0.132 A  
HETATM   21  C   UNL     1      -9.229   9.658  68.449  1.00  0.00    -0.133 A  
HETATM   22  C   UNL     1      -8.513   8.446  68.496  1.00  0.00    -0.132 A  
HETATM   23  O   UNL     1     -10.338   9.814  69.258  1.00  0.00    -0.192 OA 
HETATM   24  C   UNL     1      -7.703  10.609  66.857  1.00  0.00    -0.122 A  
HETATM   25  C   UNL     1      -7.327   8.382  67.750  1.00  0.00    -0.093 A  
HETATM   26  H   UNL     1     -10.577   9.090  69.825  1.00  0.00     0.000 HD 
HETATM   27  C   UNL     1      -6.922   9.452  66.944  1.00  0.00    -0.081 A  
BRANCH  22  28
HETATM   28  C   UNL     1      -9.055   7.257  69.186  1.00  0.00    -0.137 A  
HETATM   29  C   UNL     1      -9.984   6.382  68.605  1.00  0.00    -0.162 A  
HETATM   30  C   UNL     1     -10.508   5.305  69.333  1.00  0.00    -0.284 A  
HETATM   31  C   UNL     1     -10.083   5.062  70.641  1.00  0.00    -0.313 A  
HETATM   32  C   UNL     1      -9.135   5.901  71.223  1.00  0.00    -0.148 A  
HETATM   33  C   UNL     1      -8.671   7.009  70.517  1.00  0.00    -0.153 A  
HETATM   34  C   UNL     1      -8.658   5.631  72.600  1.00  0.00    -0.120 C  
HETATM   35  O   UNL     1      -7.356   5.952  72.793  1.00  0.00    -0.089 OA 
HETATM   36  O   UNL     1      -9.358   5.136  73.458  1.00  0.00    -0.133 OA 
ENDBRANCH  22  28
ENDBRANCH  18  20
ENDBRANCH  16  18
ENDBRANCH   7  16
TORSDOF 5
ENDMDL
MODEL      166
REMARK 921   NORMALIZED FREE ENERGY PREDICTED BY IDOCK:   -4.95 KCAL/MOL
REMARK 922        TOTAL FREE ENERGY PREDICTED BY IDOCK:   -7.70 KCAL/MOL
REMARK 923 INTER-LIGAND FREE ENERGY PREDICTED BY IDOCK:   -6.71 KCAL/MOL
REMARK 924 INTRA-LIGAND FREE ENERGY PREDICTED BY IDOCK:   -0.98 KCAL/MOL
REMARK 927      BINDING AFFINITY PREDICTED BY RF-SCORE:    0.00 PKD
ROOT
HETATM    1  C   UNL     1      -6.215   4.950  73.123  1.00  0.00    -0.038 C  
HETATM    2  C   UNL     1      -7.216   4.899  72.030  1.00  0.00    -0.076 C  
HETATM    3  N   UNL     1      -7.061   4.414  70.832  1.00  0.00    -0.036 NA 
HETATM    4  N   UNL     1      -8.289   4.569  70.160  1.00  0.00    -0.069 N  
HETATM    5  O   UNL     1     -10.452   5.460  70.723  1.00  0.00    -0.247 OA 
HETATM    6  C   UNL     1      -9.290   5.160  70.916  1.00  0.00    -0.150 C  
HETATM    7  C   UNL     1      -8.589   5.435  72.200  1.00  0.00    -0.126 C  
ENDROOT
BRANCH   4   8
HETATM    8  C   UNL     1      -8.391   4.170  68.806  1.00  0.00    -0.082 A  
HETATM    9  C   UNL     1      -7.457   3.296  68.245  1.00  0.00    -0.053 A  
HETATM   10  C   UNL     1      -7.564   2.878  66.919  1.00  0.00    -0.074 A  
HETATM   11  C   UNL     1      -9.437   4.628  67.993  1.00  0.00    -0.191 A  
HETATM   12  C   UNL     1     -10.725   4.752  65.857  1.00  0.00    -0.225 C  
HETATM   13  C   UNL     1      -9.561   4.218  66.649  1.00  0.00    -0.218 A  
HETATM   14  C   UNL     1      -8.615   3.328  66.108  1.00  0.00    -0.121 A  
HETATM   15  C   UNL     1      -8.675   2.847  64.687  1.00  0.00    -0.104 C  
ENDBRANCH   4   8
BRANCH   7  16
HETATM   16  N   UNL     1      -9.022   6.032  73.265  1.00  0.00    -0.130 NA 
HETATM   17  H   UNL     1      -9.258   5.513  74.111  1.00  0.00     0.000 HD 
BRANCH  16  18
HETATM   18  N   UNL     1      -9.144   7.390  73.198  1.00  0.00    -0.146 NA 
HETATM   19  H   UNL     1      -8.413   7.985  73.585  1.00  0.00     0.000 HD 
BRANCH  18  20
HETATM   20  C   UNL     1     -10.279   7.975  72.595  1.00  0.00    -0.316 A  
HETATM   21  C   UNL     1     -10.166   8.917  71.554  1.00  0.00    -0.328 A  
HETATM   22  C   UNL     1     -11.279   9.449  70.873  1.00  0.00    -0.393 A  
HETATM   23  O   UNL     1      -8.899   9.325  71.189  1.00  0.00    -0.257 OA 
HETATM   24  C   UNL     1     -11.563   7.628  73.023  1.00  0.00    -0.183 A  
HETATM   25  C   UNL     1     -12.547   9.099  71.359  1.00  0.00    -0.390 A  
HETATM   26  H   UNL     1      -8.823   9.961  70.487  1.00  0.00     0.000 HD 
HETATM   27  C   UNL     1     -12.689   8.203  72.425  1.00  0.00    -0.235 A  
BRANCH  22  28
HETATM   28  C   UNL     1     -11.119  10.228  69.627  1.00  0.00    -0.323 A  
HETATM   29  C   UNL     1     -11.668  11.505  69.437  1.00  0.00    -0.413 A  
HETATM   30  C   UNL     1     -11.535  12.168  68.210  1.00  0.00    -0.360 A  
HETATM   31  C   UNL     1     -10.816  11.584  67.165  1.00  0.00    -0.314 A  
HETATM   32  C   UNL     1     -10.233  10.331  67.346  1.00  0.00    -0.265 A  
HETATM   33  C   UNL     1     -10.430   9.649  68.545  1.00  0.00    -0.241 A  
HETATM   34  C   UNL     1      -9.444   9.719  66.251  1.00  0.00    -0.195 C  
HETATM   35  O   UNL     1      -8.398   8.979  66.689  1.00  0.00    -0.116 OA 
HETATM   36  O   UNL     1      -9.694   9.895  65.078  1.00  0.00    -0.296 OA 
ENDBRANCH  22  28
ENDBRANCH  18  20
ENDBRANCH  16  18
ENDBRANCH   7  16
TORSDOF 5
ENDMDL
MODEL      167
REMARK 921   NORMALIZED FREE ENERGY PREDICTED BY IDOCK:   -4.94 KCAL/MOL
REMARK 922        TOTAL FREE ENERGY PREDICTED BY IDOCK:   -7.69 KCAL/MOL
REMARK 923 INTER-LIGAND FREE ENERGY PREDICTED BY IDOCK:   -7.26 KCAL/MOL
REMARK 924 INTRA-LIGAND FREE ENERGY PREDICTED BY IDOCK:   -0.43 KCAL/MOL
REMARK 927      BINDING AFFINITY PREDICTED BY RF-SCORE:    0.00 PKD
ROOT
HETATM    1  C   UNL     1     -11.842  10.451  70.602  1.00  0.00    -0.445 C  
HETATM    2  C   UNL     1     -11.045   9.244  70.932  1.00  0.00    -0.306 C  
HETATM    3  N   UNL     1     -11.481   8.106  71.390  1.00  0.00    -0.256 NA 
HETATM    4  N   UNL     1     -10.362   7.261  71.530  1.00  0.00    -0.202 N  
HETATM    5  O   UNL     1      -8.000   7.458  71.116  1.00  0.00    -0.097 OA 
HETATM    6  C   UNL     1      -9.156   7.833  71.153  1.00  0.00    -0.142 C  
HETATM    7  C   UNL     1      -9.572   9.208  70.767  1.00  0.00    -0.275 C  
ENDROOT
BRANCH   4   8
HETATM    8  C   UNL     1     -10.540   5.963  72.065  1.00  0.00    -0.221 A  
HETATM    9  C   UNL     1     -11.349   5.755  73.185  1.00  0.00    -0.190 A  
HETATM   10  C   UNL     1     -11.550   4.475  73.703  1.00  0.00    -0.060 A  
HETATM   11  C   UNL     1      -9.923   4.848  71.481  1.00  0.00    -0.260 A  
HETATM   12  C   UNL     1      -9.419   2.410  71.291  1.00  0.00    -0.218 C  
HETATM   13  C   UNL     1     -10.112   3.547  71.992  1.00  0.00    -0.187 A  
HETATM   14  C   UNL     1     -10.940   3.360  73.114  1.00  0.00    -0.213 A  
HETATM   15  C   UNL     1     -11.191   2.008  73.719  1.00  0.00    -0.291 C  
ENDBRANCH   4   8
BRANCH   7  16
HETATM   16  N   UNL     1      -8.848  10.212  70.382  1.00  0.00    -0.304 NA 
HETATM   17  H   UNL     1      -8.183  10.664  71.009  1.00  0.00     0.000 HD 
BRANCH  16  18
HETATM   18  N   UNL     1      -9.020  10.631  69.094  1.00  0.00    -0.288 NA 
HETATM   19  H   UNL     1      -9.827  10.310  68.560  1.00  0.00     0.000 HD 
BRANCH  18  20
HETATM   20  C   UNL     1      -8.087  11.508  68.498  1.00  0.00    -0.146 A  
HETATM   21  C   UNL     1      -8.282  12.903  68.483  1.00  0.00    -0.065 A  
HETATM   22  C   UNL     1      -7.328  13.808  67.977  1.00  0.00    -0.134 A  
HETATM   23  O   UNL     1      -9.466  13.394  68.997  1.00  0.00    -0.390 OA 
HETATM   24  C   UNL     1      -6.930  11.005  67.899  1.00  0.00    -0.073 A  
HETATM   25  C   UNL     1      -6.198  13.256  67.355  1.00  0.00    -0.007 A  
HETATM   26  H   UNL     1      -9.597  14.335  68.986  1.00  0.00     0.000 HD 
HETATM   27  C   UNL     1      -6.003  11.871  67.311  1.00  0.00    -0.134 A  
BRANCH  22  28
HETATM   28  C   UNL     1      -7.447  15.263  68.210  1.00  0.00    -0.112 A  
HETATM   29  C   UNL     1      -6.578  15.987  69.039  1.00  0.00    -0.151 A  
HETATM   30  C   UNL     1      -6.779  17.354  69.269  1.00  0.00    -0.222 A  
HETATM   31  C   UNL     1      -7.829  18.030  68.644  1.00  0.00    -0.298 A  
HETATM   32  C   UNL     1      -8.682  17.335  67.789  1.00  0.00    -0.226 A  
HETATM   33  C   UNL     1      -8.517  15.961  67.620  1.00  0.00    -0.170 A  
HETATM   34  C   UNL     1      -9.780  18.052  67.099  1.00  0.00    -0.297 C  
HETATM   35  O   UNL     1     -10.043  17.573  65.860  1.00  0.00    -0.505 OA 
HETATM   36  O   UNL     1     -10.361  18.999  67.586  1.00  0.00    -0.373 OA 
ENDBRANCH  22  28
ENDBRANCH  18  20
ENDBRANCH  16  18
ENDBRANCH   7  16
TORSDOF 5
ENDMDL
MODEL      168
REMARK 921   NORMALIZED FREE ENERGY PREDICTED BY IDOCK:   -4.92 KCAL/MOL
REMARK 922        TOTAL FREE ENERGY PREDICTED BY IDOCK:   -7.67 KCAL/MOL
REMARK 923 INTER-LIGAND FREE ENERGY PREDICTED BY IDOCK:   -7.25 KCAL/MOL
REMARK 924 INTRA-LIGAND FREE ENERGY PREDICTED BY IDOCK:   -0.42 KCAL/MOL
REMARK 927      BINDING AFFINITY PREDICTED BY RF-SCORE:    0.00 PKD
ROOT
HETATM    1  C   UNL     1      -5.422   9.680  70.849  1.00  0.00    -0.058 C  
HETATM    2  C   UNL     1      -6.842   9.889  70.472  1.00  0.00    -0.118 C  
HETATM    3  N   UNL     1      -7.899   9.412  71.063  1.00  0.00    -0.320 NA 
HETATM    4  N   UNL     1      -9.020   9.897  70.361  1.00  0.00    -0.073 N  
HETATM    5  O   UNL     1      -9.365  11.327  68.457  1.00  0.00    -0.176 OA 
HETATM    6  C   UNL     1      -8.717  10.721  69.287  1.00  0.00    -0.030 C  
HETATM    7  C   UNL     1      -7.229  10.717  69.304  1.00  0.00    -0.122 C  
ENDROOT
BRANCH   4   8
HETATM    8  C   UNL     1     -10.315   9.488  70.760  1.00  0.00    -0.306 A  
HETATM    9  C   UNL     1     -11.443  10.227  70.397  1.00  0.00    -0.415 A  
HETATM   10  C   UNL     1     -12.724   9.817  70.764  1.00  0.00    -0.251 A  
HETATM   11  C   UNL     1     -10.505   8.324  71.517  1.00  0.00    -0.289 A  
HETATM   12  C   UNL     1     -11.899   6.624  72.702  1.00  0.00    -0.056 C  
HETATM   13  C   UNL     1     -11.793   7.894  71.900  1.00  0.00    -0.345 A  
HETATM   14  C   UNL     1     -12.915   8.648  71.514  1.00  0.00    -0.344 A  
HETATM   15  C   UNL     1     -14.319   8.260  71.883  1.00  0.00    -0.564 C  
ENDBRANCH   4   8
BRANCH   7  16
HETATM   16  N   UNL     1      -6.393  11.278  68.488  1.00  0.00    -0.046 NA 
HETATM   17  H   UNL     1      -6.284  10.956  67.527  1.00  0.00     0.000 HD 
BRANCH  16  18
HETATM   18  N   UNL     1      -5.665  12.322  68.981  1.00  0.00    -0.063 NA 
HETATM   19  H   UNL     1      -4.712  12.167  69.308  1.00  0.00     0.000 HD 
BRANCH  18  20
HETATM   20  C   UNL     1      -6.226  13.617  69.043  1.00  0.00    -0.097 A  
HETATM   21  C   UNL     1      -7.105  14.094  68.051  1.00  0.00    -0.144 A  
HETATM   22  C   UNL     1      -7.749  15.345  68.130  1.00  0.00    -0.126 A  
HETATM   23  O   UNL     1      -7.342  13.286  66.956  1.00  0.00    -0.363 OA 
HETATM   24  C   UNL     1      -5.917  14.470  70.104  1.00  0.00    -0.150 A  
HETATM   25  C   UNL     1      -7.383  16.180  69.196  1.00  0.00    -0.215 A  
HETATM   26  H   UNL     1      -7.934  13.608  66.288  1.00  0.00     0.000 HD 
HETATM   27  C   UNL     1      -6.474  15.751  70.169  1.00  0.00     0.009 A  
BRANCH  22  28
HETATM   28  C   UNL     1      -8.853  15.702  67.214  1.00  0.00    -0.215 A  
HETATM   29  C   UNL     1      -9.440  14.795  66.320  1.00  0.00    -0.332 A  
HETATM   30  C   UNL     1     -10.443  15.209  65.433  1.00  0.00    -0.416 A  
HETATM   31  C   UNL     1     -10.903  16.527  65.451  1.00  0.00    -0.216 A  
HETATM   32  C   UNL     1     -10.356  17.434  66.356  1.00  0.00    -0.317 A  
HETATM   33  C   UNL     1      -9.312  17.032  67.187  1.00  0.00    -0.241 A  
HETATM   34  C   UNL     1     -10.861  18.827  66.401  1.00  0.00    -0.102 C  
HETATM   35  O   UNL     1     -10.854  19.363  67.645  1.00  0.00    -0.455 OA 
HETATM   36  O   UNL     1     -11.272  19.413  65.422  1.00  0.00    -0.290 OA 
ENDBRANCH  22  28
ENDBRANCH  18  20
ENDBRANCH  16  18
ENDBRANCH   7  16
TORSDOF 5
ENDMDL
MODEL      169
REMARK 921   NORMALIZED FREE ENERGY PREDICTED BY IDOCK:   -4.90 KCAL/MOL
REMARK 922        TOTAL FREE ENERGY PREDICTED BY IDOCK:   -7.63 KCAL/MOL
REMARK 923 INTER-LIGAND FREE ENERGY PREDICTED BY IDOCK:   -6.21 KCAL/MOL
REMARK 924 INTRA-LIGAND FREE ENERGY PREDICTED BY IDOCK:   -1.42 KCAL/MOL
REMARK 927      BINDING AFFINITY PREDICTED BY RF-SCORE:    0.00 PKD
ROOT
HETATM    1  C   UNL     1     -11.009  12.538  65.299  1.00  0.00    -0.329 C  
HETATM    2  C   UNL     1     -10.010  11.467  65.538  1.00  0.00    -0.242 C  
HETATM    3  N   UNL     1      -9.750  10.440  64.782  1.00  0.00    -0.295 NA 
HETATM    4  N   UNL     1      -8.715   9.717  65.407  1.00  0.00    -0.148 N  
HETATM    5  O   UNL     1      -7.416   9.971  67.416  1.00  0.00    -0.090 OA 
HETATM    6  C   UNL     1      -8.264  10.267  66.597  1.00  0.00    -0.125 C  
HETATM    7  C   UNL     1      -9.149  11.455  66.745  1.00  0.00    -0.176 C  
ENDROOT
BRANCH   4   8
HETATM    8  C   UNL     1      -8.265   8.510  64.821  1.00  0.00    -0.162 A  
HETATM    9  C   UNL     1      -7.631   8.510  63.577  1.00  0.00    -0.127 A  
HETATM   10  C   UNL     1      -7.162   7.328  63.005  1.00  0.00    -0.078 A  
HETATM   11  C   UNL     1      -8.428   7.282  65.477  1.00  0.00    -0.119 A  
HETATM   12  C   UNL     1      -8.172   4.808  65.698  1.00  0.00    -0.113 C  
HETATM   13  C   UNL     1      -7.963   6.076  64.914  1.00  0.00    -0.126 A  
HETATM   14  C   UNL     1      -7.317   6.102  63.664  1.00  0.00    -0.067 A  
HETATM   15  C   UNL     1      -6.795   4.862  62.996  1.00  0.00    -0.034 C  
ENDBRANCH   4   8
BRANCH   7  16
HETATM   16  N   UNL     1      -9.218  12.318  67.709  1.00  0.00    -0.184 NA 
HETATM   17  H   UNL     1      -9.349  13.313  67.529  1.00  0.00     0.000 HD 
BRANCH  16  18
HETATM   18  N   UNL     1      -9.106  11.827  68.978  1.00  0.00    -0.376 NA 
HETATM   19  H   UNL     1      -8.233  11.943  69.492  1.00  0.00     0.000 HD 
BRANCH  18  20
HETATM   20  C   UNL     1     -10.193  11.158  69.582  1.00  0.00     0.207 A  
HETATM   21  C   UNL     1     -10.077   9.842  70.073  1.00  0.00    -0.260 A  
HETATM   22  C   UNL     1     -11.116   9.183  70.760  1.00  0.00    -0.336 A  
HETATM   23  O   UNL     1      -8.882   9.181  69.869  1.00  0.00    -0.143 OA 
HETATM   24  C   UNL     1     -11.430  11.794  69.710  1.00  0.00    -0.320 A  
HETATM   25  C   UNL     1     -12.349   9.847  70.835  1.00  0.00    -0.403 A  
HETATM   26  H   UNL     1      -8.805   8.294  70.199  1.00  0.00     0.000 HD 
HETATM   27  C   UNL     1     -12.507  11.135  70.311  1.00  0.00    -0.354 A  
BRANCH  22  28
HETATM   28  C   UNL     1     -10.878   7.915  71.482  1.00  0.00    -0.268 A  
HETATM   29  C   UNL     1     -11.828   6.888  71.574  1.00  0.00    -0.366 A  
HETATM   30  C   UNL     1     -11.566   5.734  72.326  1.00  0.00    -0.300 A  
HETATM   31  C   UNL     1     -10.336   5.570  72.965  1.00  0.00    -0.231 A  
HETATM   32  C   UNL     1      -9.366   6.565  72.856  1.00  0.00    -0.144 A  
HETATM   33  C   UNL     1      -9.660   7.739  72.165  1.00  0.00    -0.230 A  
HETATM   34  C   UNL     1      -8.047   6.384  73.508  1.00  0.00    -0.102 C  
HETATM   35  O   UNL     1      -7.023   6.934  72.813  1.00  0.00    -0.070 OA 
HETATM   36  O   UNL     1      -7.900   5.771  74.544  1.00  0.00    -0.100 OA 
ENDBRANCH  22  28
ENDBRANCH  18  20
ENDBRANCH  16  18
ENDBRANCH   7  16
TORSDOF 5
ENDMDL
MODEL      170
REMARK 921   NORMALIZED FREE ENERGY PREDICTED BY IDOCK:   -4.89 KCAL/MOL
REMARK 922        TOTAL FREE ENERGY PREDICTED BY IDOCK:   -7.61 KCAL/MOL
REMARK 923 INTER-LIGAND FREE ENERGY PREDICTED BY IDOCK:   -6.51 KCAL/MOL
REMARK 924 INTRA-LIGAND FREE ENERGY PREDICTED BY IDOCK:   -1.10 KCAL/MOL
REMARK 927      BINDING AFFINITY PREDICTED BY RF-SCORE:    0.00 PKD
ROOT
HETATM    1  C   UNL     1      -5.945  11.043  69.894  1.00  0.00    -0.099 C  
HETATM    2  C   UNL     1      -7.151  11.600  69.235  1.00  0.00    -0.055 C  
HETATM    3  N   UNL     1      -7.317  12.803  68.766  1.00  0.00    -0.097 NA 
HETATM    4  N   UNL     1      -8.613  12.859  68.216  1.00  0.00    -0.183 N  
HETATM    5  O   UNL     1     -10.438  11.311  67.966  1.00  0.00    -0.177 OA 
HETATM    6  C   UNL     1      -9.329  11.674  68.307  1.00  0.00    -0.191 C  
HETATM    7  C   UNL     1      -8.377  10.789  69.030  1.00  0.00    -0.136 C  
ENDROOT
BRANCH   4   8
HETATM    8  C   UNL     1      -9.083  14.080  67.677  1.00  0.00    -0.192 A  
HETATM    9  C   UNL     1      -9.217  14.249  66.297  1.00  0.00    -0.181 A  
HETATM   10  C   UNL     1      -9.704  15.440  65.760  1.00  0.00    -0.385 A  
HETATM   11  C   UNL     1      -9.440  15.149  68.510  1.00  0.00    -0.203 A  
HETATM   12  C   UNL     1     -10.300  17.450  68.959  1.00  0.00    -0.319 C  
HETATM   13  C   UNL     1      -9.931  16.363  67.986  1.00  0.00    -0.242 A  
HETATM   14  C   UNL     1     -10.069  16.506  66.593  1.00  0.00    -0.299 A  
HETATM   15  C   UNL     1     -10.582  17.766  65.955  1.00  0.00    -0.229 C  
ENDBRANCH   4   8
BRANCH   7  16
HETATM   16  N   UNL     1      -8.532   9.571  69.442  1.00  0.00    -0.135 NA 
HETATM   17  H   UNL     1      -7.756   9.031  69.825  1.00  0.00     0.000 HD 
BRANCH  16  18
HETATM   18  N   UNL     1      -9.789   9.047  69.340  1.00  0.00    -0.178 NA 
HETATM   19  H   UNL     1     -10.594   9.600  69.632  1.00  0.00     0.000 HD 
BRANCH  18  20
HETATM   20  C   UNL     1      -9.979   7.744  68.831  1.00  0.00    -0.182 A  
HETATM   21  C   UNL     1      -9.562   6.600  69.540  1.00  0.00    -0.146 A  
HETATM   22  C   UNL     1      -9.818   5.286  69.101  1.00  0.00    -0.257 A  
HETATM   23  O   UNL     1      -8.875   6.790  70.723  1.00  0.00    -0.148 OA 
HETATM   24  C   UNL     1     -10.595   7.553  67.592  1.00  0.00    -0.303 A  
HETATM   25  C   UNL     1     -10.408   5.143  67.837  1.00  0.00    -0.148 A  
HETATM   26  H   UNL     1      -8.594   6.019  71.201  1.00  0.00     0.000 HD 
HETATM   27  C   UNL     1     -10.787   6.263  67.088  1.00  0.00    -0.460 A  
BRANCH  22  28
HETATM   28  C   UNL     1      -9.600   4.122  69.986  1.00  0.00    -0.274 A  
HETATM   29  C   UNL     1      -8.861   2.992  69.609  1.00  0.00    -0.147 A  
HETATM   30  C   UNL     1      -8.741   1.892  70.470  1.00  0.00    -0.112 A  
HETATM   31  C   UNL     1      -9.325   1.921  71.738  1.00  0.00    -0.169 A  
HETATM   32  C   UNL     1     -10.033   3.050  72.144  1.00  0.00    -0.233 A  
HETATM   33  C   UNL     1     -10.206   4.109  71.256  1.00  0.00    -0.067 A  
HETATM   34  C   UNL     1     -10.630   3.098  73.500  1.00  0.00    -0.183 C  
HETATM   35  O   UNL     1     -10.624   4.336  74.048  1.00  0.00    -0.212 OA 
HETATM   36  O   UNL     1     -11.049   2.115  74.074  1.00  0.00    -0.166 OA 
ENDBRANCH  22  28
ENDBRANCH  18  20
ENDBRANCH  16  18
ENDBRANCH   7  16
TORSDOF 5
ENDMDL
MODEL      171
REMARK 921   NORMALIZED FREE ENERGY PREDICTED BY IDOCK:   -4.88 KCAL/MOL
REMARK 922        TOTAL FREE ENERGY PREDICTED BY IDOCK:   -7.61 KCAL/MOL
REMARK 923 INTER-LIGAND FREE ENERGY PREDICTED BY IDOCK:   -7.30 KCAL/MOL
REMARK 924 INTRA-LIGAND FREE ENERGY PREDICTED BY IDOCK:   -0.31 KCAL/MOL
REMARK 927      BINDING AFFINITY PREDICTED BY RF-SCORE:    0.00 PKD
ROOT
HETATM    1  C   UNL     1     -12.648  15.078  72.495  1.00  0.00    -0.442 C  
HETATM    2  C   UNL     1     -12.577  13.760  71.817  1.00  0.00    -0.226 C  
HETATM    3  N   UNL     1     -12.941  12.603  72.290  1.00  0.00    -0.243 NA 
HETATM    4  N   UNL     1     -12.706  11.650  71.280  1.00  0.00    -0.383 N  
HETATM    5  O   UNL     1     -11.853  11.710  69.031  1.00  0.00    -0.297 OA 
HETATM    6  C   UNL     1     -12.184  12.171  70.105  1.00  0.00    -0.231 C  
HETATM    7  C   UNL     1     -12.047  13.615  70.440  1.00  0.00    -0.351 C  
ENDROOT
BRANCH   4   8
HETATM    8  C   UNL     1     -12.965  10.285  71.545  1.00  0.00    -0.453 A  
HETATM    9  C   UNL     1     -14.133   9.892  72.201  1.00  0.00     0.072 A  
HETATM   10  C   UNL     1     -14.409   8.546  72.443  1.00  0.00    -0.412 A  
HETATM   11  C   UNL     1     -12.066   9.286  71.145  1.00  0.00    -0.389 A  
HETATM   12  C   UNL     1     -11.308   6.918  70.905  1.00  0.00    -0.348 C  
HETATM   13  C   UNL     1     -12.326   7.920  71.382  1.00  0.00    -0.334 A  
HETATM   14  C   UNL     1     -13.515   7.547  72.035  1.00  0.00    -0.206 A  
HETATM   15  C   UNL     1     -13.863   6.116  72.328  1.00  0.00     0.580 C  
ENDBRANCH   4   8
BRANCH   7  16
HETATM   16  N   UNL     1     -11.556  14.583  69.733  1.00  0.00    -0.280 NA 
HETATM   17  H   UNL     1     -10.786  15.159  70.074  1.00  0.00     0.000 HD 
BRANCH  16  18
HETATM   18  N   UNL     1     -12.121  14.793  68.508  1.00  0.00    -0.578 NA 
HETATM   19  H   UNL     1     -13.010  15.289  68.438  1.00  0.00     0.000 HD 
BRANCH  18  20
HETATM   20  C   UNL     1     -11.483  14.327  67.338  1.00  0.00    -0.347 A  
HETATM   21  C   UNL     1     -10.216  13.712  67.376  1.00  0.00    -0.241 A  
HETATM   22  C   UNL     1      -9.595  13.157  66.240  1.00  0.00    -0.241 A  
HETATM   23  O   UNL     1      -9.565  13.653  68.592  1.00  0.00    -0.333 OA 
HETATM   24  C   UNL     1     -12.103  14.466  66.094  1.00  0.00    -0.373 A  
HETATM   25  C   UNL     1     -10.238  13.350  65.008  1.00  0.00    -0.325 A  
HETATM   26  H   UNL     1      -8.711  13.239  68.618  1.00  0.00     0.000 HD 
HETATM   27  C   UNL     1     -11.474  14.002  64.934  1.00  0.00    -0.358 A  
BRANCH  22  28
HETATM   28  C   UNL     1      -8.398  12.299  66.359  1.00  0.00     0.157 A  
HETATM   29  C   UNL     1      -7.223  12.697  67.013  1.00  0.00     0.064 A  
HETATM   30  C   UNL     1      -6.098  11.862  67.039  1.00  0.00    -0.149 A  
HETATM   31  C   UNL     1      -6.141  10.599  66.446  1.00  0.00    -0.100 A  
HETATM   32  C   UNL     1      -7.311  10.172  65.820  1.00  0.00    -0.128 A  
HETATM   33  C   UNL     1      -8.401  11.036  65.739  1.00  0.00    -0.092 A  
HETATM   34  C   UNL     1      -7.372   8.821  65.214  1.00  0.00    -0.085 C  
HETATM   35  O   UNL     1      -8.593   8.243  65.309  1.00  0.00    -0.171 OA 
HETATM   36  O   UNL     1      -6.411   8.276  64.715  1.00  0.00    -0.062 OA 
ENDBRANCH  22  28
ENDBRANCH  18  20
ENDBRANCH  16  18
ENDBRANCH   7  16
TORSDOF 5
ENDMDL
MODEL      172
REMARK 921   NORMALIZED FREE ENERGY PREDICTED BY IDOCK:   -4.88 KCAL/MOL
REMARK 922        TOTAL FREE ENERGY PREDICTED BY IDOCK:   -7.61 KCAL/MOL
REMARK 923 INTER-LIGAND FREE ENERGY PREDICTED BY IDOCK:   -6.57 KCAL/MOL
REMARK 924 INTRA-LIGAND FREE ENERGY PREDICTED BY IDOCK:   -1.04 KCAL/MOL
REMARK 927      BINDING AFFINITY PREDICTED BY RF-SCORE:    0.00 PKD
ROOT
HETATM    1  C   UNL     1     -11.908  12.785  68.048  1.00  0.00    -0.386 C  
HETATM    2  C   UNL     1     -10.896  11.700  68.028  1.00  0.00    -0.215 C  
HETATM    3  N   UNL     1     -11.105  10.417  68.090  1.00  0.00    -0.285 NA 
HETATM    4  N   UNL     1      -9.847   9.788  68.016  1.00  0.00    -0.145 N  
HETATM    5  O   UNL     1      -7.568  10.529  67.798  1.00  0.00    -0.088 OA 
HETATM    6  C   UNL     1      -8.773  10.657  67.893  1.00  0.00    -0.127 C  
HETATM    7  C   UNL     1      -9.443  11.985  67.931  1.00  0.00    -0.196 C  
ENDROOT
BRANCH   4   8
HETATM    8  C   UNL     1      -9.773   8.378  68.114  1.00  0.00    -0.155 A  
HETATM    9  C   UNL     1     -10.634   7.562  67.377  1.00  0.00    -0.364 A  
HETATM   10  C   UNL     1     -10.550   6.172  67.449  1.00  0.00    -0.352 A  
HETATM   11  C   UNL     1      -8.826   7.759  68.942  1.00  0.00    -0.135 A  
HETATM   12  C   UNL     1      -7.672   5.780  69.937  1.00  0.00    -0.087 C  
HETATM   13  C   UNL     1      -8.728   6.355  69.031  1.00  0.00    -0.123 A  
HETATM   14  C   UNL     1      -9.598   5.553  68.270  1.00  0.00    -0.148 A  
HETATM   15  C   UNL     1      -9.560   4.052  68.309  1.00  0.00    -0.188 C  
ENDBRANCH   4   8
BRANCH   7  16
HETATM   16  N   UNL     1      -8.925  13.173  67.910  1.00  0.00    -0.190 NA 
HETATM   17  H   UNL     1      -8.742  13.663  67.035  1.00  0.00     0.000 HD 
BRANCH  16  18
HETATM   18  N   UNL     1      -8.636  13.734  69.121  1.00  0.00    -0.298 NA 
HETATM   19  H   UNL     1      -9.027  13.332  69.972  1.00  0.00     0.000 HD 
BRANCH  18  20
HETATM   20  C   UNL     1      -7.798  14.868  69.200  1.00  0.00    -0.171 A  
HETATM   21  C   UNL     1      -8.006  16.004  68.394  1.00  0.00    -0.151 A  
HETATM   22  C   UNL     1      -7.243  17.182  68.512  1.00  0.00    -0.220 A  
HETATM   23  O   UNL     1      -9.011  15.948  67.448  1.00  0.00    -0.187 OA 
HETATM   24  C   UNL     1      -6.725  14.891  70.094  1.00  0.00    -0.117 A  
HETATM   25  C   UNL     1      -6.157  17.148  69.399  1.00  0.00    -0.230 A  
HETATM   26  H   UNL     1      -9.150  16.714  66.904  1.00  0.00     0.000 HD 
HETATM   27  C   UNL     1      -5.896  16.014  70.177  1.00  0.00    -0.155 A  
BRANCH  22  28
HETATM   28  C   UNL     1      -7.650  18.434  67.839  1.00  0.00    -0.255 A  
HETATM   29  C   UNL     1      -8.737  19.217  68.254  1.00  0.00    -0.375 A  
HETATM   30  C   UNL     1      -9.111  20.361  67.537  1.00  0.00    -0.447 A  
HETATM   31  C   UNL     1      -8.381  20.765  66.417  1.00  0.00     0.233 A  
HETATM   32  C   UNL     1      -7.277  20.019  66.011  1.00  0.00    -0.320 A  
HETATM   33  C   UNL     1      -6.954  18.845  66.688  1.00  0.00    -0.224 A  
HETATM   34  C   UNL     1      -6.480  20.459  64.841  1.00  0.00    -0.297 C  
HETATM   35  O   UNL     1      -5.158  20.187  64.956  1.00  0.00    -0.153 OA 
HETATM   36  O   UNL     1      -6.963  21.037  63.891  1.00  0.00    -0.019 OA 
ENDBRANCH  22  28
ENDBRANCH  18  20
ENDBRANCH  16  18
ENDBRANCH   7  16
TORSDOF 5
ENDMDL
MODEL      173
REMARK 921   NORMALIZED FREE ENERGY PREDICTED BY IDOCK:   -4.72 KCAL/MOL
REMARK 922        TOTAL FREE ENERGY PREDICTED BY IDOCK:   -7.40 KCAL/MOL
REMARK 923 INTER-LIGAND FREE ENERGY PREDICTED BY IDOCK:   -7.26 KCAL/MOL
REMARK 924 INTRA-LIGAND FREE ENERGY PREDICTED BY IDOCK:   -0.14 KCAL/MOL
REMARK 927      BINDING AFFINITY PREDICTED BY RF-SCORE:    0.00 PKD
ROOT
HETATM    1  C   UNL     1      -6.737   5.145  65.607  1.00  0.00    -0.052 C  
HETATM    2  C   UNL     1      -7.751   5.611  66.585  1.00  0.00    -0.100 C  
HETATM    3  N   UNL     1      -7.977   5.143  67.778  1.00  0.00    -0.095 NA 
HETATM    4  N   UNL     1      -9.016   5.914  68.335  1.00  0.00    -0.113 N  
HETATM    5  O   UNL     1     -10.348   7.780  67.606  1.00  0.00    -0.206 OA 
HETATM    6  C   UNL     1      -9.493   6.921  67.510  1.00  0.00    -0.128 C  
HETATM    7  C   UNL     1      -8.676   6.730  66.281  1.00  0.00    -0.146 C  
ENDROOT
BRANCH   4   8
HETATM    8  C   UNL     1      -9.506   5.586  69.622  1.00  0.00    -0.138 A  
HETATM    9  C   UNL     1     -10.086   6.561  70.437  1.00  0.00    -0.213 A  
HETATM   10  C   UNL     1     -10.594   6.241  71.696  1.00  0.00    -0.271 A  
HETATM   11  C   UNL     1      -9.436   4.275  70.111  1.00  0.00    -0.252 A  
HETATM   12  C   UNL     1      -9.833   2.495  71.817  1.00  0.00    -0.226 C  
HETATM   13  C   UNL     1      -9.941   3.932  71.382  1.00  0.00    -0.198 A  
HETATM   14  C   UNL     1     -10.532   4.928  72.181  1.00  0.00    -0.257 A  
HETATM   15  C   UNL     1     -11.091   4.646  73.547  1.00  0.00    -0.412 C  
ENDBRANCH   4   8
BRANCH   7  16
HETATM   16  N   UNL     1      -8.728   7.357  65.149  1.00  0.00    -0.362 NA 
HETATM   17  H   UNL     1      -9.455   7.161  64.461  1.00  0.00     0.000 HD 
BRANCH  16  18
HETATM   18  N   UNL     1      -7.762   8.295  64.925  1.00  0.00    -0.108 NA 
HETATM   19  H   UNL     1      -7.180   8.234  64.090  1.00  0.00     0.000 HD 
BRANCH  18  20
HETATM   20  C   UNL     1      -7.563   9.349  65.844  1.00  0.00    -0.099 A  
HETATM   21  C   UNL     1      -8.364  10.508  65.831  1.00  0.00    -0.161 A  
HETATM   22  C   UNL     1      -8.249  11.534  66.790  1.00  0.00    -0.164 A  
HETATM   23  O   UNL     1      -9.306  10.629  64.829  1.00  0.00    -0.201 OA 
HETATM   24  C   UNL     1      -6.552   9.267  66.804  1.00  0.00    -0.068 A  
HETATM   25  C   UNL     1      -7.199  11.425  67.713  1.00  0.00    -0.089 A  
HETATM   26  H   UNL     1      -9.845  11.411  64.820  1.00  0.00     0.000 HD 
HETATM   27  C   UNL     1      -6.356  10.307  67.717  1.00  0.00    -0.057 A  
BRANCH  22  28
HETATM   28  C   UNL     1      -9.266  12.601  66.902  1.00  0.00    -0.216 A  
HETATM   29  C   UNL     1      -9.259  13.573  67.913  1.00  0.00    -0.211 A  
HETATM   30  C   UNL     1     -10.286  14.522  68.002  1.00  0.00    -0.233 A  
HETATM   31  C   UNL     1     -11.316  14.541  67.059  1.00  0.00    -0.359 A  
HETATM   32  C   UNL     1     -11.320  13.605  66.027  1.00  0.00    -0.322 A  
HETATM   33  C   UNL     1     -10.334  12.622  65.986  1.00  0.00    -0.287 A  
HETATM   34  C   UNL     1     -12.394  13.639  65.006  1.00  0.00    -0.427 C  
HETATM   35  O   UNL     1     -11.976  13.272  63.772  1.00  0.00    -0.464 OA 
HETATM   36  O   UNL     1     -13.528  13.996  65.250  1.00  0.00    -0.622 OA 
ENDBRANCH  22  28
ENDBRANCH  18  20
ENDBRANCH  16  18
ENDBRANCH   7  16
TORSDOF 5
ENDMDL
MODEL      174
REMARK 921   NORMALIZED FREE ENERGY PREDICTED BY IDOCK:   -4.69 KCAL/MOL
REMARK 922        TOTAL FREE ENERGY PREDICTED BY IDOCK:   -7.37 KCAL/MOL
REMARK 923 INTER-LIGAND FREE ENERGY PREDICTED BY IDOCK:   -5.58 KCAL/MOL
REMARK 924 INTRA-LIGAND FREE ENERGY PREDICTED BY IDOCK:   -1.79 KCAL/MOL
REMARK 927      BINDING AFFINITY PREDICTED BY RF-SCORE:    0.00 PKD
ROOT
HETATM    1  C   UNL     1      -9.647   3.495  69.688  1.00  0.00    -0.184 C  
HETATM    2  C   UNL     1      -9.600   4.860  70.268  1.00  0.00    -0.195 C  
HETATM    3  N   UNL     1     -10.568   5.728  70.336  1.00  0.00    -0.274 NA 
HETATM    4  N   UNL     1     -10.057   6.868  70.988  1.00  0.00    -0.193 N  
HETATM    5  O   UNL     1      -7.939   7.493  71.942  1.00  0.00    -0.090 OA 
HETATM    6  C   UNL     1      -8.729   6.766  71.372  1.00  0.00    -0.131 C  
HETATM    7  C   UNL     1      -8.362   5.414  70.868  1.00  0.00    -0.118 C  
ENDROOT
BRANCH   4   8
HETATM    8  C   UNL     1     -10.890   8.000  71.152  1.00  0.00    -0.238 A  
HETATM    9  C   UNL     1     -11.661   8.161  72.305  1.00  0.00    -0.436 A  
HETATM   10  C   UNL     1     -12.464   9.287  72.486  1.00  0.00    -0.210 A  
HETATM   11  C   UNL     1     -10.955   8.999  70.171  1.00  0.00    -0.256 A  
HETATM   12  C   UNL     1     -11.759  11.170  69.232  1.00  0.00    -0.401 C  
HETATM   13  C   UNL     1     -11.763  10.144  70.334  1.00  0.00    -0.390 A  
HETATM   14  C   UNL     1     -12.522  10.290  71.509  1.00  0.00    -0.524 A  
HETATM   15  C   UNL     1     -13.409  11.477  71.759  1.00  0.00    -0.356 C  
ENDBRANCH   4   8
BRANCH   7  16
HETATM   16  N   UNL     1      -7.219   4.805  70.896  1.00  0.00    -0.053 NA 
HETATM   17  H   UNL     1      -7.108   3.894  71.343  1.00  0.00     0.000 HD 
BRANCH  16  18
HETATM   18  N   UNL     1      -6.172   5.443  70.297  1.00  0.00    -0.022 NA 
HETATM   19  H   UNL     1      -5.348   5.690  70.844  1.00  0.00     0.000 HD 
BRANCH  18  20
HETATM   20  C   UNL     1      -6.224   5.765  68.923  1.00  0.00    -0.029 A  
HETATM   21  C   UNL     1      -6.517   4.796  67.943  1.00  0.00    -0.045 A  
HETATM   22  C   UNL     1      -6.664   5.104  66.576  1.00  0.00    -0.057 A  
HETATM   23  O   UNL     1      -6.668   3.487  68.356  1.00  0.00    -0.044 OA 
HETATM   24  C   UNL     1      -5.984   7.072  68.495  1.00  0.00    -0.025 A  
HETATM   25  C   UNL     1      -6.380   6.422  66.188  1.00  0.00    -0.042 A  
HETATM   26  H   UNL     1      -6.865   2.834  67.695  1.00  0.00     0.000 HD 
HETATM   27  C   UNL     1      -6.038   7.394  67.135  1.00  0.00    -0.046 A  
BRANCH  22  28
HETATM   28  C   UNL     1      -7.221   4.122  65.621  1.00  0.00    -0.072 A  
HETATM   29  C   UNL     1      -6.500   3.022  65.134  1.00  0.00    -0.035 A  
HETATM   30  C   UNL     1      -7.062   2.160  64.183  1.00  0.00    -0.048 A  
HETATM   31  C   UNL     1      -8.368   2.361  63.730  1.00  0.00    -0.082 A  
HETATM   32  C   UNL     1      -9.112   3.429  64.228  1.00  0.00    -0.125 A  
HETATM   33  C   UNL     1      -8.521   4.320  65.122  1.00  0.00    -0.116 A  
HETATM   34  C   UNL     1     -10.508   3.630  63.775  1.00  0.00    -0.266 C  
HETATM   35  O   UNL     1     -11.321   4.128  64.736  1.00  0.00    -0.294 OA 
HETATM   36  O   UNL     1     -10.890   3.341  62.660  1.00  0.00    -0.179 OA 
ENDBRANCH  22  28
ENDBRANCH  18  20
ENDBRANCH  16  18
ENDBRANCH   7  16
TORSDOF 5
ENDMDL
MODEL      175
REMARK 921   NORMALIZED FREE ENERGY PREDICTED BY IDOCK:   -4.67 KCAL/MOL
REMARK 922        TOTAL FREE ENERGY PREDICTED BY IDOCK:   -7.34 KCAL/MOL
REMARK 923 INTER-LIGAND FREE ENERGY PREDICTED BY IDOCK:   -5.50 KCAL/MOL
REMARK 924 INTRA-LIGAND FREE ENERGY PREDICTED BY IDOCK:   -1.84 KCAL/MOL
REMARK 927      BINDING AFFINITY PREDICTED BY RF-SCORE:    0.00 PKD
ROOT
HETATM    1  C   UNL     1      -6.948  12.550  67.094  1.00  0.00    -0.060 C  
HETATM    2  C   UNL     1      -7.547  11.254  66.690  1.00  0.00    -0.140 C  
HETATM    3  N   UNL     1      -6.978  10.083  66.687  1.00  0.00    -0.085 NA 
HETATM    4  N   UNL     1      -7.942   9.155  66.245  1.00  0.00    -0.102 N  
HETATM    5  O   UNL     1     -10.247   9.270  65.564  1.00  0.00    -0.026 OA 
HETATM    6  C   UNL     1      -9.182   9.706  65.955  1.00  0.00    -0.194 C  
HETATM    7  C   UNL     1      -8.948  11.153  66.213  1.00  0.00    -0.193 C  
ENDROOT
BRANCH   4   8
HETATM    8  C   UNL     1      -7.576   7.797  66.094  1.00  0.00    -0.087 A  
HETATM    9  C   UNL     1      -7.188   7.033  67.197  1.00  0.00    -0.089 A  
HETATM   10  C   UNL     1      -6.850   5.687  67.061  1.00  0.00    -0.064 A  
HETATM   11  C   UNL     1      -7.604   7.175  64.839  1.00  0.00    -0.103 A  
HETATM   12  C   UNL     1      -7.336   5.230  63.295  1.00  0.00    -0.050 C  
HETATM   13  C   UNL     1      -7.264   5.815  64.680  1.00  0.00    -0.062 A  
HETATM   14  C   UNL     1      -6.887   5.062  65.807  1.00  0.00    -0.061 A  
HETATM   15  C   UNL     1      -6.507   3.611  65.722  1.00  0.00    -0.033 C  
ENDBRANCH   4   8
BRANCH   7  16
HETATM   16  N   UNL     1      -9.747  12.160  66.054  1.00  0.00    -0.243 NA 
HETATM   17  H   UNL     1      -9.434  13.029  65.623  1.00  0.00     0.000 HD 
BRANCH  16  18
HETATM   18  N   UNL     1     -11.030  11.997  66.492  1.00  0.00    -0.281 NA 
HETATM   19  H   UNL     1     -11.783  11.868  65.818  1.00  0.00     0.000 HD 
BRANCH  18  20
HETATM   20  C   UNL     1     -11.318  12.005  67.875  1.00  0.00    -0.305 A  
HETATM   21  C   UNL     1     -11.627  10.824  68.577  1.00  0.00    -0.255 A  
HETATM   22  C   UNL     1     -11.831  10.788  69.971  1.00  0.00    -0.424 A  
HETATM   23  O   UNL     1     -11.727   9.652  67.855  1.00  0.00    -0.188 OA 
HETATM   24  C   UNL     1     -11.304  13.205  68.590  1.00  0.00    -0.327 A  
HETATM   25  C   UNL     1     -11.841  12.020  70.642  1.00  0.00    -0.100 A  
HETATM   26  H   UNL     1     -11.935   8.856  68.329  1.00  0.00     0.000 HD 
HETATM   27  C   UNL     1     -11.586  13.215  69.960  1.00  0.00    -0.202 A  
BRANCH  22  28
HETATM   28  C   UNL     1     -11.895   9.509  70.707  1.00  0.00    -0.350 A  
HETATM   29  C   UNL     1     -13.060   8.737  70.817  1.00  0.00     0.320 A  
HETATM   30  C   UNL     1     -13.074   7.562  71.581  1.00  0.00    -0.401 A  
HETATM   31  C   UNL     1     -11.913   7.119  72.217  1.00  0.00    -0.256 A  
HETATM   32  C   UNL     1     -10.736   7.854  72.091  1.00  0.00    -0.316 A  
HETATM   33  C   UNL     1     -10.749   9.056  71.387  1.00  0.00    -0.401 A  
HETATM   34  C   UNL     1      -9.493   7.373  72.739  1.00  0.00    -0.160 C  
HETATM   35  O   UNL     1      -8.373   7.656  72.034  1.00  0.00    -0.103 OA 
HETATM   36  O   UNL     1      -9.488   6.754  73.783  1.00  0.00    -0.156 OA 
ENDBRANCH  22  28
ENDBRANCH  18  20
ENDBRANCH  16  18
ENDBRANCH   7  16
TORSDOF 5
ENDMDL
MODEL      176
REMARK 921   NORMALIZED FREE ENERGY PREDICTED BY IDOCK:   -4.66 KCAL/MOL
REMARK 922        TOTAL FREE ENERGY PREDICTED BY IDOCK:   -7.33 KCAL/MOL
REMARK 923 INTER-LIGAND FREE ENERGY PREDICTED BY IDOCK:   -8.06 KCAL/MOL
REMARK 924 INTRA-LIGAND FREE ENERGY PREDICTED BY IDOCK:    0.73 KCAL/MOL
REMARK 927      BINDING AFFINITY PREDICTED BY RF-SCORE:    0.00 PKD
ROOT
HETATM    1  C   UNL     1     -11.530  19.779  65.068  1.00  0.00     1.648 C  
HETATM    2  C   UNL     1     -10.632  18.758  65.659  1.00  0.00    -0.154 C  
HETATM    3  N   UNL     1      -9.793  18.911  66.642  1.00  0.00    -0.338 NA 
HETATM    4  N   UNL     1      -9.181  17.662  66.864  1.00  0.00    -0.256 N  
HETATM    5  O   UNL     1      -9.361  15.468  65.892  1.00  0.00    -0.338 OA 
HETATM    6  C   UNL     1      -9.620  16.648  66.025  1.00  0.00    -0.266 C  
HETATM    7  C   UNL     1     -10.594  17.363  65.157  1.00  0.00     0.201 C  
ENDROOT
BRANCH   4   8
HETATM    8  C   UNL     1      -8.175  17.551  67.852  1.00  0.00    -0.231 A  
HETATM    9  C   UNL     1      -7.462  18.674  68.278  1.00  0.00    -0.302 A  
HETATM   10  C   UNL     1      -6.487  18.578  69.270  1.00  0.00    -0.272 A  
HETATM   11  C   UNL     1      -7.873  16.316  68.443  1.00  0.00    -0.168 A  
HETATM   12  C   UNL     1      -6.642  14.833  70.031  1.00  0.00    -0.168 C  
HETATM   13  C   UNL     1      -6.889  16.198  69.446  1.00  0.00    -0.214 A  
HETATM   14  C   UNL     1      -6.192  17.345  69.867  1.00  0.00    -0.122 A  
HETATM   15  C   UNL     1      -5.128  17.303  70.927  1.00  0.00    -0.231 C  
ENDBRANCH   4   8
BRANCH   7  16
HETATM   16  N   UNL     1     -11.278  16.923  64.147  1.00  0.00    -1.224 NA 
HETATM   17  H   UNL     1     -11.064  17.208  63.191  1.00  0.00     0.000 HD 
BRANCH  16  18
HETATM   18  N   UNL     1     -12.297  16.060  64.429  1.00  0.00    -0.258 NA 
HETATM   19  H   UNL     1     -13.252  16.408  64.498  1.00  0.00     0.000 HD 
BRANCH  18  20
HETATM   20  C   UNL     1     -12.034  14.686  64.625  1.00  0.00    -0.462 A  
HETATM   21  C   UNL     1     -11.833  14.144  65.910  1.00  0.00    -0.384 A  
HETATM   22  C   UNL     1     -11.658  12.765  66.144  1.00  0.00    -0.431 A  
HETATM   23  O   UNL     1     -11.812  15.014  66.981  1.00  0.00    -0.272 OA 
HETATM   24  C   UNL     1     -11.966  13.818  63.533  1.00  0.00    -0.197 A  
HETATM   25  C   UNL     1     -11.563  11.937  65.017  1.00  0.00    -0.277 A  
HETATM   26  H   UNL     1     -11.676  14.648  67.847  1.00  0.00     0.000 HD 
HETATM   27  C   UNL     1     -11.710  12.457  63.725  1.00  0.00    -0.566 A  
BRANCH  22  28
HETATM   28  C   UNL     1     -11.709  12.204  67.511  1.00  0.00    -0.385 A  
HETATM   29  C   UNL     1     -11.335  10.889  67.821  1.00  0.00    -0.366 A  
HETATM   30  C   UNL     1     -11.464  10.395  69.127  1.00  0.00    -0.261 A  
HETATM   31  C   UNL     1     -11.932  11.220  70.152  1.00  0.00    -0.452 A  
HETATM   32  C   UNL     1     -12.276  12.540  69.869  1.00  0.00    -0.233 A  
HETATM   33  C   UNL     1     -12.210  13.002  68.556  1.00  0.00    -0.038 A  
HETATM   34  C   UNL     1     -12.745  13.429  70.959  1.00  0.00    -0.307 C  
HETATM   35  O   UNL     1     -12.363  14.720  70.804  1.00  0.00    -0.287 OA 
HETATM   36  O   UNL     1     -13.378  13.030  71.912  1.00  0.00    -0.446 OA 
ENDBRANCH  22  28
ENDBRANCH  18  20
ENDBRANCH  16  18
ENDBRANCH   7  16
TORSDOF 5
ENDMDL
MODEL      177
REMARK 921   NORMALIZED FREE ENERGY PREDICTED BY IDOCK:   -4.59 KCAL/MOL
REMARK 922        TOTAL FREE ENERGY PREDICTED BY IDOCK:   -7.23 KCAL/MOL
REMARK 923 INTER-LIGAND FREE ENERGY PREDICTED BY IDOCK:   -6.92 KCAL/MOL
REMARK 924 INTRA-LIGAND FREE ENERGY PREDICTED BY IDOCK:   -0.31 KCAL/MOL
REMARK 927      BINDING AFFINITY PREDICTED BY RF-SCORE:    0.00 PKD
ROOT
HETATM    1  C   UNL     1     -12.746  15.352  67.685  1.00  0.00     1.776 C  
HETATM    2  C   UNL     1     -11.579  14.603  67.158  1.00  0.00    -0.378 C  
HETATM    3  N   UNL     1     -11.580  13.655  66.266  1.00  0.00    -0.334 NA 
HETATM    4  N   UNL     1     -10.240  13.265  66.074  1.00  0.00    -0.286 N  
HETATM    5  O   UNL     1      -8.111  13.943  66.969  1.00  0.00    -0.128 OA 
HETATM    6  C   UNL     1      -9.320  13.965  66.841  1.00  0.00    -0.258 C  
HETATM    7  C   UNL     1     -10.198  14.873  67.627  1.00  0.00    -0.236 C  
ENDROOT
BRANCH   4   8
HETATM    8  C   UNL     1      -9.950  12.203  65.185  1.00  0.00    -0.228 A  
HETATM    9  C   UNL     1     -10.137  12.349  63.809  1.00  0.00    -0.334 A  
HETATM   10  C   UNL     1      -9.830  11.316  62.924  1.00  0.00    -0.317 A  
HETATM   11  C   UNL     1      -9.455  10.979  65.656  1.00  0.00    -0.250 A  
HETATM   12  C   UNL     1      -8.602   8.649  65.375  1.00  0.00    -0.206 C  
HETATM   13  C   UNL     1      -9.140   9.922  64.778  1.00  0.00    -0.283 A  
HETATM   14  C   UNL     1      -9.326  10.096  63.394  1.00  0.00    -0.334 A  
HETATM   15  C   UNL     1      -9.018   9.019  62.393  1.00  0.00    -0.099 C  
ENDBRANCH   4   8
BRANCH   7  16
HETATM   16  N   UNL     1      -9.887  15.723  68.555  1.00  0.00    -0.205 NA 
HETATM   17  H   UNL     1      -9.734  16.710  68.347  1.00  0.00     0.000 HD 
BRANCH  16  18
HETATM   18  N   UNL     1      -9.775  15.230  69.823  1.00  0.00    -0.441 NA 
HETATM   19  H   UNL     1      -8.866  15.220  70.284  1.00  0.00     0.000 HD 
BRANCH  18  20
HETATM   20  C   UNL     1     -10.912  14.734  70.498  1.00  0.00    -0.023 A  
HETATM   21  C   UNL     1     -11.295  13.381  70.415  1.00  0.00     0.389 A  
HETATM   22  C   UNL     1     -12.369  12.839  71.147  1.00  0.00    -0.247 A  
HETATM   23  O   UNL     1     -10.572  12.557  69.575  1.00  0.00    -0.419 OA 
HETATM   24  C   UNL     1     -11.697  15.587  71.278  1.00  0.00    -0.457 A  
HETATM   25  C   UNL     1     -13.149  13.738  71.890  1.00  0.00    -0.474 A  
HETATM   26  H   UNL     1     -10.831  11.645  69.519  1.00  0.00     0.000 HD 
HETATM   27  C   UNL     1     -12.821  15.097  71.950  1.00  0.00    -0.428 A  
BRANCH  22  28
HETATM   28  C   UNL     1     -12.581  11.379  71.236  1.00  0.00    -0.480 A  
HETATM   29  C   UNL     1     -13.605  10.791  71.993  1.00  0.00    -0.167 A  
HETATM   30  C   UNL     1     -13.717   9.397  72.088  1.00  0.00    -0.490 A  
HETATM   31  C   UNL     1     -12.831   8.567  71.397  1.00  0.00    -0.277 A  
HETATM   32  C   UNL     1     -11.829   9.133  70.612  1.00  0.00    -0.222 A  
HETATM   33  C   UNL     1     -11.682  10.519  70.579  1.00  0.00    -0.443 A  
HETATM   34  C   UNL     1     -10.905   8.259  69.852  1.00  0.00    -0.213 C  
HETATM   35  O   UNL     1     -10.519   8.784  68.665  1.00  0.00    -0.211 OA 
HETATM   36  O   UNL     1     -10.559   7.164  70.243  1.00  0.00    -0.216 OA 
ENDBRANCH  22  28
ENDBRANCH  18  20
ENDBRANCH  16  18
ENDBRANCH   7  16
TORSDOF 5
ENDMDL
MODEL      178
REMARK 921   NORMALIZED FREE ENERGY PREDICTED BY IDOCK:   -4.58 KCAL/MOL
REMARK 922        TOTAL FREE ENERGY PREDICTED BY IDOCK:   -7.22 KCAL/MOL
REMARK 923 INTER-LIGAND FREE ENERGY PREDICTED BY IDOCK:   -6.46 KCAL/MOL
REMARK 924 INTRA-LIGAND FREE ENERGY PREDICTED BY IDOCK:   -0.75 KCAL/MOL
REMARK 927      BINDING AFFINITY PREDICTED BY RF-SCORE:    0.00 PKD
ROOT
HETATM    1  C   UNL     1     -10.515   6.404  70.886  1.00  0.00    -0.275 C  
HETATM    2  C   UNL     1     -10.207   6.545  69.442  1.00  0.00    -0.183 C  
HETATM    3  N   UNL     1      -9.844   5.610  68.612  1.00  0.00    -0.136 NA 
HETATM    4  N   UNL     1      -9.686   6.215  67.350  1.00  0.00    -0.116 N  
HETATM    5  O   UNL     1      -9.942   8.440  66.470  1.00  0.00    -0.258 OA 
HETATM    6  C   UNL     1      -9.954   7.575  67.325  1.00  0.00    -0.210 C  
HETATM    7  C   UNL     1     -10.284   7.854  68.749  1.00  0.00    -0.205 C  
ENDROOT
BRANCH   4   8
HETATM    8  C   UNL     1      -9.240   5.431  66.259  1.00  0.00    -0.152 A  
HETATM    9  C   UNL     1      -8.496   6.002  65.224  1.00  0.00    -0.131 A  
HETATM   10  C   UNL     1      -8.031   5.231  64.159  1.00  0.00    -0.112 A  
HETATM   11  C   UNL     1      -9.518   4.059  66.192  1.00  0.00    -0.192 A  
HETATM   12  C   UNL     1      -9.396   1.796  65.142  1.00  0.00    -0.025 C  
HETATM   13  C   UNL     1      -9.058   3.263  65.122  1.00  0.00    -0.146 A  
HETATM   14  C   UNL     1      -8.301   3.858  64.096  1.00  0.00    -0.092 A  
HETATM   15  C   UNL     1      -7.778   3.081  62.922  1.00  0.00    -0.066 C  
ENDBRANCH   4   8
BRANCH   7  16
HETATM   16  N   UNL     1     -10.564   8.979  69.326  1.00  0.00    -0.252 NA 
HETATM   17  H   UNL     1     -11.257   9.041  70.073  1.00  0.00     0.000 HD 
BRANCH  16  18
HETATM   18  N   UNL     1      -9.885  10.078  68.885  1.00  0.00    -0.175 NA 
HETATM   19  H   UNL     1      -8.987   9.964  68.414  1.00  0.00     0.000 HD 
BRANCH  18  20
HETATM   20  C   UNL     1     -10.417  11.371  69.078  1.00  0.00    -0.168 A  
HETATM   21  C   UNL     1      -9.785  12.521  68.564  1.00  0.00    -0.129 A  
HETATM   22  C   UNL     1     -10.338  13.813  68.663  1.00  0.00    -0.225 A  
HETATM   23  O   UNL     1      -8.568  12.358  67.932  1.00  0.00    -0.153 OA 
HETATM   24  C   UNL     1     -11.603  11.546  69.795  1.00  0.00    -0.401 A  
HETATM   25  C   UNL     1     -11.511  13.944  69.419  1.00  0.00    -0.334 A  
HETATM   26  H   UNL     1      -8.142  13.133  67.586  1.00  0.00     0.000 HD 
HETATM   27  C   UNL     1     -12.135  12.826  69.984  1.00  0.00    -0.355 A  
BRANCH  22  28
HETATM   28  C   UNL     1      -9.784  14.948  67.896  1.00  0.00    -0.206 A  
HETATM   29  C   UNL     1     -10.443  15.542  66.809  1.00  0.00    -0.295 A  
HETATM   30  C   UNL     1      -9.838  16.576  66.082  1.00  0.00    -0.355 A  
HETATM   31  C   UNL     1      -8.582  17.061  66.452  1.00  0.00    -0.311 A  
HETATM   32  C   UNL     1      -7.927  16.506  67.549  1.00  0.00    -0.176 A  
HETATM   33  C   UNL     1      -8.504  15.432  68.224  1.00  0.00    -0.159 A  
HETATM   34  C   UNL     1      -6.606  17.036  67.965  1.00  0.00    -0.148 C  
HETATM   35  O   UNL     1      -6.410  17.005  69.305  1.00  0.00    -0.203 OA 
HETATM   36  O   UNL     1      -5.797  17.485  67.181  1.00  0.00    -0.119 OA 
ENDBRANCH  22  28
ENDBRANCH  18  20
ENDBRANCH  16  18
ENDBRANCH   7  16
TORSDOF 5
ENDMDL
MODEL      179
REMARK 921   NORMALIZED FREE ENERGY PREDICTED BY IDOCK:   -4.57 KCAL/MOL
REMARK 922        TOTAL FREE ENERGY PREDICTED BY IDOCK:   -7.21 KCAL/MOL
REMARK 923 INTER-LIGAND FREE ENERGY PREDICTED BY IDOCK:   -7.78 KCAL/MOL
REMARK 924 INTRA-LIGAND FREE ENERGY PREDICTED BY IDOCK:    0.56 KCAL/MOL
REMARK 927      BINDING AFFINITY PREDICTED BY RF-SCORE:    0.00 PKD
ROOT
HETATM    1  C   UNL     1     -10.738  20.011  67.081  1.00  0.00    -0.358 C  
HETATM    2  C   UNL     1     -10.304  18.678  66.596  1.00  0.00    -0.415 C  
HETATM    3  N   UNL     1     -11.036  17.762  66.030  1.00  0.00     0.079 NA 
HETATM    4  N   UNL     1     -10.184  16.681  65.725  1.00  0.00    -0.333 N  
HETATM    5  O   UNL     1      -7.839  16.216  65.995  1.00  0.00    -0.015 OA 
HETATM    6  C   UNL     1      -8.858  16.874  66.082  1.00  0.00    -0.244 C  
HETATM    7  C   UNL     1      -8.898  18.220  66.715  1.00  0.00    -0.276 C  
ENDROOT
BRANCH   4   8
HETATM    8  C   UNL     1     -10.732  15.513  65.144  1.00  0.00    -0.440 A  
HETATM    9  C   UNL     1     -11.959  15.552  64.479  1.00  0.00    -0.172 A  
HETATM   10  C   UNL     1     -12.493  14.410  63.882  1.00  0.00    -0.004 A  
HETATM   11  C   UNL     1     -10.055  14.287  65.207  1.00  0.00    -0.378 A  
HETATM   12  C   UNL     1      -9.775  11.854  64.720  1.00  0.00    -0.143 C  
HETATM   13  C   UNL     1     -10.579  13.122  64.612  1.00  0.00    -0.410 A  
HETATM   14  C   UNL     1     -11.812  13.187  63.937  1.00  0.00    -0.533 A  
HETATM   15  C   UNL     1     -12.440  11.991  63.279  1.00  0.00    -0.544 C  
ENDBRANCH   4   8
BRANCH   7  16
HETATM   16  N   UNL     1      -7.950  18.892  67.287  1.00  0.00    -0.245 NA 
HETATM   17  H   UNL     1      -7.411  19.595  66.781  1.00  0.00     0.000 HD 
BRANCH  16  18
HETATM   18  N   UNL     1      -7.709  18.611  68.601  1.00  0.00    -0.314 NA 
HETATM   19  H   UNL     1      -7.977  19.282  69.321  1.00  0.00     0.000 HD 
BRANCH  18  20
HETATM   20  C   UNL     1      -7.089  17.397  68.969  1.00  0.00    -0.233 A  
HETATM   21  C   UNL     1      -7.787  16.173  68.960  1.00  0.00    -0.227 A  
HETATM   22  C   UNL     1      -7.174  14.935  69.235  1.00  0.00    -0.172 A  
HETATM   23  O   UNL     1      -9.135  16.202  68.661  1.00  0.00    -0.198 OA 
HETATM   24  C   UNL     1      -5.748  17.378  69.358  1.00  0.00    -0.210 A  
HETATM   25  C   UNL     1      -5.835  14.969  69.653  1.00  0.00    -0.110 A  
HETATM   26  H   UNL     1      -9.605  15.377  68.656  1.00  0.00     0.000 HD 
HETATM   27  C   UNL     1      -5.131  16.177  69.719  1.00  0.00    -0.120 A  
BRANCH  22  28
HETATM   28  C   UNL     1      -7.865  13.656  68.966  1.00  0.00     0.130 A  
HETATM   29  C   UNL     1      -7.206  12.420  68.901  1.00  0.00    -0.061 A  
HETATM   30  C   UNL     1      -7.908  11.249  68.581  1.00  0.00    -0.139 A  
HETATM   31  C   UNL     1      -9.286  11.289  68.359  1.00  0.00    -0.178 A  
HETATM   32  C   UNL     1      -9.963  12.503  68.453  1.00  0.00    -0.212 A  
HETATM   33  C   UNL     1      -9.247  13.672  68.704  1.00  0.00    -0.045 A  
HETATM   34  C   UNL     1     -11.430  12.546  68.248  1.00  0.00    -0.308 C  
HETATM   35  O   UNL     1     -12.055  13.469  69.018  1.00  0.00    -0.341 OA 
HETATM   36  O   UNL     1     -12.015  11.802  67.490  1.00  0.00    -0.607 OA 
ENDBRANCH  22  28
ENDBRANCH  18  20
ENDBRANCH  16  18
ENDBRANCH   7  16
TORSDOF 5
ENDMDL
MODEL      180
REMARK 921   NORMALIZED FREE ENERGY PREDICTED BY IDOCK:   -4.52 KCAL/MOL
REMARK 922        TOTAL FREE ENERGY PREDICTED BY IDOCK:   -7.14 KCAL/MOL
REMARK 923 INTER-LIGAND FREE ENERGY PREDICTED BY IDOCK:   -6.90 KCAL/MOL
REMARK 924 INTRA-LIGAND FREE ENERGY PREDICTED BY IDOCK:   -0.24 KCAL/MOL
REMARK 927      BINDING AFFINITY PREDICTED BY RF-SCORE:    0.00 PKD
ROOT
HETATM    1  C   UNL     1     -13.110   8.909  71.506  1.00  0.00    -0.376 C  
HETATM    2  C   UNL     1     -11.742   8.393  71.258  1.00  0.00    -0.285 C  
HETATM    3  N   UNL     1     -10.986   7.721  72.077  1.00  0.00    -0.244 NA 
HETATM    4  N   UNL     1      -9.788   7.433  71.394  1.00  0.00    -0.184 N  
HETATM    5  O   UNL     1      -8.919   7.875  69.194  1.00  0.00    -0.144 OA 
HETATM    6  C   UNL     1      -9.737   7.910  70.092  1.00  0.00    -0.179 C  
HETATM    7  C   UNL     1     -11.046   8.606  69.965  1.00  0.00    -0.157 C  
ENDROOT
BRANCH   4   8
HETATM    8  C   UNL     1      -8.753   6.748  72.073  1.00  0.00    -0.126 A  
HETATM    9  C   UNL     1      -8.855   6.468  73.438  1.00  0.00    -0.134 A  
HETATM   10  C   UNL     1      -7.851   5.771  74.109  1.00  0.00    -0.102 A  
HETATM   11  C   UNL     1      -7.603   6.319  71.397  1.00  0.00    -0.098 A  
HETATM   12  C   UNL     1      -5.383   5.184  71.247  1.00  0.00    -0.005 C  
HETATM   13  C   UNL     1      -6.575   5.615  72.059  1.00  0.00    -0.058 A  
HETATM   14  C   UNL     1      -6.705   5.335  73.431  1.00  0.00    -0.074 A  
HETATM   15  C   UNL     1      -5.655   4.593  74.209  1.00  0.00    -0.017 C  
ENDBRANCH   4   8
BRANCH   7  16
HETATM   16  N   UNL     1     -11.524   9.290  68.974  1.00  0.00    -0.283 NA 
HETATM   17  H   UNL     1     -11.890   8.836  68.137  1.00  0.00     0.000 HD 
BRANCH  16  18
HETATM   18  N   UNL     1     -11.514  10.649  69.108  1.00  0.00    -0.306 NA 
HETATM   19  H   UNL     1     -12.246  11.111  69.646  1.00  0.00     0.000 HD 
BRANCH  18  20
HETATM   20  C   UNL     1     -10.494  11.417  68.504  1.00  0.00    -0.203 A  
HETATM   21  C   UNL     1     -10.785  12.524  67.683  1.00  0.00    -0.218 A  
HETATM   22  C   UNL     1      -9.790  13.362  67.141  1.00  0.00    -0.237 A  
HETATM   23  O   UNL     1     -12.111  12.793  67.408  1.00  0.00    -0.382 OA 
HETATM   24  C   UNL     1      -9.151  11.093  68.710  1.00  0.00    -0.144 A  
HETATM   25  C   UNL     1      -8.457  12.979  67.346  1.00  0.00    -0.200 A  
HETATM   26  H   UNL     1     -12.306  13.539  66.854  1.00  0.00     0.000 HD 
HETATM   27  C   UNL     1      -8.140  11.854  68.116  1.00  0.00    -0.155 A  
BRANCH  22  28
HETATM   28  C   UNL     1     -10.133  14.652  66.506  1.00  0.00    -0.286 A  
HETATM   29  C   UNL     1     -10.865  14.757  65.314  1.00  0.00    -0.395 A  
HETATM   30  C   UNL     1     -11.105  16.007  64.728  1.00  0.00    -0.378 A  
HETATM   31  C   UNL     1     -10.652  17.176  65.342  1.00  0.00    -0.116 A  
HETATM   32  C   UNL     1      -9.952  17.094  66.545  1.00  0.00    -0.308 A  
HETATM   33  C   UNL     1      -9.658  15.844  67.085  1.00  0.00    -0.224 A  
HETATM   34  C   UNL     1      -9.494  18.333  67.217  1.00  0.00    -0.264 C  
HETATM   35  O   UNL     1      -9.516  18.252  68.569  1.00  0.00    -0.310 OA 
HETATM   36  O   UNL     1      -9.165  19.331  66.612  1.00  0.00    -0.308 OA 
ENDBRANCH  22  28
ENDBRANCH  18  20
ENDBRANCH  16  18
ENDBRANCH   7  16
TORSDOF 5
ENDMDL
MODEL      181
REMARK 921   NORMALIZED FREE ENERGY PREDICTED BY IDOCK:   -4.50 KCAL/MOL
REMARK 922        TOTAL FREE ENERGY PREDICTED BY IDOCK:   -7.12 KCAL/MOL
REMARK 923 INTER-LIGAND FREE ENERGY PREDICTED BY IDOCK:   -6.57 KCAL/MOL
REMARK 924 INTRA-LIGAND FREE ENERGY PREDICTED BY IDOCK:   -0.55 KCAL/MOL
REMARK 927      BINDING AFFINITY PREDICTED BY RF-SCORE:    0.00 PKD
ROOT
HETATM    1  C   UNL     1      -7.299  11.830  66.923  1.00  0.00    -0.104 C  
HETATM    2  C   UNL     1      -8.690  12.046  67.393  1.00  0.00    -0.170 C  
HETATM    3  N   UNL     1      -9.083  12.748  68.416  1.00  0.00    -0.170 NA 
HETATM    4  N   UNL     1     -10.490  12.675  68.452  1.00  0.00    -0.234 N  
HETATM    5  O   UNL     1     -12.188  11.621  67.113  1.00  0.00    -0.365 OA 
HETATM    6  C   UNL     1     -11.054  11.921  67.435  1.00  0.00    -0.279 C  
HETATM    7  C   UNL     1      -9.853  11.440  66.700  1.00  0.00    -0.205 C  
ENDROOT
BRANCH   4   8
HETATM    8  C   UNL     1     -11.187  13.313  69.505  1.00  0.00    -0.097 A  
HETATM    9  C   UNL     1     -12.158  12.627  70.239  1.00  0.00    -0.372 A  
HETATM   10  C   UNL     1     -12.831  13.240  71.296  1.00  0.00    -0.398 A  
HETATM   11  C   UNL     1     -10.916  14.643  69.853  1.00  0.00    -0.194 A  
HETATM   12  C   UNL     1     -11.221  16.708  71.224  1.00  0.00     0.230 C  
HETATM   13  C   UNL     1     -11.588  15.281  70.916  1.00  0.00    -0.382 A  
HETATM   14  C   UNL     1     -12.554  14.567  71.649  1.00  0.00    -0.419 A  
HETATM   15  C   UNL     1     -13.316  15.174  72.792  1.00  0.00    -0.596 C  
ENDBRANCH   4   8
BRANCH   7  16
HETATM   16  N   UNL     1      -9.772  10.642  65.682  1.00  0.00    -0.215 NA 
HETATM   17  H   UNL     1      -9.592  10.992  64.741  1.00  0.00     0.000 HD 
BRANCH  16  18
HETATM   18  N   UNL     1      -9.939   9.311  65.934  1.00  0.00    -0.383 NA 
HETATM   19  H   UNL     1     -10.802   8.846  65.652  1.00  0.00     0.000 HD 
BRANCH  18  20
HETATM   20  C   UNL     1      -8.924   8.575  66.583  1.00  0.00    -0.148 A  
HETATM   21  C   UNL     1      -8.791   8.568  67.985  1.00  0.00    -0.142 A  
HETATM   22  C   UNL     1      -7.846   7.774  68.665  1.00  0.00    -0.120 A  
HETATM   23  O   UNL     1      -9.636   9.379  68.717  1.00  0.00    -0.150 OA 
HETATM   24  C   UNL     1      -8.012   7.823  65.839  1.00  0.00    -0.107 A  
HETATM   25  C   UNL     1      -6.931   7.062  67.876  1.00  0.00    -0.083 A  
HETATM   26  H   UNL     1      -9.545   9.375  69.662  1.00  0.00     0.000 HD 
HETATM   27  C   UNL     1      -7.008   7.091  66.479  1.00  0.00    -0.069 A  
BRANCH  22  28
HETATM   28  C   UNL     1      -7.904   7.594  70.131  1.00  0.00    -0.097 A  
HETATM   29  C   UNL     1      -6.769   7.588  70.955  1.00  0.00    -0.043 A  
HETATM   30  C   UNL     1      -6.883   7.351  72.332  1.00  0.00    -0.059 A  
HETATM   31  C   UNL     1      -8.137   7.154  72.914  1.00  0.00    -0.120 A  
HETATM   32  C   UNL     1      -9.279   7.191  72.117  1.00  0.00    -0.144 A  
HETATM   33  C   UNL     1      -9.151   7.358  70.740  1.00  0.00    -0.151 A  
HETATM   34  C   UNL     1     -10.615   7.013  72.734  1.00  0.00    -0.254 C  
HETATM   35  O   UNL     1     -11.587   7.740  72.133  1.00  0.00    -0.284 OA 
HETATM   36  O   UNL     1     -10.807   6.311  73.704  1.00  0.00    -0.242 OA 
ENDBRANCH  22  28
ENDBRANCH  18  20
ENDBRANCH  16  18
ENDBRANCH   7  16
TORSDOF 5
ENDMDL
MODEL      182
REMARK 921   NORMALIZED FREE ENERGY PREDICTED BY IDOCK:   -4.50 KCAL/MOL
REMARK 922        TOTAL FREE ENERGY PREDICTED BY IDOCK:   -7.11 KCAL/MOL
REMARK 923 INTER-LIGAND FREE ENERGY PREDICTED BY IDOCK:   -6.57 KCAL/MOL
REMARK 924 INTRA-LIGAND FREE ENERGY PREDICTED BY IDOCK:   -0.55 KCAL/MOL
REMARK 927      BINDING AFFINITY PREDICTED BY RF-SCORE:    0.00 PKD
ROOT
HETATM    1  C   UNL     1     -10.740   5.385  66.469  1.00  0.00    -0.309 C  
HETATM    2  C   UNL     1     -10.123   6.124  67.598  1.00  0.00    -0.155 C  
HETATM    3  N   UNL     1      -9.601   5.628  68.682  1.00  0.00    -0.125 NA 
HETATM    4  N   UNL     1      -9.125   6.712  69.446  1.00  0.00    -0.143 N  
HETATM    5  O   UNL     1      -9.064   9.103  69.180  1.00  0.00    -0.140 OA 
HETATM    6  C   UNL     1      -9.320   7.956  68.866  1.00  0.00    -0.150 C  
HETATM    7  C   UNL     1     -10.034   7.605  67.608  1.00  0.00    -0.175 C  
ENDROOT
BRANCH   4   8
HETATM    8  C   UNL     1      -8.549   6.463  70.714  1.00  0.00    -0.135 A  
HETATM    9  C   UNL     1      -7.819   5.296  70.952  1.00  0.00    -0.098 A  
HETATM   10  C   UNL     1      -7.226   5.055  72.192  1.00  0.00    -0.088 A  
HETATM   11  C   UNL     1      -8.681   7.383  71.763  1.00  0.00    -0.125 A  
HETATM   12  C   UNL     1      -8.278   8.207  74.086  1.00  0.00    -0.310 C  
HETATM   13  C   UNL     1      -8.092   7.156  73.024  1.00  0.00    -0.121 A  
HETATM   14  C   UNL     1      -7.351   5.979  73.237  1.00  0.00    -0.089 A  
HETATM   15  C   UNL     1      -6.695   5.662  74.551  1.00  0.00    -0.073 C  
ENDBRANCH   4   8
BRANCH   7  16
HETATM   16  N   UNL     1     -10.520   8.380  66.691  1.00  0.00    -0.349 NA 
HETATM   17  H   UNL     1     -11.465   8.254  66.328  1.00  0.00     0.000 HD 
BRANCH  16  18
HETATM   18  N   UNL     1      -9.703   9.374  66.235  1.00  0.00    -0.242 NA 
HETATM   19  H   UNL     1      -8.889   9.141  65.665  1.00  0.00     0.000 HD 
BRANCH  18  20
HETATM   20  C   UNL     1      -9.977  10.723  66.548  1.00  0.00    -0.213 A  
HETATM   21  C   UNL     1      -8.962  11.616  66.944  1.00  0.00    -0.191 A  
HETATM   22  C   UNL     1      -9.189  12.987  67.176  1.00  0.00    -0.226 A  
HETATM   23  O   UNL     1      -7.686  11.111  67.105  1.00  0.00    -0.122 OA 
HETATM   24  C   UNL     1     -11.282  11.213  66.472  1.00  0.00    -0.151 A  
HETATM   25  C   UNL     1     -10.520  13.427  67.121  1.00  0.00    -0.249 A  
HETATM   26  H   UNL     1      -7.002  11.713  67.373  1.00  0.00     0.000 HD 
HETATM   27  C   UNL     1     -11.556  12.550  66.779  1.00  0.00    -0.446 A  
BRANCH  22  28
HETATM   28  C   UNL     1      -8.069  13.937  67.336  1.00  0.00    -0.190 A  
HETATM   29  C   UNL     1      -6.805  13.569  67.820  1.00  0.00    -0.168 A  
HETATM   30  C   UNL     1      -5.801  14.529  68.007  1.00  0.00    -0.149 A  
HETATM   31  C   UNL     1      -6.030  15.866  67.675  1.00  0.00    -0.177 A  
HETATM   32  C   UNL     1      -7.268  16.245  67.160  1.00  0.00    -0.243 A  
HETATM   33  C   UNL     1      -8.283  15.297  67.043  1.00  0.00    -0.267 A  
HETATM   34  C   UNL     1      -7.507  17.657  66.778  1.00  0.00    -0.215 C  
HETATM   35  O   UNL     1      -8.324  17.795  65.707  1.00  0.00    -0.529 OA 
HETATM   36  O   UNL     1      -6.991  18.593  67.350  1.00  0.00    -0.203 OA 
ENDBRANCH  22  28
ENDBRANCH  18  20
ENDBRANCH  16  18
ENDBRANCH   7  16
TORSDOF 5
ENDMDL
MODEL      183
REMARK 921   NORMALIZED FREE ENERGY PREDICTED BY IDOCK:   -4.47 KCAL/MOL
REMARK 922        TOTAL FREE ENERGY PREDICTED BY IDOCK:   -7.08 KCAL/MOL
REMARK 923 INTER-LIGAND FREE ENERGY PREDICTED BY IDOCK:   -6.16 KCAL/MOL
REMARK 924 INTRA-LIGAND FREE ENERGY PREDICTED BY IDOCK:   -0.93 KCAL/MOL
REMARK 927      BINDING AFFINITY PREDICTED BY RF-SCORE:    0.00 PKD
ROOT
HETATM    1  C   UNL     1      -7.240  11.579  66.682  1.00  0.00    -0.068 C  
HETATM    2  C   UNL     1      -8.612  12.009  67.046  1.00  0.00    -0.185 C  
HETATM    3  N   UNL     1      -8.974  12.735  68.063  1.00  0.00    -0.190 NA 
HETATM    4  N   UNL     1     -10.371  12.898  67.981  1.00  0.00    -0.221 N  
HETATM    5  O   UNL     1     -12.094  12.184  66.461  1.00  0.00    -0.627 OA 
HETATM    6  C   UNL     1     -10.960  12.281  66.887  1.00  0.00    -0.267 C  
HETATM    7  C   UNL     1      -9.794  11.628  66.233  1.00  0.00    -0.219 C  
ENDROOT
BRANCH   4   8
HETATM    8  C   UNL     1     -11.045  13.610  69.001  1.00  0.00    -0.255 A  
HETATM    9  C   UNL     1     -10.950  15.001  69.087  1.00  0.00    -0.265 A  
HETATM   10  C   UNL     1     -11.631  15.712  70.074  1.00  0.00    -0.360 A  
HETATM   11  C   UNL     1     -11.837  12.945  69.946  1.00  0.00    -0.373 A  
HETATM   12  C   UNL     1     -13.369  12.847  71.917  1.00  0.00    -0.530 C  
HETATM   13  C   UNL     1     -12.532  13.646  70.954  1.00  0.00    -0.448 A  
HETATM   14  C   UNL     1     -12.431  15.048  71.013  1.00  0.00    -0.402 A  
HETATM   15  C   UNL     1     -13.137  15.868  72.056  1.00  0.00    -0.419 C  
ENDBRANCH   4   8
BRANCH   7  16
HETATM   16  N   UNL     1      -9.755  10.860  65.190  1.00  0.00    -0.242 NA 
HETATM   17  H   UNL     1      -9.386  11.187  64.297  1.00  0.00     0.000 HD 
BRANCH  16  18
HETATM   18  N   UNL     1     -10.234   9.592  65.348  1.00  0.00    -0.220 NA 
HETATM   19  H   UNL     1     -11.185   9.369  65.056  1.00  0.00     0.000 HD 
BRANCH  18  20
HETATM   20  C   UNL     1      -9.418   8.586  65.912  1.00  0.00    -0.137 A  
HETATM   21  C   UNL     1      -8.708   7.669  65.113  1.00  0.00     0.110 A  
HETATM   22  C   UNL     1      -7.818   6.714  65.643  1.00  0.00    -0.105 A  
HETATM   23  O   UNL     1      -8.898   7.723  63.746  1.00  0.00    -0.122 OA 
HETATM   24  C   UNL     1      -9.295   8.474  67.299  1.00  0.00    -0.184 A  
HETATM   25  C   UNL     1      -7.751   6.616  67.041  1.00  0.00    -0.103 A  
HETATM   26  H   UNL     1      -8.419   7.104  63.208  1.00  0.00     0.000 HD 
HETATM   27  C   UNL     1      -8.485   7.482  67.860  1.00  0.00    -0.122 A  
BRANCH  22  28
HETATM   28  C   UNL     1      -6.901   5.949  64.772  1.00  0.00    -0.047 A  
HETATM   29  C   UNL     1      -6.147   6.530  63.742  1.00  0.00    -0.034 A  
HETATM   30  C   UNL     1      -5.342   5.742  62.910  1.00  0.00    -0.014 A  
HETATM   31  C   UNL     1      -5.245   4.364  63.117  1.00  0.00    -0.009 A  
HETATM   32  C   UNL     1      -5.960   3.773  64.157  1.00  0.00    -0.014 A  
HETATM   33  C   UNL     1      -6.812   4.554  64.936  1.00  0.00    -0.049 A  
HETATM   34  C   UNL     1      -5.839   2.317  64.401  1.00  0.00    -0.013 C  
HETATM   35  O   UNL     1      -5.916   1.981  65.711  1.00  0.00    -0.020 OA 
HETATM   36  O   UNL     1      -5.652   1.511  63.514  1.00  0.00    -0.004 OA 
ENDBRANCH  22  28
ENDBRANCH  18  20
ENDBRANCH  16  18
ENDBRANCH   7  16
TORSDOF 5
ENDMDL
MODEL      184
REMARK 921   NORMALIZED FREE ENERGY PREDICTED BY IDOCK:   -4.47 KCAL/MOL
REMARK 922        TOTAL FREE ENERGY PREDICTED BY IDOCK:   -7.07 KCAL/MOL
REMARK 923 INTER-LIGAND FREE ENERGY PREDICTED BY IDOCK:   -6.65 KCAL/MOL
REMARK 924 INTRA-LIGAND FREE ENERGY PREDICTED BY IDOCK:   -0.43 KCAL/MOL
REMARK 927      BINDING AFFINITY PREDICTED BY RF-SCORE:    0.00 PKD
ROOT
HETATM    1  C   UNL     1      -5.793  10.208  66.119  1.00  0.00    -0.067 C  
HETATM    2  C   UNL     1      -7.092  10.915  66.232  1.00  0.00    -0.119 C  
HETATM    3  N   UNL     1      -7.380  11.932  66.991  1.00  0.00    -0.139 NA 
HETATM    4  N   UNL     1      -8.725  12.268  66.741  1.00  0.00    -0.196 N  
HETATM    5  O   UNL     1     -10.463  11.432  65.302  1.00  0.00    -0.265 OA 
HETATM    6  C   UNL     1      -9.352  11.473  65.793  1.00  0.00    -0.221 C  
HETATM    7  C   UNL     1      -8.277  10.506  65.439  1.00  0.00    -0.152 C  
ENDROOT
BRANCH   4   8
HETATM    8  C   UNL     1      -9.323  13.317  67.478  1.00  0.00    -0.218 A  
HETATM    9  C   UNL     1     -10.626  13.197  67.968  1.00  0.00    -0.246 A  
HETATM   10  C   UNL     1     -11.213  14.216  68.717  1.00  0.00    -0.294 A  
HETATM   11  C   UNL     1      -8.624  14.501  67.750  1.00  0.00    -0.176 A  
HETATM   12  C   UNL     1      -8.369  16.773  68.756  1.00  0.00    -0.248 C  
HETATM   13  C   UNL     1      -9.201  15.544  68.504  1.00  0.00    -0.197 A  
HETATM   14  C   UNL     1     -10.511  15.396  68.996  1.00  0.00    -0.249 A  
HETATM   15  C   UNL     1     -11.198  16.460  69.804  1.00  0.00    -0.252 C  
ENDBRANCH   4   8
BRANCH   7  16
HETATM   16  N   UNL     1      -8.313   9.490  64.636  1.00  0.00    -0.146 NA 
HETATM   17  H   UNL     1      -8.012   9.564  63.664  1.00  0.00     0.000 HD 
BRANCH  16  18
HETATM   18  N   UNL     1      -8.773   8.315  65.157  1.00  0.00    -0.365 NA 
HETATM   19  H   UNL     1      -9.350   7.698  64.586  1.00  0.00     0.000 HD 
BRANCH  18  20
HETATM   20  C   UNL     1      -8.454   7.950  66.483  1.00  0.00    -0.134 A  
HETATM   21  C   UNL     1      -9.294   8.276  67.567  1.00  0.00    -0.140 A  
HETATM   22  C   UNL     1      -9.049   7.849  68.886  1.00  0.00    -0.141 A  
HETATM   23  O   UNL     1     -10.410   9.047  67.308  1.00  0.00    -0.237 OA 
HETATM   24  C   UNL     1      -7.280   7.246  66.758  1.00  0.00    -0.083 A  
HETATM   25  C   UNL     1      -7.841   7.174  69.121  1.00  0.00    -0.118 A  
HETATM   26  H   UNL     1     -10.975   9.267  68.038  1.00  0.00     0.000 HD 
HETATM   27  C   UNL     1      -6.964   6.880  68.071  1.00  0.00    -0.083 A  
BRANCH  22  28
HETATM   28  C   UNL     1     -10.073   7.985  69.943  1.00  0.00    -0.198 A  
HETATM   29  C   UNL     1     -10.432   6.943  70.811  1.00  0.00    -0.238 A  
HETATM   30  C   UNL     1     -11.455   7.115  71.753  1.00  0.00    -0.301 A  
HETATM   31  C   UNL     1     -12.110   8.343  71.870  1.00  0.00    -0.398 A  
HETATM   32  C   UNL     1     -11.743   9.400  71.040  1.00  0.00    -0.395 A  
HETATM   33  C   UNL     1     -10.773   9.200  70.060  1.00  0.00    -0.254 A  
HETATM   34  C   UNL     1     -12.414  10.714  71.180  1.00  0.00    -0.418 C  
HETATM   35  O   UNL     1     -11.597  11.765  70.933  1.00  0.00     0.191 OA 
HETATM   36  O   UNL     1     -13.573  10.833  71.517  1.00  0.00    -0.149 OA 
ENDBRANCH  22  28
ENDBRANCH  18  20
ENDBRANCH  16  18
ENDBRANCH   7  16
TORSDOF 5
ENDMDL
MODEL      185
REMARK 921   NORMALIZED FREE ENERGY PREDICTED BY IDOCK:   -4.44 KCAL/MOL
REMARK 922        TOTAL FREE ENERGY PREDICTED BY IDOCK:   -7.04 KCAL/MOL
REMARK 923 INTER-LIGAND FREE ENERGY PREDICTED BY IDOCK:   -5.86 KCAL/MOL
REMARK 924 INTRA-LIGAND FREE ENERGY PREDICTED BY IDOCK:   -1.18 KCAL/MOL
REMARK 927      BINDING AFFINITY PREDICTED BY RF-SCORE:    0.00 PKD
ROOT
HETATM    1  C   UNL     1      -6.607  10.241  66.819  1.00  0.00    -0.075 C  
HETATM    2  C   UNL     1      -6.859   8.783  66.915  1.00  0.00    -0.070 C  
HETATM    3  N   UNL     1      -6.951   7.926  65.939  1.00  0.00    -0.057 NA 
HETATM    4  N   UNL     1      -7.174   6.661  66.517  1.00  0.00    -0.071 N  
HETATM    5  O   UNL     1      -7.388   5.813  68.758  1.00  0.00    -0.079 OA 
HETATM    6  C   UNL     1      -7.225   6.661  67.903  1.00  0.00    -0.091 C  
HETATM    7  C   UNL     1      -7.047   8.104  68.221  1.00  0.00    -0.081 C  
ENDROOT
BRANCH   4   8
HETATM    8  C   UNL     1      -7.367   5.541  65.674  1.00  0.00    -0.073 A  
HETATM    9  C   UNL     1      -6.299   4.707  65.336  1.00  0.00    -0.035 A  
HETATM   10  C   UNL     1      -6.486   3.586  64.527  1.00  0.00    -0.035 A  
HETATM   11  C   UNL     1      -8.635   5.227  65.166  1.00  0.00    -0.151 A  
HETATM   12  C   UNL     1     -10.243   3.837  63.855  1.00  0.00    -0.225 C  
HETATM   13  C   UNL     1      -8.844   4.100  64.344  1.00  0.00    -0.138 A  
HETATM   14  C   UNL     1      -7.755   3.268  64.026  1.00  0.00    -0.076 A  
HETATM   15  C   UNL     1      -7.893   2.051  63.155  1.00  0.00    -0.056 C  
ENDBRANCH   4   8
BRANCH   7  16
HETATM   16  N   UNL     1      -7.066   8.705  69.368  1.00  0.00    -0.053 NA 
HETATM   17  H   UNL     1      -6.443   9.487  69.574  1.00  0.00     0.000 HD 
BRANCH  16  18
HETATM   18  N   UNL     1      -7.961   8.239  70.287  1.00  0.00    -0.099 NA 
HETATM   19  H   UNL     1      -7.684   7.507  70.940  1.00  0.00     0.000 HD 
BRANCH  18  20
HETATM   20  C   UNL     1      -9.270   8.766  70.338  1.00  0.00    -0.180 A  
HETATM   21  C   UNL     1      -9.574  10.053  69.852  1.00  0.00    -0.192 A  
HETATM   22  C   UNL     1     -10.884  10.570  69.807  1.00  0.00    -0.335 A  
HETATM   23  O   UNL     1      -8.529  10.832  69.395  1.00  0.00    -0.340 OA 
HETATM   24  C   UNL     1     -10.313   8.012  70.881  1.00  0.00    -0.221 A  
HETATM   25  C   UNL     1     -11.893   9.792  70.393  1.00  0.00    -0.264 A  
HETATM   26  H   UNL     1      -8.734  11.700  69.068  1.00  0.00     0.000 HD 
HETATM   27  C   UNL     1     -11.611   8.531  70.930  1.00  0.00    -0.295 A  
BRANCH  22  28
HETATM   28  C   UNL     1     -11.199  11.806  69.060  1.00  0.00    -0.324 A  
HETATM   29  C   UNL     1     -11.671  11.812  67.739  1.00  0.00    -0.337 A  
HETATM   30  C   UNL     1     -11.894  13.018  67.062  1.00  0.00    -0.437 A  
HETATM   31  C   UNL     1     -11.685  14.240  67.707  1.00  0.00    -0.408 A  
HETATM   32  C   UNL     1     -11.249  14.254  69.030  1.00  0.00    -0.294 A  
HETATM   33  C   UNL     1     -10.964  13.050  69.672  1.00  0.00     0.140 A  
HETATM   34  C   UNL     1     -11.054  15.546  69.729  1.00  0.00    -0.296 C  
HETATM   35  O   UNL     1     -11.353  15.496  71.049  1.00  0.00    -0.320 OA 
HETATM   36  O   UNL     1     -10.697  16.557  69.162  1.00  0.00    -0.295 OA 
ENDBRANCH  22  28
ENDBRANCH  18  20
ENDBRANCH  16  18
ENDBRANCH   7  16
TORSDOF 5
ENDMDL
MODEL      186
REMARK 921   NORMALIZED FREE ENERGY PREDICTED BY IDOCK:   -4.43 KCAL/MOL
REMARK 922        TOTAL FREE ENERGY PREDICTED BY IDOCK:   -7.02 KCAL/MOL
REMARK 923 INTER-LIGAND FREE ENERGY PREDICTED BY IDOCK:   -5.65 KCAL/MOL
REMARK 924 INTRA-LIGAND FREE ENERGY PREDICTED BY IDOCK:   -1.37 KCAL/MOL
REMARK 927      BINDING AFFINITY PREDICTED BY RF-SCORE:    0.00 PKD
ROOT
HETATM    1  C   UNL     1     -10.869  12.717  63.712  1.00  0.00    -0.416 C  
HETATM    2  C   UNL     1     -10.206  13.000  65.009  1.00  0.00    -0.269 C  
HETATM    3  N   UNL     1      -9.695  14.128  65.410  1.00  0.00    -0.179 NA 
HETATM    4  N   UNL     1      -9.200  13.919  66.712  1.00  0.00    -0.260 N  
HETATM    5  O   UNL     1      -9.122  12.060  68.239  1.00  0.00    -0.188 OA 
HETATM    6  C   UNL     1      -9.387  12.634  67.200  1.00  0.00    -0.210 C  
HETATM    7  C   UNL     1     -10.045  11.957  66.050  1.00  0.00    -0.231 C  
ENDROOT
BRANCH   4   8
HETATM    8  C   UNL     1      -8.537  14.977  67.377  1.00  0.00    -0.192 A  
HETATM    9  C   UNL     1      -9.116  16.244  67.462  1.00  0.00    -0.196 A  
HETATM   10  C   UNL     1      -8.480  17.286  68.138  1.00  0.00    -0.238 A  
HETATM   11  C   UNL     1      -7.287  14.781  67.982  1.00  0.00    -0.140 A  
HETATM   12  C   UNL     1      -5.295  15.515  69.297  1.00  0.00    -0.097 C  
HETATM   13  C   UNL     1      -6.627  15.822  68.668  1.00  0.00    -0.116 A  
HETATM   14  C   UNL     1      -7.235  17.088  68.750  1.00  0.00    -0.226 A  
HETATM   15  C   UNL     1      -6.598  18.249  69.459  1.00  0.00    -0.165 C  
ENDBRANCH   4   8
BRANCH   7  16
HETATM   16  N   UNL     1     -10.405  10.719  65.916  1.00  0.00    -0.254 NA 
HETATM   17  H   UNL     1     -11.361  10.416  66.099  1.00  0.00     0.000 HD 
BRANCH  16  18
HETATM   18  N   UNL     1      -9.437   9.842  65.518  1.00  0.00    -0.231 NA 
HETATM   19  H   UNL     1      -9.355   9.591  64.534  1.00  0.00     0.000 HD 
BRANCH  18  20
HETATM   20  C   UNL     1      -8.551   9.281  66.463  1.00  0.00    -0.130 A  
HETATM   21  C   UNL     1      -8.993   8.391  67.462  1.00  0.00    -0.135 A  
HETATM   22  C   UNL     1      -8.121   7.747  68.361  1.00  0.00    -0.124 A  
HETATM   23  O   UNL     1     -10.349   8.145  67.550  1.00  0.00    -0.224 OA 
HETATM   24  C   UNL     1      -7.191   9.599  66.431  1.00  0.00    -0.094 A  
HETATM   25  C   UNL     1      -6.770   8.122  68.313  1.00  0.00    -0.064 A  
HETATM   26  H   UNL     1     -10.647   7.545  68.224  1.00  0.00     0.000 HD 
HETATM   27  C   UNL     1      -6.310   9.041  67.363  1.00  0.00    -0.060 A  
BRANCH  22  28
HETATM   28  C   UNL     1      -8.582   6.633  69.217  1.00  0.00    -0.131 A  
HETATM   29  C   UNL     1      -9.081   6.812  70.515  1.00  0.00    -0.156 A  
HETATM   30  C   UNL     1      -9.445   5.710  71.302  1.00  0.00    -0.179 A  
HETATM   31  C   UNL     1      -9.353   4.415  70.790  1.00  0.00    -0.224 A  
HETATM   32  C   UNL     1      -8.892   4.220  69.489  1.00  0.00    -0.138 A  
HETATM   33  C   UNL     1      -8.467   5.315  68.740  1.00  0.00    -0.092 A  
HETATM   34  C   UNL     1      -8.820   2.849  68.930  1.00  0.00    -0.103 C  
HETATM   35  O   UNL     1      -9.082   2.794  67.602  1.00  0.00    -0.147 OA 
HETATM   36  O   UNL     1      -8.584   1.870  69.606  1.00  0.00    -0.046 OA 
ENDBRANCH  22  28
ENDBRANCH  18  20
ENDBRANCH  16  18
ENDBRANCH   7  16
TORSDOF 5
ENDMDL
MODEL      187
REMARK 921   NORMALIZED FREE ENERGY PREDICTED BY IDOCK:   -4.41 KCAL/MOL
REMARK 922        TOTAL FREE ENERGY PREDICTED BY IDOCK:   -7.00 KCAL/MOL
REMARK 923 INTER-LIGAND FREE ENERGY PREDICTED BY IDOCK:   -6.15 KCAL/MOL
REMARK 924 INTRA-LIGAND FREE ENERGY PREDICTED BY IDOCK:   -0.85 KCAL/MOL
REMARK 927      BINDING AFFINITY PREDICTED BY RF-SCORE:    0.00 PKD
ROOT
HETATM    1  C   UNL     1     -10.385  11.775  67.870  1.00  0.00    -0.209 C  
HETATM    2  C   UNL     1      -9.539  10.557  67.906  1.00  0.00    -0.150 C  
HETATM    3  N   UNL     1      -9.934   9.317  67.928  1.00  0.00    -0.178 NA 
HETATM    4  N   UNL     1      -8.777   8.513  67.938  1.00  0.00    -0.137 N  
HETATM    5  O   UNL     1      -6.406   8.921  67.906  1.00  0.00    -0.055 OA 
HETATM    6  C   UNL     1      -7.584   9.221  67.912  1.00  0.00    -0.084 C  
HETATM    7  C   UNL     1      -8.058  10.631  67.924  1.00  0.00    -0.111 C  
ENDROOT
BRANCH   4   8
HETATM    8  C   UNL     1      -8.912   7.107  68.015  1.00  0.00    -0.127 A  
HETATM    9  C   UNL     1      -9.772   6.521  68.947  1.00  0.00    -0.134 A  
HETATM   10  C   UNL     1      -9.931   5.137  69.012  1.00  0.00    -0.265 A  
HETATM   11  C   UNL     1      -8.201   6.262  67.152  1.00  0.00    -0.109 A  
HETATM   12  C   UNL     1      -7.550   4.035  66.230  1.00  0.00    -0.089 C  
HETATM   13  C   UNL     1      -8.346   4.860  67.205  1.00  0.00    -0.106 A  
HETATM   14  C   UNL     1      -9.226   4.293  68.144  1.00  0.00    -0.186 A  
HETATM   15  C   UNL     1      -9.435   2.810  68.265  1.00  0.00    -0.216 C  
ENDBRANCH   4   8
BRANCH   7  16
HETATM   16  N   UNL     1      -7.375  11.731  67.965  1.00  0.00    -0.085 NA 
HETATM   17  H   UNL     1      -6.859  12.072  67.154  1.00  0.00     0.000 HD 
BRANCH  16  18
HETATM   18  N   UNL     1      -7.382  12.410  69.150  1.00  0.00    -0.319 NA 
HETATM   19  H   UNL     1      -7.865  12.017  69.957  1.00  0.00     0.000 HD 
BRANCH  18  20
HETATM   20  C   UNL     1      -6.725  13.655  69.262  1.00  0.00    -0.094 A  
HETATM   21  C   UNL     1      -6.792  14.627  68.244  1.00  0.00    -0.116 A  
HETATM   22  C   UNL     1      -6.223  15.910  68.365  1.00  0.00    -0.107 A  
HETATM   23  O   UNL     1      -7.455  14.294  67.079  1.00  0.00    -0.312 OA 
HETATM   24  C   UNL     1      -5.979  13.959  70.403  1.00  0.00    -0.160 A  
HETATM   25  C   UNL     1      -5.456  16.158  69.513  1.00  0.00    -0.124 A  
HETATM   26  H   UNL     1      -7.500  14.949  66.393  1.00  0.00     0.000 HD 
HETATM   27  C   UNL     1      -5.330  15.192  70.518  1.00  0.00    -0.133 A  
BRANCH  22  28
HETATM   28  C   UNL     1      -6.531  16.983  67.397  1.00  0.00    -0.177 A  
HETATM   29  C   UNL     1      -5.577  17.544  66.535  1.00  0.00    -0.232 A  
HETATM   30  C   UNL     1      -5.916  18.603  65.682  1.00  0.00    -0.250 A  
HETATM   31  C   UNL     1      -7.223  19.093  65.648  1.00  0.00    -0.222 A  
HETATM   32  C   UNL     1      -8.192  18.526  66.472  1.00  0.00    -0.299 A  
HETATM   33  C   UNL     1      -7.831  17.521  67.366  1.00  0.00    -0.217 A  
HETATM   34  C   UNL     1      -9.588  19.022  66.419  1.00  0.00    -0.353 C  
HETATM   35  O   UNL     1     -10.512  18.054  66.626  1.00  0.00    -0.357 OA 
HETATM   36  O   UNL     1      -9.871  20.177  66.178  1.00  0.00    -0.436 OA 
ENDBRANCH  22  28
ENDBRANCH  18  20
ENDBRANCH  16  18
ENDBRANCH   7  16
TORSDOF 5
ENDMDL
MODEL      188
REMARK 921   NORMALIZED FREE ENERGY PREDICTED BY IDOCK:   -4.33 KCAL/MOL
REMARK 922        TOTAL FREE ENERGY PREDICTED BY IDOCK:   -6.90 KCAL/MOL
REMARK 923 INTER-LIGAND FREE ENERGY PREDICTED BY IDOCK:   -5.30 KCAL/MOL
REMARK 924 INTRA-LIGAND FREE ENERGY PREDICTED BY IDOCK:   -1.60 KCAL/MOL
REMARK 927      BINDING AFFINITY PREDICTED BY RF-SCORE:    0.00 PKD
ROOT
HETATM    1  C   UNL     1      -9.848  10.626  65.363  1.00  0.00    -0.325 C  
HETATM    2  C   UNL     1      -8.945   9.587  65.915  1.00  0.00    -0.173 C  
HETATM    3  N   UNL     1      -8.896   8.326  65.596  1.00  0.00    -0.158 NA 
HETATM    4  N   UNL     1      -7.870   7.743  66.366  1.00  0.00    -0.092 N  
HETATM    5  O   UNL     1      -6.300   8.533  68.010  1.00  0.00    -0.054 OA 
HETATM    6  C   UNL     1      -7.212   8.624  67.211  1.00  0.00    -0.080 C  
HETATM    7  C   UNL     1      -7.939   9.898  66.960  1.00  0.00    -0.109 C  
ENDROOT
BRANCH   4   8
HETATM    8  C   UNL     1      -7.630   6.353  66.258  1.00  0.00    -0.090 A  
HETATM    9  C   UNL     1      -7.695   5.709  65.021  1.00  0.00    -0.094 A  
HETATM   10  C   UNL     1      -7.434   4.344  64.902  1.00  0.00    -0.073 A  
HETATM   11  C   UNL     1      -7.308   5.584  67.385  1.00  0.00    -0.076 A  
HETATM   12  C   UNL     1      -6.693   3.462  68.549  1.00  0.00    -0.045 C  
HETATM   13  C   UNL     1      -7.043   4.202  67.286  1.00  0.00    -0.067 A  
HETATM   14  C   UNL     1      -7.103   3.577  66.027  1.00  0.00    -0.063 A  
HETATM   15  C   UNL     1      -6.838   2.111  65.837  1.00  0.00    -0.039 C  
ENDBRANCH   4   8
BRANCH   7  16
HETATM   16  N   UNL     1      -7.790  11.058  67.518  1.00  0.00    -0.113 NA 
HETATM   17  H   UNL     1      -7.440  11.862  66.997  1.00  0.00     0.000 HD 
BRANCH  16  18
HETATM   18  N   UNL     1      -8.124  11.148  68.838  1.00  0.00    -0.235 NA 
HETATM   19  H   UNL     1      -7.522  11.663  69.480  1.00  0.00     0.000 HD 
BRANCH  18  20
HETATM   20  C   UNL     1      -9.300  10.532  69.320  1.00  0.00    -0.160 A  
HETATM   21  C   UNL     1      -9.258   9.358  70.098  1.00  0.00    -0.234 A  
HETATM   22  C   UNL     1     -10.406   8.771  70.668  1.00  0.00    -0.253 A  
HETATM   23  O   UNL     1      -8.028   8.768  70.310  1.00  0.00    -0.089 OA 
HETATM   24  C   UNL     1     -10.552  11.079  69.032  1.00  0.00    -0.258 A  
HETATM   25  C   UNL     1     -11.643   9.335  70.324  1.00  0.00    -0.151 A  
HETATM   26  H   UNL     1      -8.001   7.976  70.834  1.00  0.00     0.000 HD 
HETATM   27  C   UNL     1     -11.717  10.472  69.511  1.00  0.00    -0.313 A  
BRANCH  22  28
HETATM   28  C   UNL     1     -10.301   7.701  71.682  1.00  0.00    -0.221 A  
HETATM   29  C   UNL     1     -10.546   7.904  73.048  1.00  0.00    -0.406 A  
HETATM   30  C   UNL     1     -10.370   6.864  73.971  1.00  0.00    -0.355 A  
HETATM   31  C   UNL     1      -9.984   5.594  73.539  1.00  0.00    -0.185 A  
HETATM   32  C   UNL     1      -9.770   5.364  72.182  1.00  0.00    -0.196 A  
HETATM   33  C   UNL     1      -9.880   6.420  71.280  1.00  0.00    -0.200 A  
HETATM   34  C   UNL     1      -9.389   4.010  71.714  1.00  0.00    -0.132 C  
HETATM   35  O   UNL     1      -9.894   3.698  70.497  1.00  0.00    -0.176 OA 
HETATM   36  O   UNL     1      -8.720   3.245  72.376  1.00  0.00    -0.082 OA 
ENDBRANCH  22  28
ENDBRANCH  18  20
ENDBRANCH  16  18
ENDBRANCH   7  16
TORSDOF 5
ENDMDL
MODEL      189
REMARK 921   NORMALIZED FREE ENERGY PREDICTED BY IDOCK:   -4.26 KCAL/MOL
REMARK 922        TOTAL FREE ENERGY PREDICTED BY IDOCK:   -6.81 KCAL/MOL
REMARK 923 INTER-LIGAND FREE ENERGY PREDICTED BY IDOCK:   -5.56 KCAL/MOL
REMARK 924 INTRA-LIGAND FREE ENERGY PREDICTED BY IDOCK:   -1.25 KCAL/MOL
REMARK 927      BINDING AFFINITY PREDICTED BY RF-SCORE:    0.00 PKD
ROOT
HETATM    1  C   UNL     1      -7.612   8.626  70.776  1.00  0.00    -0.083 C  
HETATM    2  C   UNL     1      -8.638   8.688  69.707  1.00  0.00    -0.131 C  
HETATM    3  N   UNL     1      -8.839   9.650  68.854  1.00  0.00    -0.131 NA 
HETATM    4  N   UNL     1      -9.906   9.251  68.023  1.00  0.00    -0.157 N  
HETATM    5  O   UNL     1     -11.314   7.308  67.854  1.00  0.00     0.129 OA 
HETATM    6  C   UNL     1     -10.426   7.999  68.314  1.00  0.00    -0.161 C  
HETATM    7  C   UNL     1      -9.608   7.587  69.487  1.00  0.00    -0.156 C  
ENDROOT
BRANCH   4   8
HETATM    8  C   UNL     1     -10.375  10.140  67.028  1.00  0.00    -0.244 A  
HETATM    9  C   UNL     1     -11.200  11.218  67.361  1.00  0.00    -0.370 A  
HETATM   10  C   UNL     1     -11.646  12.113  66.389  1.00  0.00    -0.429 A  
HETATM   11  C   UNL     1     -10.017   9.975  65.683  1.00  0.00    -0.355 A  
HETATM   12  C   UNL     1     -10.014  10.618  63.269  1.00  0.00    -0.314 C  
HETATM   13  C   UNL     1     -10.460  10.869  64.685  1.00  0.00    -0.384 A  
HETATM   14  C   UNL     1     -11.281  11.953  65.046  1.00  0.00    -0.350 A  
HETATM   15  C   UNL     1     -11.796  12.947  64.044  1.00  0.00    -0.512 C  
ENDBRANCH   4   8
BRANCH   7  16
HETATM   16  N   UNL     1      -9.690   6.520  70.217  1.00  0.00    -0.168 NA 
HETATM   17  H   UNL     1      -9.217   6.449  71.118  1.00  0.00     0.000 HD 
BRANCH  16  18
HETATM   18  N   UNL     1     -10.444   5.496  69.719  1.00  0.00    -0.297 NA 
HETATM   19  H   UNL     1     -11.458   5.587  69.675  1.00  0.00     0.000 HD 
BRANCH  18  20
HETATM   20  C   UNL     1      -9.825   4.310  69.266  1.00  0.00    -0.110 A  
HETATM   21  C   UNL     1      -9.442   4.139  67.921  1.00  0.00    -0.167 A  
HETATM   22  C   UNL     1      -8.744   3.006  67.457  1.00  0.00    -0.139 A  
HETATM   23  O   UNL     1      -9.768   5.138  67.025  1.00  0.00    -0.136 OA 
HETATM   24  C   UNL     1      -9.574   3.262  70.153  1.00  0.00    -0.191 A  
HETATM   25  C   UNL     1      -8.543   1.965  68.376  1.00  0.00    -0.095 A  
HETATM   26  H   UNL     1      -9.510   5.022  66.119  1.00  0.00     0.000 HD 
HETATM   27  C   UNL     1      -8.959   2.088  69.707  1.00  0.00    -0.145 A  
BRANCH  22  28
HETATM   28  C   UNL     1      -8.134   2.975  66.111  1.00  0.00    -0.086 A  
HETATM   29  C   UNL     1      -8.130   1.837  65.291  1.00  0.00    -0.075 A  
HETATM   30  C   UNL     1      -7.482   1.851  64.049  1.00  0.00    -0.058 A  
HETATM   31  C   UNL     1      -6.860   3.013  63.588  1.00  0.00    -0.039 A  
HETATM   32  C   UNL     1      -6.884   4.164  64.374  1.00  0.00    -0.045 A  
HETATM   33  C   UNL     1      -7.471   4.121  65.637  1.00  0.00    -0.081 A  
HETATM   34  C   UNL     1      -6.252   5.409  63.877  1.00  0.00    -0.022 C  
HETATM   35  O   UNL     1      -6.898   6.534  64.268  1.00  0.00    -0.040 OA 
HETATM   36  O   UNL     1      -5.273   5.415  63.162  1.00  0.00    -0.012 OA 
ENDBRANCH  22  28
ENDBRANCH  18  20
ENDBRANCH  16  18
ENDBRANCH   7  16
TORSDOF 5
ENDMDL
MODEL      190
REMARK 921   NORMALIZED FREE ENERGY PREDICTED BY IDOCK:   -4.25 KCAL/MOL
REMARK 922        TOTAL FREE ENERGY PREDICTED BY IDOCK:   -6.79 KCAL/MOL
REMARK 923 INTER-LIGAND FREE ENERGY PREDICTED BY IDOCK:   -7.53 KCAL/MOL
REMARK 924 INTRA-LIGAND FREE ENERGY PREDICTED BY IDOCK:    0.74 KCAL/MOL
REMARK 927      BINDING AFFINITY PREDICTED BY RF-SCORE:    0.00 PKD
ROOT
HETATM    1  C   UNL     1     -11.492  19.668  65.152  1.00  0.00     1.523 C  
HETATM    2  C   UNL     1     -10.609  18.665  65.796  1.00  0.00    -0.249 C  
HETATM    3  N   UNL     1      -9.775  18.854  66.778  1.00  0.00    -0.312 NA 
HETATM    4  N   UNL     1      -9.179  17.609  67.060  1.00  0.00    -0.244 N  
HETATM    5  O   UNL     1      -9.375  15.376  66.187  1.00  0.00    -0.288 OA 
HETATM    6  C   UNL     1      -9.622  16.563  66.265  1.00  0.00    -0.306 C  
HETATM    7  C   UNL     1     -10.582  17.248  65.357  1.00  0.00    -0.072 C  
ENDROOT
BRANCH   4   8
HETATM    8  C   UNL     1      -8.181  17.533  68.061  1.00  0.00    -0.239 A  
HETATM    9  C   UNL     1      -7.693  18.688  68.675  1.00  0.00    -0.344 A  
HETATM   10  C   UNL     1      -6.728  18.620  69.680  1.00  0.00    -0.089 A  
HETATM   11  C   UNL     1      -7.665  16.298  68.476  1.00  0.00    -0.189 A  
HETATM   12  C   UNL     1      -6.201  14.837  69.876  1.00  0.00    -0.150 C  
HETATM   13  C   UNL     1      -6.687  16.208  69.489  1.00  0.00    -0.195 A  
HETATM   14  C   UNL     1      -6.218  17.384  70.101  1.00  0.00     0.097 A  
HETATM   15  C   UNL     1      -5.177  17.374  71.184  1.00  0.00    -0.120 C  
ENDBRANCH   4   8
BRANCH   7  16
HETATM   16  N   UNL     1     -11.263  16.771  64.363  1.00  0.00    -1.271 NA 
HETATM   17  H   UNL     1     -11.062  17.038  63.399  1.00  0.00     0.000 HD 
BRANCH  16  18
HETATM   18  N   UNL     1     -12.260  15.892  64.672  1.00  0.00     0.103 NA 
HETATM   19  H   UNL     1     -13.206  16.236  64.839  1.00  0.00     0.000 HD 
BRANCH  18  20
HETATM   20  C   UNL     1     -11.990  14.509  64.763  1.00  0.00    -0.442 A  
HETATM   21  C   UNL     1     -11.718  13.883  65.995  1.00  0.00    -0.366 A  
HETATM   22  C   UNL     1     -11.534  12.493  66.129  1.00  0.00    -0.426 A  
HETATM   23  O   UNL     1     -11.637  14.681  67.119  1.00  0.00    -0.363 OA 
HETATM   24  C   UNL     1     -11.984  13.715  63.614  1.00  0.00    -0.371 A  
HETATM   25  C   UNL     1     -11.503  11.740  64.945  1.00  0.00    -0.269 A  
HETATM   26  H   UNL     1     -11.453  14.259  67.950  1.00  0.00     0.000 HD 
HETATM   27  C   UNL     1     -11.720  12.344  63.701  1.00  0.00    -0.596 A  
BRANCH  22  28
HETATM   28  C   UNL     1     -11.510  11.843  67.456  1.00  0.00    -0.396 A  
HETATM   29  C   UNL     1     -12.161  12.363  68.584  1.00  0.00    -0.139 A  
HETATM   30  C   UNL     1     -12.050  11.733  69.831  1.00  0.00    -0.359 A  
HETATM   31  C   UNL     1     -11.319  10.551  69.963  1.00  0.00    -0.392 A  
HETATM   32  C   UNL     1     -10.694  10.000  68.847  1.00  0.00    -0.243 A  
HETATM   33  C   UNL     1     -10.751  10.670  67.626  1.00  0.00    -0.315 A  
HETATM   34  C   UNL     1      -9.941   8.730  68.975  1.00  0.00    -0.191 C  
HETATM   35  O   UNL     1     -10.015   7.946  67.873  1.00  0.00    -0.162 OA 
HETATM   36  O   UNL     1      -9.347   8.411  69.984  1.00  0.00    -0.157 OA 
ENDBRANCH  22  28
ENDBRANCH  18  20
ENDBRANCH  16  18
ENDBRANCH   7  16
TORSDOF 5
ENDMDL
MODEL      191
REMARK 921   NORMALIZED FREE ENERGY PREDICTED BY IDOCK:   -4.17 KCAL/MOL
REMARK 922        TOTAL FREE ENERGY PREDICTED BY IDOCK:   -6.69 KCAL/MOL
REMARK 923 INTER-LIGAND FREE ENERGY PREDICTED BY IDOCK:   -6.83 KCAL/MOL
REMARK 924 INTRA-LIGAND FREE ENERGY PREDICTED BY IDOCK:    0.14 KCAL/MOL
REMARK 927      BINDING AFFINITY PREDICTED BY RF-SCORE:    0.00 PKD
ROOT
HETATM    1  C   UNL     1      -7.134  19.064  69.432  1.00  0.00    -0.205 C  
HETATM    2  C   UNL     1      -7.134  17.639  69.019  1.00  0.00    -0.227 C  
HETATM    3  N   UNL     1      -6.684  16.618  69.690  1.00  0.00    -0.187 NA 
HETATM    4  N   UNL     1      -6.918  15.471  68.905  1.00  0.00    -0.122 N  
HETATM    5  O   UNL     1      -7.915  15.036  66.758  1.00  0.00    -0.150 OA 
HETATM    6  C   UNL     1      -7.543  15.720  67.692  1.00  0.00    -0.156 C  
HETATM    7  C   UNL     1      -7.681  17.202  67.712  1.00  0.00    -0.177 C  
ENDROOT
BRANCH   4   8
HETATM    8  C   UNL     1      -6.476  14.212  69.373  1.00  0.00    -0.122 A  
HETATM    9  C   UNL     1      -5.939  14.072  70.655  1.00  0.00    -0.186 A  
HETATM   10  C   UNL     1      -5.524  12.830  71.134  1.00  0.00    -0.132 A  
HETATM   11  C   UNL     1      -6.576  13.065  68.573  1.00  0.00    -0.088 A  
HETATM   12  C   UNL     1      -6.317  10.625  68.111  1.00  0.00    -0.058 C  
HETATM   13  C   UNL     1      -6.160  11.801  69.037  1.00  0.00    -0.066 A  
HETATM   14  C   UNL     1      -5.632  11.682  70.336  1.00  0.00    -0.149 A  
HETATM   15  C   UNL     1      -5.164  10.373  70.905  1.00  0.00    -0.077 C  
ENDBRANCH   4   8
BRANCH   7  16
HETATM   16  N   UNL     1      -8.148  18.000  66.804  1.00  0.00    -0.233 NA 
HETATM   17  H   UNL     1      -7.532  18.543  66.200  1.00  0.00     0.000 HD 
BRANCH  16  18
HETATM   18  N   UNL     1      -9.507  18.075  66.697  1.00  0.00    -0.288 NA 
HETATM   19  H   UNL     1      -9.959  18.983  66.596  1.00  0.00     0.000 HD 
BRANCH  18  20
HETATM   20  C   UNL     1     -10.291  16.900  66.728  1.00  0.00    -0.298 A  
HETATM   21  C   UNL     1     -10.766  16.354  67.936  1.00  0.00    -0.332 A  
HETATM   22  C   UNL     1     -11.623  15.237  67.992  1.00  0.00    -0.325 A  
HETATM   23  O   UNL     1     -10.369  16.955  69.115  1.00  0.00    -0.298 OA 
HETATM   24  C   UNL     1     -10.620  16.241  65.541  1.00  0.00    -0.369 A  
HETATM   25  C   UNL     1     -11.899  14.588  66.780  1.00  0.00    -0.390 A  
HETATM   26  H   UNL     1     -10.690  16.586  69.929  1.00  0.00     0.000 HD 
HETATM   27  C   UNL     1     -11.399  15.080  65.568  1.00  0.00    -0.312 A  
BRANCH  22  28
HETATM   28  C   UNL     1     -12.305  14.852  69.245  1.00  0.00    -0.138 A  
HETATM   29  C   UNL     1     -12.970  15.765  70.076  1.00  0.00     0.353 A  
HETATM   30  C   UNL     1     -13.546  15.349  71.284  1.00  0.00    -0.585 A  
HETATM   31  C   UNL     1     -13.501  14.005  71.663  1.00  0.00    -0.438 A  
HETATM   32  C   UNL     1     -12.875  13.077  70.834  1.00  0.00    -0.222 A  
HETATM   33  C   UNL     1     -12.245  13.511  69.669  1.00  0.00    -0.304 A  
HETATM   34  C   UNL     1     -12.850  11.645  71.216  1.00  0.00    -0.328 C  
HETATM   35  O   UNL     1     -12.919  10.804  70.157  1.00  0.00    -0.215 OA 
HETATM   36  O   UNL     1     -12.807  11.269  72.368  1.00  0.00    -0.007 OA 
ENDBRANCH  22  28
ENDBRANCH  18  20
ENDBRANCH  16  18
ENDBRANCH   7  16
TORSDOF 5
ENDMDL
MODEL      192
REMARK 921   NORMALIZED FREE ENERGY PREDICTED BY IDOCK:   -4.16 KCAL/MOL
REMARK 922        TOTAL FREE ENERGY PREDICTED BY IDOCK:   -6.68 KCAL/MOL
REMARK 923 INTER-LIGAND FREE ENERGY PREDICTED BY IDOCK:   -5.44 KCAL/MOL
REMARK 924 INTRA-LIGAND FREE ENERGY PREDICTED BY IDOCK:   -1.24 KCAL/MOL
REMARK 927      BINDING AFFINITY PREDICTED BY RF-SCORE:    0.00 PKD
ROOT
HETATM    1  C   UNL     1      -5.944   3.585  71.134  1.00  0.00    -0.014 C  
HETATM    2  C   UNL     1      -6.767   3.799  69.918  1.00  0.00    -0.034 C  
HETATM    3  N   UNL     1      -6.351   4.087  68.718  1.00  0.00    -0.032 NA 
HETATM    4  N   UNL     1      -7.491   4.174  67.895  1.00  0.00    -0.068 N  
HETATM    5  O   UNL     1      -9.861   3.907  68.213  1.00  0.00    -0.096 OA 
HETATM    6  C   UNL     1      -8.692   3.933  68.546  1.00  0.00    -0.100 C  
HETATM    7  C   UNL     1      -8.247   3.704  69.947  1.00  0.00    -0.052 C  
ENDROOT
BRANCH   4   8
HETATM    8  C   UNL     1      -7.335   4.531  66.535  1.00  0.00    -0.081 A  
HETATM    9  C   UNL     1      -6.082   4.877  66.025  1.00  0.00    -0.027 A  
HETATM   10  C   UNL     1      -5.915   5.205  64.679  1.00  0.00    -0.022 A  
HETATM   11  C   UNL     1      -8.428   4.535  65.657  1.00  0.00    -0.116 A  
HETATM   12  C   UNL     1      -9.509   4.830  63.425  1.00  0.00     0.157 C  
HETATM   13  C   UNL     1      -8.280   4.866  64.294  1.00  0.00    -0.121 A  
HETATM   14  C   UNL     1      -7.006   5.200  63.800  1.00  0.00    -0.047 A  
HETATM   15  C   UNL     1      -6.765   5.567  62.363  1.00  0.00    -0.029 C  
ENDBRANCH   4   8
BRANCH   7  16
HETATM   16  N   UNL     1      -8.951   3.486  71.012  1.00  0.00    -0.087 NA 
HETATM   17  H   UNL     1      -8.751   2.704  71.636  1.00  0.00     0.000 HD 
BRANCH  16  18
HETATM   18  N   UNL     1      -9.974   4.356  71.256  1.00  0.00    -0.190 NA 
HETATM   19  H   UNL     1     -10.940   4.038  71.183  1.00  0.00     0.000 HD 
BRANCH  18  20
HETATM   20  C   UNL     1      -9.702   5.696  71.610  1.00  0.00    -0.159 A  
HETATM   21  C   UNL     1     -10.431   6.772  71.066  1.00  0.00    -0.212 A  
HETATM   22  C   UNL     1     -10.243   8.110  71.465  1.00  0.00    -0.261 A  
HETATM   23  O   UNL     1     -11.375   6.487  70.099  1.00  0.00    -0.341 OA 
HETATM   24  C   UNL     1      -8.686   5.993  72.521  1.00  0.00    -0.122 A  
HETATM   25  C   UNL     1      -9.190   8.363  72.357  1.00  0.00    -0.345 A  
HETATM   26  H   UNL     1     -11.866   7.213  69.733  1.00  0.00     0.000 HD 
HETATM   27  C   UNL     1      -8.417   7.319  72.875  1.00  0.00    -0.134 A  
BRANCH  22  28
HETATM   28  C   UNL     1     -11.192   9.172  71.071  1.00  0.00    -0.380 A  
HETATM   29  C   UNL     1     -12.392   9.429  71.750  1.00  0.00    -0.471 A  
HETATM   30  C   UNL     1     -13.281  10.410  71.291  1.00  0.00    -0.431 A  
HETATM   31  C   UNL     1     -12.967  11.178  70.168  1.00  0.00     0.050 A  
HETATM   32  C   UNL     1     -11.764  10.961  69.500  1.00  0.00    -0.400 A  
HETATM   33  C   UNL     1     -10.918   9.937  69.922  1.00  0.00    -0.321 A  
HETATM   34  C   UNL     1     -11.412  11.794  68.325  1.00  0.00    -0.307 C  
HETATM   35  O   UNL     1     -10.084  12.040  68.217  1.00  0.00    -0.192 OA 
HETATM   36  O   UNL     1     -12.239  12.238  67.558  1.00  0.00    -0.457 OA 
ENDBRANCH  22  28
ENDBRANCH  18  20
ENDBRANCH  16  18
ENDBRANCH   7  16
TORSDOF 5
ENDMDL
MODEL      193
REMARK 921   NORMALIZED FREE ENERGY PREDICTED BY IDOCK:   -4.12 KCAL/MOL
REMARK 922        TOTAL FREE ENERGY PREDICTED BY IDOCK:   -6.62 KCAL/MOL
REMARK 923 INTER-LIGAND FREE ENERGY PREDICTED BY IDOCK:   -7.51 KCAL/MOL
REMARK 924 INTRA-LIGAND FREE ENERGY PREDICTED BY IDOCK:    0.89 KCAL/MOL
REMARK 927      BINDING AFFINITY PREDICTED BY RF-SCORE:    0.00 PKD
ROOT
HETATM    1  C   UNL     1     -12.280  10.785  69.657  1.00  0.00    -0.325 C  
HETATM    2  C   UNL     1     -11.177  10.319  68.780  1.00  0.00    -0.206 C  
HETATM    3  N   UNL     1     -10.983   9.117  68.319  1.00  0.00    -0.037 NA 
HETATM    4  N   UNL     1      -9.824   9.163  67.519  1.00  0.00    -0.167 N  
HETATM    5  O   UNL     1      -8.260  10.868  66.862  1.00  0.00    -0.126 OA 
HETATM    6  C   UNL     1      -9.233  10.414  67.431  1.00  0.00    -0.142 C  
HETATM    7  C   UNL     1     -10.110  11.235  68.310  1.00  0.00    -0.188 C  
ENDROOT
BRANCH   4   8
HETATM    8  C   UNL     1      -9.346   7.970  66.928  1.00  0.00    -0.164 A  
HETATM    9  C   UNL     1      -8.492   8.010  65.823  1.00  0.00    -0.159 A  
HETATM   10  C   UNL     1      -7.996   6.839  65.250  1.00  0.00    -0.127 A  
HETATM   11  C   UNL     1      -9.702   6.714  67.440  1.00  0.00    -0.155 A  
HETATM   12  C   UNL     1      -9.639   4.218  67.499  1.00  0.00    -0.217 C  
HETATM   13  C   UNL     1      -9.212   5.519  66.873  1.00  0.00    -0.119 A  
HETATM   14  C   UNL     1      -8.345   5.585  65.768  1.00  0.00    -0.129 A  
HETATM   15  C   UNL     1      -7.782   4.359  65.106  1.00  0.00    -0.085 C  
ENDBRANCH   4   8
BRANCH   7  16
HETATM   16  N   UNL     1     -10.004  12.480  68.650  1.00  0.00    -0.390 NA 
HETATM   17  H   UNL     1      -9.148  13.010  68.486  1.00  0.00     0.000 HD 
BRANCH  16  18
HETATM   18  N   UNL     1     -11.097  13.048  69.240  1.00  0.00    -0.421 NA 
HETATM   19  H   UNL     1     -11.948  12.500  69.363  1.00  0.00     0.000 HD 
BRANCH  18  20
HETATM   20  C   UNL     1     -11.055  14.389  69.680  1.00  0.00    -0.202 A  
HETATM   21  C   UNL     1     -10.370  15.387  68.959  1.00  0.00    -0.243 A  
HETATM   22  C   UNL     1     -10.385  16.748  69.324  1.00  0.00    -0.309 A  
HETATM   23  O   UNL     1      -9.658  15.000  67.841  1.00  0.00    -0.201 OA 
HETATM   24  C   UNL     1     -11.701  14.765  70.859  1.00  0.00    -0.360 A  
HETATM   25  C   UNL     1     -11.018  17.073  70.532  1.00  0.00     0.554 A  
HETATM   26  H   UNL     1      -9.196  15.674  67.355  1.00  0.00     0.000 HD 
HETATM   27  C   UNL     1     -11.664  16.093  71.295  1.00  0.00    -0.480 A  
BRANCH  22  28
HETATM   28  C   UNL     1      -9.879  17.795  68.412  1.00  0.00    -0.347 A  
HETATM   29  C   UNL     1     -10.507  19.036  68.236  1.00  0.00    -0.351 A  
HETATM   30  C   UNL     1     -10.013  19.966  67.310  1.00  0.00    -0.556 A  
HETATM   31  C   UNL     1      -8.860  19.686  66.574  1.00  0.00    -0.410 A  
HETATM   32  C   UNL     1      -8.202  18.472  66.761  1.00  0.00    -0.268 A  
HETATM   33  C   UNL     1      -8.739  17.526  67.632  1.00  0.00    -0.223 A  
HETATM   34  C   UNL     1      -6.961  18.182  66.004  1.00  0.00    -0.292 C  
HETATM   35  O   UNL     1      -6.065  17.444  66.702  1.00  0.00    -0.166 OA 
HETATM   36  O   UNL     1      -6.758  18.597  64.883  1.00  0.00    -0.501 OA 
ENDBRANCH  22  28
ENDBRANCH  18  20
ENDBRANCH  16  18
ENDBRANCH   7  16
TORSDOF 5
ENDMDL
MODEL      194
REMARK 921   NORMALIZED FREE ENERGY PREDICTED BY IDOCK:   -4.09 KCAL/MOL
REMARK 922        TOTAL FREE ENERGY PREDICTED BY IDOCK:   -6.59 KCAL/MOL
REMARK 923 INTER-LIGAND FREE ENERGY PREDICTED BY IDOCK:   -5.53 KCAL/MOL
REMARK 924 INTRA-LIGAND FREE ENERGY PREDICTED BY IDOCK:   -1.06 KCAL/MOL
REMARK 927      BINDING AFFINITY PREDICTED BY RF-SCORE:    0.00 PKD
ROOT
HETATM    1  C   UNL     1     -11.884  13.039  68.960  1.00  0.00    -0.362 C  
HETATM    2  C   UNL     1     -11.008  11.864  69.191  1.00  0.00    -0.198 C  
HETATM    3  N   UNL     1     -11.353  10.692  69.639  1.00  0.00    -0.271 NA 
HETATM    4  N   UNL     1     -10.188   9.900  69.669  1.00  0.00    -0.221 N  
HETATM    5  O   UNL     1      -7.876  10.229  69.093  1.00  0.00    -0.104 OA 
HETATM    6  C   UNL     1      -9.042  10.543  69.226  1.00  0.00    -0.145 C  
HETATM    7  C   UNL     1      -9.551  11.907  68.918  1.00  0.00     0.084 C  
ENDROOT
BRANCH   4   8
HETATM    8  C   UNL     1     -10.264   8.579  70.171  1.00  0.00    -0.195 A  
HETATM    9  C   UNL     1     -11.120   7.640  69.590  1.00  0.00    -0.074 A  
HETATM   10  C   UNL     1     -11.182   6.329  70.062  1.00  0.00    -0.480 A  
HETATM   11  C   UNL     1      -9.474   8.169  71.254  1.00  0.00    -0.199 A  
HETATM   12  C   UNL     1      -8.629   6.498  72.906  1.00  0.00    -0.125 C  
HETATM   13  C   UNL     1      -9.524   6.849  71.747  1.00  0.00    -0.155 A  
HETATM   14  C   UNL     1     -10.385   5.917  71.139  1.00  0.00    -0.276 A  
HETATM   15  C   UNL     1     -10.499   4.494  71.606  1.00  0.00    -0.084 C  
ENDBRANCH   4   8
BRANCH   7  16
HETATM   16  N   UNL     1      -8.906  12.957  68.517  1.00  0.00    -0.362 NA 
HETATM   17  H   UNL     1      -8.576  13.666  69.172  1.00  0.00     0.000 HD 
BRANCH  16  18
HETATM   18  N   UNL     1      -8.691  13.066  67.173  1.00  0.00    -0.203 NA 
HETATM   19  H   UNL     1      -8.210  13.884  66.801  1.00  0.00     0.000 HD 
BRANCH  18  20
HETATM   20  C   UNL     1      -9.132  12.051  66.296  1.00  0.00    -0.165 A  
HETATM   21  C   UNL     1      -8.291  10.993  65.899  1.00  0.00    -0.119 A  
HETATM   22  C   UNL     1      -8.729   9.920  65.098  1.00  0.00    -0.187 A  
HETATM   23  O   UNL     1      -6.978  11.019  66.327  1.00  0.00    -0.180 OA 
HETATM   24  C   UNL     1     -10.435  12.072  65.791  1.00  0.00    -0.290 A  
HETATM   25  C   UNL     1     -10.033  10.000  64.588  1.00  0.00    -0.206 A  
HETATM   26  H   UNL     1      -6.411  10.306  66.059  1.00  0.00     0.000 HD 
HETATM   27  C   UNL     1     -10.875  11.066  64.925  1.00  0.00    -0.211 A  
BRANCH  22  28
HETATM   28  C   UNL     1      -7.903   8.707  64.917  1.00  0.00    -0.116 A  
HETATM   29  C   UNL     1      -6.721   8.682  64.163  1.00  0.00    -0.075 A  
HETATM   30  C   UNL     1      -6.014   7.486  63.977  1.00  0.00    -0.048 A  
HETATM   31  C   UNL     1      -6.456   6.304  64.574  1.00  0.00    -0.034 A  
HETATM   32  C   UNL     1      -7.609   6.316  65.355  1.00  0.00    -0.088 A  
HETATM   33  C   UNL     1      -8.343   7.494  65.478  1.00  0.00    -0.137 A  
HETATM   34  C   UNL     1      -8.067   5.070  66.015  1.00  0.00    -0.108 C  
HETATM   35  O   UNL     1      -8.650   5.281  67.219  1.00  0.00    -0.107 OA 
HETATM   36  O   UNL     1      -7.901   3.969  65.536  1.00  0.00    -0.088 OA 
ENDBRANCH  22  28
ENDBRANCH  18  20
ENDBRANCH  16  18
ENDBRANCH   7  16
TORSDOF 5
ENDMDL
MODEL      195
REMARK 921   NORMALIZED FREE ENERGY PREDICTED BY IDOCK:   -4.03 KCAL/MOL
REMARK 922        TOTAL FREE ENERGY PREDICTED BY IDOCK:   -6.51 KCAL/MOL
REMARK 923 INTER-LIGAND FREE ENERGY PREDICTED BY IDOCK:   -6.58 KCAL/MOL
REMARK 924 INTRA-LIGAND FREE ENERGY PREDICTED BY IDOCK:    0.07 KCAL/MOL
REMARK 927      BINDING AFFINITY PREDICTED BY RF-SCORE:    0.00 PKD
ROOT
HETATM    1  C   UNL     1      -9.215  10.498  69.197  1.00  0.00    -0.183 C  
HETATM    2  C   UNL     1      -8.612   9.162  69.418  1.00  0.00    -0.138 C  
HETATM    3  N   UNL     1      -9.230   8.037  69.633  1.00  0.00    -0.152 NA 
HETATM    4  N   UNL     1      -8.243   7.039  69.764  1.00  0.00    -0.129 N  
HETATM    5  O   UNL     1      -5.840   6.982  69.664  1.00  0.00    -0.022 OA 
HETATM    6  C   UNL     1      -6.941   7.496  69.626  1.00  0.00    -0.053 C  
HETATM    7  C   UNL     1      -7.143   8.956  69.421  1.00  0.00    -0.057 C  
ENDROOT
BRANCH   4   8
HETATM    8  C   UNL     1      -8.637   5.713  70.058  1.00  0.00    -0.122 A  
HETATM    9  C   UNL     1      -8.516   4.701  69.103  1.00  0.00    -0.089 A  
HETATM   10  C   UNL     1      -8.878   3.386  69.394  1.00  0.00    -0.154 A  
HETATM   11  C   UNL     1      -9.145   5.371  71.319  1.00  0.00    -0.162 A  
HETATM   12  C   UNL     1     -10.043   3.774  73.016  1.00  0.00    -0.217 C  
HETATM   13  C   UNL     1      -9.519   4.048  71.632  1.00  0.00    -0.216 A  
HETATM   14  C   UNL     1      -9.378   3.043  70.657  1.00  0.00    -0.221 A  
HETATM   15  C   UNL     1      -9.755   1.611  70.910  1.00  0.00    -0.146 C  
ENDBRANCH   4   8
BRANCH   7  16
HETATM   16  N   UNL     1      -6.266   9.900  69.289  1.00  0.00    -0.040 NA 
HETATM   17  H   UNL     1      -5.525  10.043  69.976  1.00  0.00     0.000 HD 
BRANCH  16  18
HETATM   18  N   UNL     1      -6.383  10.694  68.185  1.00  0.00    -0.057 NA 
HETATM   19  H   UNL     1      -6.220  10.301  67.258  1.00  0.00     0.000 HD 
BRANCH  18  20
HETATM   20  C   UNL     1      -6.729  12.056  68.319  1.00  0.00    -0.061 A  
HETATM   21  C   UNL     1      -7.570  12.704  67.393  1.00  0.00    -0.150 A  
HETATM   22  C   UNL     1      -8.004  14.036  67.548  1.00  0.00    -0.199 A  
HETATM   23  O   UNL     1      -7.985  11.988  66.288  1.00  0.00    -0.379 OA 
HETATM   24  C   UNL     1      -6.238  12.807  69.389  1.00  0.00    -0.112 A  
HETATM   25  C   UNL     1      -7.459  14.760  68.619  1.00  0.00    -0.126 A  
HETATM   26  H   UNL     1      -8.552  12.426  65.664  1.00  0.00     0.000 HD 
HETATM   27  C   UNL     1      -6.582  14.155  69.526  1.00  0.00    -0.124 A  
BRANCH  22  28
HETATM   28  C   UNL     1      -9.082  14.597  66.707  1.00  0.00    -0.287 A  
HETATM   29  C   UNL     1      -9.025  15.873  66.127  1.00  0.00    -0.376 A  
HETATM   30  C   UNL     1     -10.106  16.375  65.390  1.00  0.00    -0.133 A  
HETATM   31  C   UNL     1     -11.247  15.594  65.186  1.00  0.00    -0.286 A  
HETATM   32  C   UNL     1     -11.307  14.311  65.726  1.00  0.00    -0.326 A  
HETATM   33  C   UNL     1     -10.257  13.847  66.515  1.00  0.00    -0.280 A  
HETATM   34  C   UNL     1     -12.502  13.467  65.488  1.00  0.00    -0.491 C  
HETATM   35  O   UNL     1     -12.217  12.148  65.377  1.00  0.00    -0.515 OA 
HETATM   36  O   UNL     1     -13.620  13.922  65.370  1.00  0.00    -0.571 OA 
ENDBRANCH  22  28
ENDBRANCH  18  20
ENDBRANCH  16  18
ENDBRANCH   7  16
TORSDOF 5
ENDMDL
MODEL      196
REMARK 921   NORMALIZED FREE ENERGY PREDICTED BY IDOCK:   -3.93 KCAL/MOL
REMARK 922        TOTAL FREE ENERGY PREDICTED BY IDOCK:   -6.39 KCAL/MOL
REMARK 923 INTER-LIGAND FREE ENERGY PREDICTED BY IDOCK:   -5.82 KCAL/MOL
REMARK 924 INTRA-LIGAND FREE ENERGY PREDICTED BY IDOCK:   -0.57 KCAL/MOL
REMARK 927      BINDING AFFINITY PREDICTED BY RF-SCORE:    0.00 PKD
ROOT
HETATM    1  C   UNL     1      -8.157   4.031  68.463  1.00  0.00    -0.078 C  
HETATM    2  C   UNL     1      -8.707   5.344  68.879  1.00  0.00    -0.097 C  
HETATM    3  N   UNL     1      -9.707   5.568  69.682  1.00  0.00    -0.160 NA 
HETATM    4  N   UNL     1      -9.845   6.966  69.791  1.00  0.00    -0.170 N  
HETATM    5  O   UNL     1      -8.698   8.879  68.889  1.00  0.00    -0.133 OA 
HETATM    6  C   UNL     1      -8.920   7.696  69.060  1.00  0.00    -0.137 C  
HETATM    7  C   UNL     1      -8.137   6.623  68.389  1.00  0.00    -0.115 C  
ENDROOT
BRANCH   4   8
HETATM    8  C   UNL     1     -10.901   7.497  70.570  1.00  0.00    -0.240 A  
HETATM    9  C   UNL     1     -10.844   8.805  71.057  1.00  0.00    -0.321 A  
HETATM   10  C   UNL     1     -11.892   9.344  71.803  1.00  0.00    -0.452 A  
HETATM   11  C   UNL     1     -12.039   6.733  70.863  1.00  0.00    -0.421 A  
HETATM   12  C   UNL     1     -14.295   6.369  71.871  1.00  0.00     0.072 C  
HETATM   13  C   UNL     1     -13.108   7.260  71.617  1.00  0.00    -0.417 A  
HETATM   14  C   UNL     1     -13.034   8.583  72.088  1.00  0.00    -0.403 A  
HETATM   15  C   UNL     1     -14.127   9.217  72.901  1.00  0.00     0.001 C  
ENDBRANCH   4   8
BRANCH   7  16
HETATM   16  N   UNL     1      -7.170   6.719  67.533  1.00  0.00    -0.088 NA 
HETATM   17  H   UNL     1      -6.200   6.549  67.799  1.00  0.00     0.000 HD 
BRANCH  16  18
HETATM   18  N   UNL     1      -7.515   7.060  66.257  1.00  0.00    -0.079 NA 
HETATM   19  H   UNL     1      -7.872   6.348  65.621  1.00  0.00     0.000 HD 
BRANCH  18  20
HETATM   20  C   UNL     1      -7.380   8.394  65.814  1.00  0.00    -0.073 A  
HETATM   21  C   UNL     1      -8.496   9.234  65.633  1.00  0.00    -0.139 A  
HETATM   22  C   UNL     1      -8.387  10.594  65.278  1.00  0.00    -0.127 A  
HETATM   23  O   UNL     1      -9.751   8.688  65.819  1.00  0.00    -0.451 OA 
HETATM   24  C   UNL     1      -6.116   8.922  65.539  1.00  0.00    -0.055 A  
HETATM   25  C   UNL     1      -7.102  11.070  64.980  1.00  0.00     0.509 A  
HETATM   26  H   UNL     1     -10.503   9.255  65.697  1.00  0.00     0.000 HD 
HETATM   27  C   UNL     1      -5.980  10.243  65.103  1.00  0.00    -0.130 A  
BRANCH  22  28
HETATM   28  C   UNL     1      -9.550  11.504  65.350  1.00  0.00    -0.249 A  
HETATM   29  C   UNL     1     -10.879  11.059  65.387  1.00  0.00    -0.168 A  
HETATM   30  C   UNL     1     -11.942  11.972  65.393  1.00  0.00    -0.184 A  
HETATM   31  C   UNL     1     -11.693  13.346  65.400  1.00  0.00    -0.354 A  
HETATM   32  C   UNL     1     -10.378  13.807  65.397  1.00  0.00    -0.347 A  
HETATM   33  C   UNL     1      -9.329  12.893  65.322  1.00  0.00     0.400 A  
HETATM   34  C   UNL     1     -10.108  15.264  65.435  1.00  0.00    -0.362 C  
HETATM   35  O   UNL     1      -8.991  15.587  66.129  1.00  0.00    -0.316 OA 
HETATM   36  O   UNL     1     -10.837  16.086  64.922  1.00  0.00    -0.534 OA 
ENDBRANCH  22  28
ENDBRANCH  18  20
ENDBRANCH  16  18
ENDBRANCH   7  16
TORSDOF 5
ENDMDL
MODEL      197
REMARK 921   NORMALIZED FREE ENERGY PREDICTED BY IDOCK:   -3.92 KCAL/MOL
REMARK 922        TOTAL FREE ENERGY PREDICTED BY IDOCK:   -6.37 KCAL/MOL
REMARK 923 INTER-LIGAND FREE ENERGY PREDICTED BY IDOCK:   -5.52 KCAL/MOL
REMARK 924 INTRA-LIGAND FREE ENERGY PREDICTED BY IDOCK:   -0.85 KCAL/MOL
REMARK 927      BINDING AFFINITY PREDICTED BY RF-SCORE:    0.00 PKD
ROOT
HETATM    1  C   UNL     1     -12.553   8.323  71.595  1.00  0.00    -0.355 C  
HETATM    2  C   UNL     1     -11.415   7.688  70.886  1.00  0.00    -0.282 C  
HETATM    3  N   UNL     1     -10.763   6.616  71.232  1.00  0.00    -0.226 NA 
HETATM    4  N   UNL     1      -9.784   6.389  70.244  1.00  0.00    -0.167 N  
HETATM    5  O   UNL     1      -9.128   7.476  68.199  1.00  0.00    -0.130 OA 
HETATM    6  C   UNL     1      -9.782   7.316  69.212  1.00  0.00    -0.161 C  
HETATM    7  C   UNL     1     -10.865   8.248  69.628  1.00  0.00    -0.150 C  
ENDROOT
BRANCH   4   8
HETATM    8  C   UNL     1      -8.887   5.306  70.396  1.00  0.00    -0.127 A  
HETATM    9  C   UNL     1      -8.747   4.659  71.625  1.00  0.00    -0.135 A  
HETATM   10  C   UNL     1      -7.884   3.574  71.777  1.00  0.00    -0.061 A  
HETATM   11  C   UNL     1      -8.122   4.843  69.316  1.00  0.00    -0.078 A  
HETATM   12  C   UNL     1      -6.471   3.314  68.232  1.00  0.00    -0.036 C  
HETATM   13  C   UNL     1      -7.241   3.749  69.450  1.00  0.00    -0.046 A  
HETATM   14  C   UNL     1      -7.126   3.105  70.696  1.00  0.00    -0.033 A  
HETATM   15  C   UNL     1      -6.210   1.936  70.921  1.00  0.00    -0.019 C  
ENDBRANCH   4   8
BRANCH   7  16
HETATM   16  N   UNL     1     -11.272   9.343  69.068  1.00  0.00    -0.446 NA 
HETATM   17  H   UNL     1     -12.141   9.382  68.536  1.00  0.00     0.000 HD 
BRANCH  16  18
HETATM   18  N   UNL     1     -10.479  10.443  69.228  1.00  0.00    -0.220 NA 
HETATM   19  H   UNL     1     -10.049  10.631  70.133  1.00  0.00     0.000 HD 
BRANCH  18  20
HETATM   20  C   UNL     1     -10.250  11.321  68.146  1.00  0.00    -0.180 A  
HETATM   21  C   UNL     1     -10.513  12.702  68.241  1.00  0.00    -0.239 A  
HETATM   22  C   UNL     1     -10.212  13.615  67.211  1.00  0.00    -0.246 A  
HETATM   23  O   UNL     1     -11.089  13.170  69.405  1.00  0.00    -0.411 OA 
HETATM   24  C   UNL     1      -9.750  10.835  66.936  1.00  0.00    -0.209 A  
HETATM   25  C   UNL     1      -9.743  13.078  66.004  1.00  0.00    -0.223 A  
HETATM   26  H   UNL     1     -11.267  14.101  69.469  1.00  0.00     0.000 HD 
HETATM   27  C   UNL     1      -9.520  11.703  65.865  1.00  0.00    -0.246 A  
BRANCH  22  28
HETATM   28  C   UNL     1     -10.259  15.075  67.439  1.00  0.00    -0.234 A  
HETATM   29  C   UNL     1     -11.442  15.826  67.400  1.00  0.00    -0.019 A  
HETATM   30  C   UNL     1     -11.415  17.218  67.563  1.00  0.00     0.640 A  
HETATM   31  C   UNL     1     -10.208  17.877  67.807  1.00  0.00    -0.372 A  
HETATM   32  C   UNL     1      -9.026  17.144  67.883  1.00  0.00    -0.230 A  
HETATM   33  C   UNL     1      -9.054  15.770  67.651  1.00  0.00    -0.193 A  
HETATM   34  C   UNL     1      -7.747  17.834  68.171  1.00  0.00    -0.254 C  
HETATM   35  O   UNL     1      -6.888  17.092  68.910  1.00  0.00    -0.198 OA 
HETATM   36  O   UNL     1      -7.510  18.967  67.808  1.00  0.00    -0.234 OA 
ENDBRANCH  22  28
ENDBRANCH  18  20
ENDBRANCH  16  18
ENDBRANCH   7  16
TORSDOF 5
ENDMDL
MODEL      198
REMARK 921   NORMALIZED FREE ENERGY PREDICTED BY IDOCK:   -3.92 KCAL/MOL
REMARK 922        TOTAL FREE ENERGY PREDICTED BY IDOCK:   -6.37 KCAL/MOL
REMARK 923 INTER-LIGAND FREE ENERGY PREDICTED BY IDOCK:   -6.24 KCAL/MOL
REMARK 924 INTRA-LIGAND FREE ENERGY PREDICTED BY IDOCK:   -0.13 KCAL/MOL
REMARK 927      BINDING AFFINITY PREDICTED BY RF-SCORE:    0.00 PKD
ROOT
HETATM    1  C   UNL     1     -10.665  10.057  69.991  1.00  0.00    -0.348 C  
HETATM    2  C   UNL     1      -9.765   9.039  69.396  1.00  0.00    -0.169 C  
HETATM    3  N   UNL     1     -10.097   7.893  68.874  1.00  0.00    -0.192 NA 
HETATM    4  N   UNL     1      -8.909   7.284  68.424  1.00  0.00    -0.128 N  
HETATM    5  O   UNL     1      -6.577   7.877  68.404  1.00  0.00    -0.058 OA 
HETATM    6  C   UNL     1      -7.760   8.031  68.637  1.00  0.00    -0.105 C  
HETATM    7  C   UNL     1      -8.296   9.232  69.334  1.00  0.00    -0.127 C  
ENDROOT
BRANCH   4   8
HETATM    8  C   UNL     1      -8.970   5.990  67.854  1.00  0.00    -0.118 A  
HETATM    9  C   UNL     1      -8.073   4.993  68.244  1.00  0.00    -0.086 A  
HETATM   10  C   UNL     1      -8.143   3.708  67.707  1.00  0.00    -0.084 A  
HETATM   11  C   UNL     1      -9.939   5.666  66.894  1.00  0.00    -0.202 A  
HETATM   12  C   UNL     1     -11.105   4.115  65.322  1.00  0.00     0.383 C  
HETATM   13  C   UNL     1     -10.024   4.373  66.337  1.00  0.00    -0.252 A  
HETATM   14  C   UNL     1      -9.117   3.382  66.754  1.00  0.00    -0.183 A  
HETATM   15  C   UNL     1      -9.139   1.982  66.207  1.00  0.00    -0.050 C  
ENDBRANCH   4   8
BRANCH   7  16
HETATM   16  N   UNL     1      -7.664  10.251  69.825  1.00  0.00    -0.220 NA 
HETATM   17  H   UNL     1      -7.552  10.378  70.831  1.00  0.00     0.000 HD 
BRANCH  16  18
HETATM   18  N   UNL     1      -7.156  11.146  68.928  1.00  0.00    -0.092 NA 
HETATM   19  H   UNL     1      -6.149  11.199  68.779  1.00  0.00     0.000 HD 
BRANCH  18  20
HETATM   20  C   UNL     1      -8.019  11.999  68.205  1.00  0.00    -0.149 A  
HETATM   21  C   UNL     1      -8.135  13.370  68.510  1.00  0.00    -0.105 A  
HETATM   22  C   UNL     1      -8.918  14.263  67.751  1.00  0.00    -0.188 A  
HETATM   23  O   UNL     1      -7.441  13.849  69.603  1.00  0.00    -0.327 OA 
HETATM   24  C   UNL     1      -8.789  11.497  67.154  1.00  0.00    -0.168 A  
HETATM   25  C   UNL     1      -9.700  13.709  66.727  1.00  0.00    -0.275 A  
HETATM   26  H   UNL     1      -7.521  14.773  69.809  1.00  0.00     0.000 HD 
HETATM   27  C   UNL     1      -9.641  12.341  66.435  1.00  0.00    -0.242 A  
BRANCH  22  28
HETATM   28  C   UNL     1      -8.815  15.726  67.937  1.00  0.00    -0.175 A  
HETATM   29  C   UNL     1      -7.939  16.329  68.851  1.00  0.00    -0.230 A  
HETATM   30  C   UNL     1      -7.932  17.720  69.026  1.00  0.00    -0.079 A  
HETATM   31  C   UNL     1      -8.772  18.533  68.263  1.00  0.00    -0.333 A  
HETATM   32  C   UNL     1      -9.625  17.954  67.326  1.00  0.00    -0.273 A  
HETATM   33  C   UNL     1      -9.675  16.567  67.207  1.00  0.00    -0.247 A  
HETATM   34  C   UNL     1     -10.497  18.814  66.492  1.00  0.00    -0.427 C  
HETATM   35  O   UNL     1     -10.691  18.334  65.240  1.00  0.00    -0.605 OA 
HETATM   36  O   UNL     1     -10.962  19.863  66.885  1.00  0.00    -0.385 OA 
ENDBRANCH  22  28
ENDBRANCH  18  20
ENDBRANCH  16  18
ENDBRANCH   7  16
TORSDOF 5
ENDMDL
MODEL      199
REMARK 921   NORMALIZED FREE ENERGY PREDICTED BY IDOCK:   -3.74 KCAL/MOL
REMARK 922        TOTAL FREE ENERGY PREDICTED BY IDOCK:   -6.13 KCAL/MOL
REMARK 923 INTER-LIGAND FREE ENERGY PREDICTED BY IDOCK:   -5.96 KCAL/MOL
REMARK 924 INTRA-LIGAND FREE ENERGY PREDICTED BY IDOCK:   -0.17 KCAL/MOL
REMARK 927      BINDING AFFINITY PREDICTED BY RF-SCORE:    0.00 PKD
ROOT
HETATM    1  C   UNL     1      -8.817  12.757  68.125  1.00  0.00    -0.194 C  
HETATM    2  C   UNL     1      -8.078  11.817  67.247  1.00  0.00    -0.164 C  
HETATM    3  N   UNL     1      -8.559  10.809  66.579  1.00  0.00    -0.145 NA 
HETATM    4  N   UNL     1      -7.485  10.228  65.876  1.00  0.00    -0.129 N  
HETATM    5  O   UNL     1      -5.132  10.682  65.657  1.00  0.00    -0.074 OA 
HETATM    6  C   UNL     1      -6.264  10.857  66.066  1.00  0.00    -0.115 C  
HETATM    7  C   UNL     1      -6.616  11.936  67.029  1.00  0.00    -0.128 C  
ENDROOT
BRANCH   4   8
HETATM    8  C   UNL     1      -7.715   9.068  65.099  1.00  0.00    -0.101 A  
HETATM    9  C   UNL     1      -7.828   9.147  63.709  1.00  0.00    -0.133 A  
HETATM   10  C   UNL     1      -8.029   8.005  62.934  1.00  0.00    -0.152 A  
HETATM   11  C   UNL     1      -7.823   7.805  65.698  1.00  0.00    -0.107 A  
HETATM   12  C   UNL     1      -8.120   5.326  65.662  1.00  0.00    -0.117 C  
HETATM   13  C   UNL     1      -8.029   6.639  64.932  1.00  0.00    -0.121 A  
HETATM   14  C   UNL     1      -8.128   6.742  63.532  1.00  0.00     0.001 A  
HETATM   15  C   UNL     1      -8.350   5.550  62.646  1.00  0.00    -0.104 C  
ENDBRANCH   4   8
BRANCH   7  16
HETATM   16  N   UNL     1      -5.851  12.808  67.606  1.00  0.00    -0.133 NA 
HETATM   17  H   UNL     1      -5.004  13.158  67.159  1.00  0.00     0.000 HD 
BRANCH  16  18
HETATM   18  N   UNL     1      -6.238  13.235  68.844  1.00  0.00    -0.082 NA 
HETATM   19  H   UNL     1      -6.681  12.582  69.490  1.00  0.00     0.000 HD 
BRANCH  18  20
HETATM   20  C   UNL     1      -6.030  14.576  69.234  1.00  0.00    -0.104 A  
HETATM   21  C   UNL     1      -6.303  15.653  68.369  1.00  0.00    -0.111 A  
HETATM   22  C   UNL     1      -6.191  17.002  68.759  1.00  0.00    -0.167 A  
HETATM   23  O   UNL     1      -6.705  15.359  67.080  1.00  0.00    -0.271 OA 
HETATM   24  C   UNL     1      -5.539  14.872  70.507  1.00  0.00    -0.142 A  
HETATM   25  C   UNL     1      -5.662  17.251  70.034  1.00  0.00    -0.244 A  
HETATM   26  H   UNL     1      -6.889  16.086  66.497  1.00  0.00     0.000 HD 
HETATM   27  C   UNL     1      -5.334  16.199  70.897  1.00  0.00    -0.082 A  
BRANCH  22  28
HETATM   28  C   UNL     1      -6.728  18.094  67.921  1.00  0.00    -0.203 A  
HETATM   29  C   UNL     1      -6.000  19.246  67.590  1.00  0.00    -0.211 A  
HETATM   30  C   UNL     1      -6.586  20.276  66.842  1.00  0.00    -0.269 A  
HETATM   31  C   UNL     1      -7.898  20.155  66.379  1.00  0.00    -0.294 A  
HETATM   32  C   UNL     1      -8.626  19.003  66.668  1.00  0.00    -0.319 A  
HETATM   33  C   UNL     1      -8.059  18.015  67.470  1.00  0.00    -0.231 A  
HETATM   34  C   UNL     1     -10.008  18.856  66.154  1.00  0.00    -0.356 C  
HETATM   35  O   UNL     1     -10.333  17.579  65.838  1.00  0.00    -0.494 OA 
HETATM   36  O   UNL     1     -10.760  19.795  65.999  1.00  0.00    -0.472 OA 
ENDBRANCH  22  28
ENDBRANCH  18  20
ENDBRANCH  16  18
ENDBRANCH   7  16
TORSDOF 5
ENDMDL
MODEL      200
REMARK 921   NORMALIZED FREE ENERGY PREDICTED BY IDOCK:   -3.59 KCAL/MOL
REMARK 922        TOTAL FREE ENERGY PREDICTED BY IDOCK:   -5.94 KCAL/MOL
REMARK 923 INTER-LIGAND FREE ENERGY PREDICTED BY IDOCK:   -6.49 KCAL/MOL
REMARK 924 INTRA-LIGAND FREE ENERGY PREDICTED BY IDOCK:    0.56 KCAL/MOL
REMARK 927      BINDING AFFINITY PREDICTED BY RF-SCORE:    0.00 PKD
ROOT
HETATM    1  C   UNL     1      -9.356  11.662  68.375  1.00  0.00    -0.191 C  
HETATM    2  C   UNL     1      -8.700  12.964  68.102  1.00  0.00    -0.190 C  
HETATM    3  N   UNL     1      -9.241  14.147  68.129  1.00  0.00    -0.188 NA 
HETATM    4  N   UNL     1      -8.225  15.074  67.823  1.00  0.00    -0.144 N  
HETATM    5  O   UNL     1      -5.877  14.941  67.317  1.00  0.00    -0.310 OA 
HETATM    6  C   UNL     1      -6.979  14.510  67.595  1.00  0.00    -0.184 C  
HETATM    7  C   UNL     1      -7.264  13.057  67.743  1.00  0.00    -0.139 C  
ENDROOT
BRANCH   4   8
HETATM    8  C   UNL     1      -8.550  16.449  67.730  1.00  0.00    -0.168 A  
HETATM    9  C   UNL     1      -9.636  16.878  66.964  1.00  0.00    -0.252 A  
HETATM   10  C   UNL     1      -9.977  18.228  66.889  1.00  0.00    -0.356 A  
HETATM   11  C   UNL     1      -7.801  17.417  68.413  1.00  0.00    -0.257 A  
HETATM   12  C   UNL     1      -7.275  19.752  69.125  1.00  0.00    -0.319 C  
HETATM   13  C   UNL     1      -8.129  18.787  68.347  1.00  0.00    -0.371 A  
HETATM   14  C   UNL     1      -9.235  19.195  67.579  1.00  0.00    -0.344 A  
HETATM   15  C   UNL     1      -9.648  20.634  67.454  1.00  0.00    -0.544 C  
ENDBRANCH   4   8
BRANCH   7  16
HETATM   16  N   UNL     1      -6.476  12.041  67.582  1.00  0.00    -0.094 NA 
HETATM   17  H   UNL     1      -5.822  11.988  66.801  1.00  0.00     0.000 HD 
BRANCH  16  18
HETATM   18  N   UNL     1      -6.565  11.046  68.513  1.00  0.00    -0.057 NA 
HETATM   19  H   UNL     1      -6.552  11.277  69.506  1.00  0.00     0.000 HD 
BRANCH  18  20
HETATM   20  C   UNL     1      -6.676   9.698  68.108  1.00  0.00    -0.062 A  
HETATM   21  C   UNL     1      -7.308   8.729  68.911  1.00  0.00    -0.078 A  
HETATM   22  C   UNL     1      -7.513   7.398  68.496  1.00  0.00    -0.105 A  
HETATM   23  O   UNL     1      -7.748   9.116  70.161  1.00  0.00    -0.079 OA 
HETATM   24  C   UNL     1      -6.152   9.285  66.881  1.00  0.00    -0.064 A  
HETATM   25  C   UNL     1      -6.941   7.021  67.272  1.00  0.00    -0.078 A  
HETATM   26  H   UNL     1      -8.174   8.463  70.703  1.00  0.00     0.000 HD 
HETATM   27  C   UNL     1      -6.263   7.951  66.475  1.00  0.00    -0.046 A  
BRANCH  22  28
HETATM   28  C   UNL     1      -8.400   6.485  69.246  1.00  0.00    -0.123 A  
HETATM   29  C   UNL     1      -8.527   5.119  68.956  1.00  0.00    -0.090 A  
HETATM   30  C   UNL     1      -9.432   4.316  69.664  1.00  0.00    -0.258 A  
HETATM   31  C   UNL     1     -10.196   4.857  70.701  1.00  0.00    -0.282 A  
HETATM   32  C   UNL     1     -10.058   6.204  71.026  1.00  0.00    -0.231 A  
HETATM   33  C   UNL     1      -9.208   7.010  70.272  1.00  0.00    -0.156 A  
HETATM   34  C   UNL     1     -10.844   6.777  72.145  1.00  0.00    -0.227 C  
HETATM   35  O   UNL     1     -10.186   7.743  72.827  1.00  0.00    -0.246 OA 
HETATM   36  O   UNL     1     -11.955   6.390  72.438  1.00  0.00    -0.263 OA 
ENDBRANCH  22  28
ENDBRANCH  18  20
ENDBRANCH  16  18
ENDBRANCH   7  16
TORSDOF 5
ENDMDL
MODEL      201
REMARK 921   NORMALIZED FREE ENERGY PREDICTED BY IDOCK:   -3.59 KCAL/MOL
REMARK 922        TOTAL FREE ENERGY PREDICTED BY IDOCK:   -5.94 KCAL/MOL
REMARK 923 INTER-LIGAND FREE ENERGY PREDICTED BY IDOCK:   -5.42 KCAL/MOL
REMARK 924 INTRA-LIGAND FREE ENERGY PREDICTED BY IDOCK:   -0.52 KCAL/MOL
REMARK 927      BINDING AFFINITY PREDICTED BY RF-SCORE:    0.00 PKD
ROOT
HETATM    1  C   UNL     1      -6.113   5.439  74.108  1.00  0.00    -0.054 C  
HETATM    2  C   UNL     1      -6.761   5.256  72.786  1.00  0.00    -0.071 C  
HETATM    3  N   UNL     1      -6.341   4.532  71.789  1.00  0.00    -0.021 NA 
HETATM    4  N   UNL     1      -7.294   4.652  70.759  1.00  0.00    -0.051 N  
HETATM    5  O   UNL     1      -9.384   5.812  70.483  1.00  0.00    -0.157 OA 
HETATM    6  C   UNL     1      -8.378   5.461  71.068  1.00  0.00    -0.119 C  
HETATM    7  C   UNL     1      -8.038   5.926  72.440  1.00  0.00    -0.110 C  
ENDROOT
BRANCH   4   8
HETATM    8  C   UNL     1      -7.062   4.002  69.524  1.00  0.00    -0.046 A  
HETATM    9  C   UNL     1      -5.987   3.125  69.367  1.00  0.00    -0.024 A  
HETATM   10  C   UNL     1      -5.766   2.461  68.160  1.00  0.00    -0.019 A  
HETATM   11  C   UNL     1      -7.909   4.209  68.426  1.00  0.00    -0.073 A  
HETATM   12  C   UNL     1      -8.671   3.824  66.079  1.00  0.00    -0.117 C  
HETATM   13  C   UNL     1      -7.701   3.549  67.197  1.00  0.00    -0.079 A  
HETATM   14  C   UNL     1      -6.618   2.661  67.066  1.00  0.00    -0.036 A  
HETATM   15  C   UNL     1      -6.327   1.922  65.791  1.00  0.00    -0.023 C  
ENDBRANCH   4   8
BRANCH   7  16
HETATM   16  N   UNL     1      -8.668   6.756  73.210  1.00  0.00    -0.122 NA 
HETATM   17  H   UNL     1      -9.218   6.435  74.007  1.00  0.00     0.000 HD 
BRANCH  16  18
HETATM   18  N   UNL     1      -8.558   8.080  72.901  1.00  0.00    -0.176 NA 
HETATM   19  H   UNL     1      -7.800   8.633  73.301  1.00  0.00     0.000 HD 
BRANCH  18  20
HETATM   20  C   UNL     1      -9.488   8.690  72.030  1.00  0.00    -0.300 A  
HETATM   21  C   UNL     1      -9.078   9.442  70.912  1.00  0.00    -0.152 A  
HETATM   22  C   UNL     1      -9.980   9.986  69.977  1.00  0.00    -0.273 A  
HETATM   23  O   UNL     1      -7.724   9.646  70.734  1.00  0.00    -0.283 OA 
HETATM   24  C   UNL     1     -10.859   8.559  72.259  1.00  0.00    -0.418 A  
HETATM   25  C   UNL     1     -11.347   9.859  70.266  1.00  0.00    -0.357 A  
HETATM   26  H   UNL     1      -7.447  10.154  69.980  1.00  0.00     0.000 HD 
HETATM   27  C   UNL     1     -11.782   9.158  71.397  1.00  0.00    -0.413 A  
BRANCH  22  28
HETATM   28  C   UNL     1      -9.513  10.542  68.689  1.00  0.00    -0.172 A  
HETATM   29  C   UNL     1      -8.315  10.158  68.070  1.00  0.00    -0.117 A  
HETATM   30  C   UNL     1      -7.895  10.766  66.879  1.00  0.00    -0.130 A  
HETATM   31  C   UNL     1      -8.685  11.742  66.267  1.00  0.00    -0.106 A  
HETATM   32  C   UNL     1      -9.896  12.112  66.849  1.00  0.00    -0.213 A  
HETATM   33  C   UNL     1     -10.272  11.552  68.069  1.00  0.00    -0.205 A  
HETATM   34  C   UNL     1     -10.753  13.125  66.189  1.00  0.00    -0.278 C  
HETATM   35  O   UNL     1     -12.078  12.899  66.352  1.00  0.00    -0.401 OA 
HETATM   36  O   UNL     1     -10.307  14.045  65.536  1.00  0.00    -0.307 OA 
ENDBRANCH  22  28
ENDBRANCH  18  20
ENDBRANCH  16  18
ENDBRANCH   7  16
TORSDOF 5
ENDMDL
MODEL      202
REMARK 921   NORMALIZED FREE ENERGY PREDICTED BY IDOCK:   -3.56 KCAL/MOL
REMARK 922        TOTAL FREE ENERGY PREDICTED BY IDOCK:   -5.90 KCAL/MOL
REMARK 923 INTER-LIGAND FREE ENERGY PREDICTED BY IDOCK:   -5.64 KCAL/MOL
REMARK 924 INTRA-LIGAND FREE ENERGY PREDICTED BY IDOCK:   -0.27 KCAL/MOL
REMARK 927      BINDING AFFINITY PREDICTED BY RF-SCORE:    0.00 PKD
ROOT
HETATM    1  C   UNL     1     -10.575   5.159  70.654  1.00  0.00    -0.214 C  
HETATM    2  C   UNL     1     -10.168   5.611  69.302  1.00  0.00    -0.239 C  
HETATM    3  N   UNL     1      -9.362   5.012  68.473  1.00  0.00    -0.120 NA 
HETATM    4  N   UNL     1      -9.297   5.806  67.311  1.00  0.00    -0.112 N  
HETATM    5  O   UNL     1     -10.297   7.872  66.587  1.00  0.00    -0.291 OA 
HETATM    6  C   UNL     1     -10.075   6.954  67.353  1.00  0.00    -0.183 C  
HETATM    7  C   UNL     1     -10.667   6.879  68.716  1.00  0.00    -0.219 C  
ENDROOT
BRANCH   4   8
HETATM    8  C   UNL     1      -8.442   5.414  66.254  1.00  0.00    -0.117 A  
HETATM    9  C   UNL     1      -8.233   6.251  65.155  1.00  0.00    -0.138 A  
HETATM   10  C   UNL     1      -7.372   5.883  64.121  1.00  0.00    -0.064 A  
HETATM   11  C   UNL     1      -7.771   4.184  66.283  1.00  0.00    -0.090 A  
HETATM   12  C   UNL     1      -6.213   2.459  65.371  1.00  0.00    -0.023 C  
HETATM   13  C   UNL     1      -6.899   3.793  65.246  1.00  0.00    -0.053 A  
HETATM   14  C   UNL     1      -6.695   4.657  64.154  1.00  0.00    -0.044 A  
HETATM   15  C   UNL     1      -5.785   4.314  63.009  1.00  0.00    -0.013 C  
ENDBRANCH   4   8
BRANCH   7  16
HETATM   16  N   UNL     1     -11.440   7.720  69.328  1.00  0.00    -0.189 NA 
HETATM   17  H   UNL     1     -12.043   7.431  70.098  1.00  0.00     0.000 HD 
BRANCH  16  18
HETATM   18  N   UNL     1     -11.404   9.012  68.889  1.00  0.00    -0.274 NA 
HETATM   19  H   UNL     1     -11.073   9.220  67.947  1.00  0.00     0.000 HD 
BRANCH  18  20
HETATM   20  C   UNL     1     -11.823  10.064  69.734  1.00  0.00    -0.021 A  
HETATM   21  C   UNL     1     -11.417  11.396  69.520  1.00  0.00    -0.312 A  
HETATM   22  C   UNL     1     -11.889  12.478  70.290  1.00  0.00    -0.305 A  
HETATM   23  O   UNL     1     -10.517  11.640  68.502  1.00  0.00    -0.203 OA 
HETATM   24  C   UNL     1     -12.664   9.805  70.819  1.00  0.00    -0.251 A  
HETATM   25  C   UNL     1     -12.704  12.166  71.389  1.00  0.00    -0.368 A  
HETATM   26  H   UNL     1     -10.243  12.538  68.358  1.00  0.00     0.000 HD 
HETATM   27  C   UNL     1     -13.082  10.846  71.654  1.00  0.00    -0.538 A  
BRANCH  22  28
HETATM   28  C   UNL     1     -11.649  13.877  69.880  1.00  0.00    -0.310 A  
HETATM   29  C   UNL     1     -12.655  14.854  69.837  1.00  0.00    -0.205 A  
HETATM   30  C   UNL     1     -12.377  16.149  69.380  1.00  0.00     0.365 A  
HETATM   31  C   UNL     1     -11.082  16.502  68.997  1.00  0.00    -0.284 A  
HETATM   32  C   UNL     1     -10.062  15.555  69.066  1.00  0.00    -0.234 A  
HETATM   33  C   UNL     1     -10.361  14.251  69.455  1.00  0.00     0.007 A  
HETATM   34  C   UNL     1      -8.679  15.932  68.688  1.00  0.00    -0.199 C  
HETATM   35  O   UNL     1      -7.730  15.301  69.420  1.00  0.00    -0.200 OA 
HETATM   36  O   UNL     1      -8.428  16.752  67.831  1.00  0.00    -0.194 OA 
ENDBRANCH  22  28
ENDBRANCH  18  20
ENDBRANCH  16  18
ENDBRANCH   7  16
TORSDOF 5
ENDMDL
MODEL      203
REMARK 921   NORMALIZED FREE ENERGY PREDICTED BY IDOCK:   -3.52 KCAL/MOL
REMARK 922        TOTAL FREE ENERGY PREDICTED BY IDOCK:   -5.85 KCAL/MOL
REMARK 923 INTER-LIGAND FREE ENERGY PREDICTED BY IDOCK:   -6.27 KCAL/MOL
REMARK 924 INTRA-LIGAND FREE ENERGY PREDICTED BY IDOCK:    0.42 KCAL/MOL
REMARK 927      BINDING AFFINITY PREDICTED BY RF-SCORE:    0.00 PKD
ROOT
HETATM    1  C   UNL     1     -10.529  11.842  68.389  1.00  0.00    -0.231 C  
HETATM    2  C   UNL     1     -10.424  13.100  67.608  1.00  0.00    -0.221 C  
HETATM    3  N   UNL     1     -10.168  14.294  68.057  1.00  0.00    -0.223 NA 
HETATM    4  N   UNL     1     -10.150  15.159  66.945  1.00  0.00    -0.252 N  
HETATM    5  O   UNL     1     -10.455  14.908  64.571  1.00  0.00    -0.230 OA 
HETATM    6  C   UNL     1     -10.389  14.539  65.728  1.00  0.00    -0.331 C  
HETATM    7  C   UNL     1     -10.617  13.127  66.138  1.00  0.00    -0.279 C  
ENDROOT
BRANCH   4   8
HETATM    8  C   UNL     1      -9.945  16.544  67.150  1.00  0.00    -0.266 A  
HETATM    9  C   UNL     1      -9.214  17.004  68.248  1.00  0.00    -0.255 A  
HETATM   10  C   UNL     1      -8.985  18.366  68.444  1.00  0.00    -0.336 A  
HETATM   11  C   UNL     1     -10.454  17.493  66.253  1.00  0.00    -0.283 A  
HETATM   12  C   UNL     1     -10.812  19.817  65.413  1.00  0.00    -0.121 C  
HETATM   13  C   UNL     1     -10.236  18.874  66.435  1.00  0.00    -0.481 A  
HETATM   14  C   UNL     1      -9.487  19.314  67.542  1.00  0.00    -0.379 A  
HETATM   15  C   UNL     1      -9.212  20.767  67.809  1.00  0.00    -0.176 C  
ENDBRANCH   4   8
BRANCH   7  16
HETATM   16  N   UNL     1     -10.940  12.100  65.417  1.00  0.00    -0.293 NA 
HETATM   17  H   UNL     1     -11.892  11.734  65.401  1.00  0.00     0.000 HD 
BRANCH  16  18
HETATM   18  N   UNL     1      -9.941  11.533  64.679  1.00  0.00    -0.251 NA 
HETATM   19  H   UNL     1      -9.845  11.765  63.691  1.00  0.00     0.000 HD 
BRANCH  18  20
HETATM   20  C   UNL     1      -9.040  10.625  65.278  1.00  0.00    -0.195 A  
HETATM   21  C   UNL     1      -8.729   9.385  64.685  1.00  0.00    -0.200 A  
HETATM   22  C   UNL     1      -7.769   8.499  65.211  1.00  0.00    -0.097 A  
HETATM   23  O   UNL     1      -9.403   9.036  63.531  1.00  0.00    -0.338 OA 
HETATM   24  C   UNL     1      -8.424  10.939  66.492  1.00  0.00    -0.159 A  
HETATM   25  C   UNL     1      -7.201   8.840  66.448  1.00  0.00    -0.084 A  
HETATM   26  H   UNL     1      -9.194   8.200  63.132  1.00  0.00     0.000 HD 
HETATM   27  C   UNL     1      -7.529  10.043  67.084  1.00  0.00    -0.091 A  
BRANCH  22  28
HETATM   28  C   UNL     1      -7.284   7.339  64.434  1.00  0.00    -0.074 A  
HETATM   29  C   UNL     1      -6.674   7.451  63.176  1.00  0.00    -0.054 A  
HETATM   30  C   UNL     1      -6.290   6.309  62.460  1.00  0.00    -0.030 A  
HETATM   31  C   UNL     1      -6.474   5.037  63.007  1.00  0.00    -0.026 A  
HETATM   32  C   UNL     1      -7.047   4.907  64.270  1.00  0.00    -0.050 A  
HETATM   33  C   UNL     1      -7.488   6.044  64.945  1.00  0.00    -0.082 A  
HETATM   34  C   UNL     1      -7.218   3.562  64.868  1.00  0.00    -0.067 C  
HETATM   35  O   UNL     1      -7.067   3.547  66.214  1.00  0.00    -0.060 OA 
HETATM   36  O   UNL     1      -7.436   2.568  64.208  1.00  0.00    -0.060 OA 
ENDBRANCH  22  28
ENDBRANCH  18  20
ENDBRANCH  16  18
ENDBRANCH   7  16
TORSDOF 5
ENDMDL
MODEL      204
REMARK 921   NORMALIZED FREE ENERGY PREDICTED BY IDOCK:   -3.17 KCAL/MOL
REMARK 922        TOTAL FREE ENERGY PREDICTED BY IDOCK:   -5.40 KCAL/MOL
REMARK 923 INTER-LIGAND FREE ENERGY PREDICTED BY IDOCK:   -5.91 KCAL/MOL
REMARK 924 INTRA-LIGAND FREE ENERGY PREDICTED BY IDOCK:    0.50 KCAL/MOL
REMARK 927      BINDING AFFINITY PREDICTED BY RF-SCORE:    0.00 PKD
ROOT
HETATM    1  C   UNL     1      -9.249  11.691  68.377  1.00  0.00    -0.182 C  
HETATM    2  C   UNL     1      -8.631  13.001  68.056  1.00  0.00    -0.186 C  
HETATM    3  N   UNL     1      -9.211  14.167  68.029  1.00  0.00    -0.188 NA 
HETATM    4  N   UNL     1      -8.222  15.113  67.694  1.00  0.00    -0.153 N  
HETATM    5  O   UNL     1      -5.865  15.035  67.215  1.00  0.00    -0.318 OA 
HETATM    6  C   UNL     1      -6.956  14.581  67.501  1.00  0.00    -0.164 C  
HETATM    7  C   UNL     1      -7.195  13.127  67.706  1.00  0.00    -0.147 C  
ENDROOT
BRANCH   4   8
HETATM    8  C   UNL     1      -8.589  16.471  67.542  1.00  0.00    -0.177 A  
HETATM    9  C   UNL     1      -9.694  16.832  66.767  1.00  0.00    -0.273 A  
HETATM   10  C   UNL     1     -10.077  18.166  66.632  1.00  0.00    -0.376 A  
HETATM   11  C   UNL     1      -7.866  17.492  68.173  1.00  0.00    -0.244 A  
HETATM   12  C   UNL     1      -7.406  19.873  68.772  1.00  0.00    -0.286 C  
HETATM   13  C   UNL     1      -8.236  18.847  68.047  1.00  0.00    -0.323 A  
HETATM   14  C   UNL     1      -9.360  19.186  67.271  1.00  0.00    -0.351 A  
HETATM   15  C   UNL     1      -9.818  20.604  67.084  1.00  0.00    -0.497 C  
ENDBRANCH   4   8
BRANCH   7  16
HETATM   16  N   UNL     1      -6.374  12.131  67.595  1.00  0.00    -0.093 NA 
HETATM   17  H   UNL     1      -5.654  12.108  66.873  1.00  0.00     0.000 HD 
BRANCH  16  18
HETATM   18  N   UNL     1      -6.520  11.115  68.495  1.00  0.00    -0.056 NA 
HETATM   19  H   UNL     1      -6.696  11.328  69.477  1.00  0.00     0.000 HD 
BRANCH  18  20
HETATM   20  C   UNL     1      -6.430   9.770  68.074  1.00  0.00    -0.056 A  
HETATM   21  C   UNL     1      -7.046   8.724  68.788  1.00  0.00    -0.063 A  
HETATM   22  C   UNL     1      -7.049   7.386  68.346  1.00  0.00    -0.085 A  
HETATM   23  O   UNL     1      -7.679   9.039  69.975  1.00  0.00    -0.067 OA 
HETATM   24  C   UNL     1      -5.714   9.439  66.922  1.00  0.00    -0.051 A  
HETATM   25  C   UNL     1      -6.290   7.095  67.202  1.00  0.00    -0.053 A  
HETATM   26  H   UNL     1      -8.095   8.333  70.456  1.00  0.00     0.000 HD 
HETATM   27  C   UNL     1      -5.626   8.108  66.501  1.00  0.00    -0.032 A  
BRANCH  22  28
HETATM   28  C   UNL     1      -7.916   6.369  68.975  1.00  0.00    -0.111 A  
HETATM   29  C   UNL     1      -8.437   6.491  70.271  1.00  0.00    -0.135 A  
HETATM   30  C   UNL     1      -9.204   5.463  70.836  1.00  0.00    -0.183 A  
HETATM   31  C   UNL     1      -9.496   4.312  70.101  1.00  0.00    -0.252 A  
HETATM   32  C   UNL     1      -9.016   4.188  68.799  1.00  0.00    -0.160 A  
HETATM   33  C   UNL     1      -8.197   5.183  68.270  1.00  0.00    -0.093 A  
HETATM   34  C   UNL     1      -9.347   2.982  68.003  1.00  0.00    -0.201 C  
HETATM   35  O   UNL     1      -9.501   3.234  66.681  1.00  0.00    -0.173 OA 
HETATM   36  O   UNL     1      -9.500   1.885  68.496  1.00  0.00    -0.178 OA 
ENDBRANCH  22  28
ENDBRANCH  18  20
ENDBRANCH  16  18
ENDBRANCH   7  16
TORSDOF 5
ENDMDL
MODEL      205
REMARK 921   NORMALIZED FREE ENERGY PREDICTED BY IDOCK:   -3.01 KCAL/MOL
REMARK 922        TOTAL FREE ENERGY PREDICTED BY IDOCK:   -5.19 KCAL/MOL
REMARK 923 INTER-LIGAND FREE ENERGY PREDICTED BY IDOCK:   -5.24 KCAL/MOL
REMARK 924 INTRA-LIGAND FREE ENERGY PREDICTED BY IDOCK:    0.04 KCAL/MOL
REMARK 927      BINDING AFFINITY PREDICTED BY RF-SCORE:    0.00 PKD
ROOT
HETATM    1  C   UNL     1      -9.309  12.172  64.775  1.00  0.00     0.270 C  
HETATM    2  C   UNL     1      -8.651  11.005  65.411  1.00  0.00    -0.068 C  
HETATM    3  N   UNL     1      -8.770   9.750  65.086  1.00  0.00    -0.156 NA 
HETATM    4  N   UNL     1      -7.942   9.016  65.957  1.00  0.00    -0.101 N  
HETATM    5  O   UNL     1      -6.454   9.554  67.770  1.00  0.00    -0.058 OA 
HETATM    6  C   UNL     1      -7.246   9.785  66.878  1.00  0.00    -0.090 C  
HETATM    7  C   UNL     1      -7.728  11.158  66.562  1.00  0.00    -0.146 C  
ENDROOT
BRANCH   4   8
HETATM    8  C   UNL     1      -7.918   7.604  65.862  1.00  0.00    -0.116 A  
HETATM    9  C   UNL     1      -6.708   6.908  65.833  1.00  0.00    -0.052 A  
HETATM   10  C   UNL     1      -6.676   5.516  65.765  1.00  0.00    -0.056 A  
HETATM   11  C   UNL     1      -9.106   6.862  65.807  1.00  0.00     0.023 A  
HETATM   12  C   UNL     1     -10.421   4.742  65.693  1.00  0.00    -0.226 C  
HETATM   13  C   UNL     1      -9.095   5.454  65.735  1.00  0.00    -0.160 A  
HETATM   14  C   UNL     1      -7.864   4.773  65.719  1.00  0.00    -0.095 A  
HETATM   15  C   UNL     1      -7.766   3.276  65.642  1.00  0.00    -0.081 C  
ENDBRANCH   4   8
BRANCH   7  16
HETATM   16  N   UNL     1      -7.455  12.283  67.145  1.00  0.00    -0.272 NA 
HETATM   17  H   UNL     1      -6.561  12.753  67.010  1.00  0.00     0.000 HD 
BRANCH  16  18
HETATM   18  N   UNL     1      -8.427  12.805  67.949  1.00  0.00    -0.162 NA 
HETATM   19  H   UNL     1      -8.285  13.712  68.392  1.00  0.00     0.000 HD 
BRANCH  18  20
HETATM   20  C   UNL     1      -9.628  12.096  68.169  1.00  0.00    -0.208 A  
HETATM   21  C   UNL     1      -9.676  10.950  68.988  1.00  0.00    -0.166 A  
HETATM   22  C   UNL     1     -10.873  10.275  69.299  1.00  0.00    -0.275 A  
HETATM   23  O   UNL     1      -8.487  10.480  69.509  1.00  0.00    -0.304 OA 
HETATM   24  C   UNL     1     -10.817  12.519  67.571  1.00  0.00    -0.264 A  
HETATM   25  C   UNL     1     -12.036  10.715  68.649  1.00  0.00    -0.014 A  
HETATM   26  H   UNL     1      -8.519   9.708  70.060  1.00  0.00     0.000 HD 
HETATM   27  C   UNL     1     -12.009  11.820  67.791  1.00  0.00    -0.134 A  
BRANCH  22  28
HETATM   28  C   UNL     1     -10.924   9.245  70.357  1.00  0.00    -0.302 A  
HETATM   29  C   UNL     1     -11.626   9.406  71.560  1.00  0.00    -0.467 A  
HETATM   30  C   UNL     1     -11.586   8.418  72.553  1.00  0.00    -0.426 A  
HETATM   31  C   UNL     1     -10.876   7.234  72.343  1.00  0.00    -0.293 A  
HETATM   32  C   UNL     1     -10.200   7.040  71.140  1.00  0.00    -0.208 A  
HETATM   33  C   UNL     1     -10.188   8.057  70.188  1.00  0.00    -0.203 A  
HETATM   34  C   UNL     1      -9.470   5.773  70.900  1.00  0.00    -0.165 C  
HETATM   35  O   UNL     1      -9.496   5.373  69.606  1.00  0.00    -0.132 OA 
HETATM   36  O   UNL     1      -8.932   5.142  71.785  1.00  0.00    -0.132 OA 
ENDBRANCH  22  28
ENDBRANCH  18  20
ENDBRANCH  16  18
ENDBRANCH   7  16
TORSDOF 5
ENDMDL
MODEL      206
REMARK 921   NORMALIZED FREE ENERGY PREDICTED BY IDOCK:   -2.97 KCAL/MOL
REMARK 922        TOTAL FREE ENERGY PREDICTED BY IDOCK:   -5.15 KCAL/MOL
REMARK 923 INTER-LIGAND FREE ENERGY PREDICTED BY IDOCK:   -5.39 KCAL/MOL
REMARK 924 INTRA-LIGAND FREE ENERGY PREDICTED BY IDOCK:    0.24 KCAL/MOL
REMARK 927      BINDING AFFINITY PREDICTED BY RF-SCORE:    0.00 PKD
ROOT
HETATM    1  C   UNL     1      -9.646  10.378  69.682  1.00  0.00    -0.142 C  
HETATM    2  C   UNL     1      -8.968   9.083  69.934  1.00  0.00    -0.164 C  
HETATM    3  N   UNL     1      -9.517   7.947  70.256  1.00  0.00    -0.163 NA 
HETATM    4  N   UNL     1      -8.479   7.002  70.371  1.00  0.00    -0.139 N  
HETATM    5  O   UNL     1      -6.088   7.039  70.101  1.00  0.00    -0.024 OA 
HETATM    6  C   UNL     1      -7.211   7.504  70.114  1.00  0.00    -0.068 C  
HETATM    7  C   UNL     1      -7.494   8.939  69.843  1.00  0.00    -0.058 C  
ENDROOT
BRANCH   4   8
HETATM    8  C   UNL     1      -8.789   5.680  70.767  1.00  0.00    -0.139 A  
HETATM    9  C   UNL     1      -8.692   4.620  69.862  1.00  0.00    -0.116 A  
HETATM   10  C   UNL     1      -8.971   3.310  70.252  1.00  0.00    -0.170 A  
HETATM   11  C   UNL     1      -9.190   5.392  72.079  1.00  0.00    -0.152 A  
HETATM   12  C   UNL     1      -9.889   3.861  73.923  1.00  0.00    -0.151 C  
HETATM   13  C   UNL     1      -9.479   4.075  72.491  1.00  0.00    -0.178 A  
HETATM   14  C   UNL     1      -9.363   3.021  71.566  1.00  0.00    -0.203 A  
HETATM   15  C   UNL     1      -9.655   1.592  71.924  1.00  0.00    -0.178 C  
ENDBRANCH   4   8
BRANCH   7  16
HETATM   16  N   UNL     1      -6.673   9.910  69.596  1.00  0.00    -0.052 NA 
HETATM   17  H   UNL     1      -5.802  10.021  70.116  1.00  0.00     0.000 HD 
BRANCH  16  18
HETATM   18  N   UNL     1      -7.031  10.776  68.603  1.00  0.00    -0.066 NA 
HETATM   19  H   UNL     1      -7.488  10.424  67.763  1.00  0.00     0.000 HD 
BRANCH  18  20
HETATM   20  C   UNL     1      -6.771  12.158  68.734  1.00  0.00    -0.088 A  
HETATM   21  C   UNL     1      -7.758  13.129  68.470  1.00  0.00    -0.117 A  
HETATM   22  C   UNL     1      -7.557  14.508  68.678  1.00  0.00    -0.131 A  
HETATM   23  O   UNL     1      -8.978  12.694  67.991  1.00  0.00    -0.186 OA 
HETATM   24  C   UNL     1      -5.510  12.604  69.134  1.00  0.00    -0.070 A  
HETATM   25  C   UNL     1      -6.265  14.911  69.048  1.00  0.00    -0.097 A  
HETATM   26  H   UNL     1      -9.642  13.348  67.813  1.00  0.00     0.000 HD 
HETATM   27  C   UNL     1      -5.251  13.972  69.268  1.00  0.00    -0.081 A  
BRANCH  22  28
HETATM   28  C   UNL     1      -8.682  15.465  68.640  1.00  0.00    -0.191 A  
HETATM   29  C   UNL     1      -9.896  15.257  69.311  1.00  0.00    -0.255 A  
HETATM   30  C   UNL     1     -10.950  16.173  69.187  1.00  0.00    -0.309 A  
HETATM   31  C   UNL     1     -10.794  17.331  68.422  1.00  0.00    -0.273 A  
HETATM   32  C   UNL     1      -9.584  17.571  67.776  1.00  0.00    -0.269 A  
HETATM   33  C   UNL     1      -8.566  16.622  67.849  1.00  0.00    -0.196 A  
HETATM   34  C   UNL     1      -9.402  18.813  66.987  1.00  0.00    -0.297 C  
HETATM   35  O   UNL     1      -8.140  19.302  67.034  1.00  0.00    -0.254 OA 
HETATM   36  O   UNL     1     -10.307  19.354  66.389  1.00  0.00    -0.406 OA 
ENDBRANCH  22  28
ENDBRANCH  18  20
ENDBRANCH  16  18
ENDBRANCH   7  16
TORSDOF 5
ENDMDL
MODEL      207
REMARK 921   NORMALIZED FREE ENERGY PREDICTED BY IDOCK:   -2.93 KCAL/MOL
REMARK 922        TOTAL FREE ENERGY PREDICTED BY IDOCK:   -5.08 KCAL/MOL
REMARK 923 INTER-LIGAND FREE ENERGY PREDICTED BY IDOCK:   -4.63 KCAL/MOL
REMARK 924 INTRA-LIGAND FREE ENERGY PREDICTED BY IDOCK:   -0.45 KCAL/MOL
REMARK 927      BINDING AFFINITY PREDICTED BY RF-SCORE:    0.00 PKD
ROOT
HETATM    1  C   UNL     1      -6.691   7.651  72.125  1.00  0.00    -0.056 C  
HETATM    2  C   UNL     1      -7.904   8.062  71.377  1.00  0.00    -0.094 C  
HETATM    3  N   UNL     1      -8.325   9.272  71.148  1.00  0.00    -0.315 NA 
HETATM    4  N   UNL     1      -9.503   9.164  70.383  1.00  0.00    -0.208 N  
HETATM    5  O   UNL     1     -10.792   7.351  69.465  1.00  0.00    -0.236 OA 
HETATM    6  C   UNL     1      -9.878   7.863  70.083  1.00  0.00    -0.184 C  
HETATM    7  C   UNL     1      -8.827   7.069  70.774  1.00  0.00    -0.149 C  
ENDROOT
BRANCH   4   8
HETATM    8  C   UNL     1     -10.209  10.339  70.032  1.00  0.00    -0.162 A  
HETATM    9  C   UNL     1      -9.863  11.069  68.892  1.00  0.00    -0.189 A  
HETATM   10  C   UNL     1     -10.571  12.214  68.525  1.00  0.00    -0.252 A  
HETATM   11  C   UNL     1     -11.283  10.797  70.807  1.00  0.00     0.077 A  
HETATM   12  C   UNL     1     -13.154  12.362  71.341  1.00  0.00    -0.299 C  
HETATM   13  C   UNL     1     -12.009  11.954  70.454  1.00  0.00    -0.400 A  
HETATM   14  C   UNL     1     -11.650  12.667  69.296  1.00  0.00    -0.376 A  
HETATM   15  C   UNL     1     -12.370  13.909  68.853  1.00  0.00    -0.089 C  
ENDBRANCH   4   8
BRANCH   7  16
HETATM   16  N   UNL     1      -8.701   5.784  70.884  1.00  0.00    -0.133 NA 
HETATM   17  H   UNL     1      -7.948   5.364  71.429  1.00  0.00     0.000 HD 
BRANCH  16  18
HETATM   18  N   UNL     1      -9.627   5.022  70.232  1.00  0.00    -0.171 NA 
HETATM   19  H   UNL     1     -10.580   4.966  70.590  1.00  0.00     0.000 HD 
BRANCH  18  20
HETATM   20  C   UNL     1      -9.272   4.310  69.065  1.00  0.00    -0.145 A  
HETATM   21  C   UNL     1      -8.581   4.923  68.002  1.00  0.00    -0.102 A  
HETATM   22  C   UNL     1      -8.135   4.219  66.866  1.00  0.00    -0.101 A  
HETATM   23  O   UNL     1      -8.330   6.278  68.092  1.00  0.00    -0.114 OA 
HETATM   24  C   UNL     1      -9.604   2.960  68.934  1.00  0.00    -0.061 A  
HETATM   25  C   UNL     1      -8.520   2.874  66.762  1.00  0.00    -0.101 A  
HETATM   26  H   UNL     1      -7.864   6.691  67.375  1.00  0.00     0.000 HD 
HETATM   27  C   UNL     1      -9.251   2.253  67.780  1.00  0.00    -0.226 A  
BRANCH  22  28
HETATM   28  C   UNL     1      -7.196   4.829  65.901  1.00  0.00    -0.076 A  
HETATM   29  C   UNL     1      -6.062   4.171  65.404  1.00  0.00    -0.024 A  
HETATM   30  C   UNL     1      -5.175   4.824  64.538  1.00  0.00    -0.012 A  
HETATM   31  C   UNL     1      -5.428   6.133  64.122  1.00  0.00    -0.018 A  
HETATM   32  C   UNL     1      -6.568   6.792  64.578  1.00  0.00    -0.042 A  
HETATM   33  C   UNL     1      -7.407   6.159  65.493  1.00  0.00    -0.080 A  
HETATM   34  C   UNL     1      -6.857   8.170  64.118  1.00  0.00    -0.066 C  
HETATM   35  O   UNL     1      -8.180   8.427  63.982  1.00  0.00    -0.159 OA 
HETATM   36  O   UNL     1      -5.990   8.976  63.854  1.00  0.00    -0.071 OA 
ENDBRANCH  22  28
ENDBRANCH  18  20
ENDBRANCH  16  18
ENDBRANCH   7  16
TORSDOF 5
ENDMDL
MODEL      208
REMARK 921   NORMALIZED FREE ENERGY PREDICTED BY IDOCK:   -2.80 KCAL/MOL
REMARK 922        TOTAL FREE ENERGY PREDICTED BY IDOCK:   -4.92 KCAL/MOL
REMARK 923 INTER-LIGAND FREE ENERGY PREDICTED BY IDOCK:   -4.65 KCAL/MOL
REMARK 924 INTRA-LIGAND FREE ENERGY PREDICTED BY IDOCK:   -0.27 KCAL/MOL
REMARK 927      BINDING AFFINITY PREDICTED BY RF-SCORE:    0.00 PKD
ROOT
HETATM    1  C   UNL     1      -8.412   8.555  71.208  1.00  0.00    -0.203 C  
HETATM    2  C   UNL     1      -9.154   9.268  70.139  1.00  0.00    -0.222 C  
HETATM    3  N   UNL     1      -9.285  10.554  69.984  1.00  0.00     0.269 NA 
HETATM    4  N   UNL     1     -10.056  10.755  68.822  1.00  0.00    -0.183 N  
HETATM    5  O   UNL     1     -11.087   9.331  67.180  1.00  0.00    -0.020 OA 
HETATM    6  C   UNL     1     -10.443   9.590  68.178  1.00  0.00    -0.223 C  
HETATM    7  C   UNL     1      -9.874   8.540  69.066  1.00  0.00    -0.183 C  
ENDROOT
BRANCH   4   8
HETATM    8  C   UNL     1     -10.400  12.074  68.442  1.00  0.00    -0.214 A  
HETATM    9  C   UNL     1     -11.737  12.470  68.360  1.00  0.00    -0.375 A  
HETATM   10  C   UNL     1     -12.084  13.775  68.011  1.00  0.00    -0.315 A  
HETATM   11  C   UNL     1      -9.412  13.024  68.149  1.00  0.00    -0.218 A  
HETATM   12  C   UNL     1      -8.614  15.302  67.508  1.00  0.00    -0.190 C  
HETATM   13  C   UNL     1      -9.743  14.348  67.792  1.00  0.00    -0.221 A  
HETATM   14  C   UNL     1     -11.096  14.727  67.728  1.00  0.00    -0.306 A  
HETATM   15  C   UNL     1     -11.532  16.115  67.353  1.00  0.00     0.178 C  
ENDBRANCH   4   8
BRANCH   7  16
HETATM   16  N   UNL     1      -9.972   7.250  68.987  1.00  0.00    -0.172 NA 
HETATM   17  H   UNL     1      -9.452   6.634  69.612  1.00  0.00     0.000 HD 
BRANCH  16  18
HETATM   18  N   UNL     1     -10.806   6.758  68.025  1.00  0.00    -0.380 NA 
HETATM   19  H   UNL     1     -11.815   6.856  68.130  1.00  0.00     0.000 HD 
BRANCH  18  20
HETATM   20  C   UNL     1     -10.278   6.115  66.884  1.00  0.00    -0.208 A  
HETATM   21  C   UNL     1      -9.268   6.704  66.098  1.00  0.00    -0.087 A  
HETATM   22  C   UNL     1      -8.660   6.049  65.008  1.00  0.00    -0.043 A  
HETATM   23  O   UNL     1      -8.861   7.982  66.424  1.00  0.00    -0.140 OA 
HETATM   24  C   UNL     1     -10.753   4.858  66.500  1.00  0.00    -0.120 A  
HETATM   25  C   UNL     1      -9.191   4.804  64.640  1.00  0.00    -0.081 A  
HETATM   26  H   UNL     1      -8.180   8.379  65.894  1.00  0.00     0.000 HD 
HETATM   27  C   UNL     1     -10.229   4.218  65.373  1.00  0.00    -0.235 A  
BRANCH  22  28
HETATM   28  C   UNL     1      -7.438   6.584  64.373  1.00  0.00    -0.091 A  
HETATM   29  C   UNL     1      -6.301   5.808  64.108  1.00  0.00    -0.029 A  
HETATM   30  C   UNL     1      -5.148   6.387  63.559  1.00  0.00    -0.018 A  
HETATM   31  C   UNL     1      -5.127   7.744  63.230  1.00  0.00    -0.038 A  
HETATM   32  C   UNL     1      -6.259   8.524  63.454  1.00  0.00    -0.081 A  
HETATM   33  C   UNL     1      -7.376   7.956  64.064  1.00  0.00    -0.101 A  
HETATM   34  C   UNL     1      -6.252   9.958  63.080  1.00  0.00    -0.119 C  
HETATM   35  O   UNL     1      -7.454  10.408  62.649  1.00  0.00    -0.139 OA 
HETATM   36  O   UNL     1      -5.256  10.648  63.123  1.00  0.00    -0.146 OA 
ENDBRANCH  22  28
ENDBRANCH  18  20
ENDBRANCH  16  18
ENDBRANCH   7  16
TORSDOF 5
ENDMDL
MODEL      209
REMARK 921   NORMALIZED FREE ENERGY PREDICTED BY IDOCK:   -2.69 KCAL/MOL
REMARK 922        TOTAL FREE ENERGY PREDICTED BY IDOCK:   -4.78 KCAL/MOL
REMARK 923 INTER-LIGAND FREE ENERGY PREDICTED BY IDOCK:   -4.36 KCAL/MOL
REMARK 924 INTRA-LIGAND FREE ENERGY PREDICTED BY IDOCK:   -0.42 KCAL/MOL
REMARK 927      BINDING AFFINITY PREDICTED BY RF-SCORE:    0.00 PKD
ROOT
HETATM    1  C   UNL     1      -9.654  10.991  68.932  1.00  0.00    -0.174 C  
HETATM    2  C   UNL     1      -9.413   9.552  69.200  1.00  0.00    -0.163 C  
HETATM    3  N   UNL     1     -10.028   8.789  70.057  1.00  0.00    -0.182 NA 
HETATM    4  N   UNL     1      -9.471   7.500  69.939  1.00  0.00    -0.161 N  
HETATM    5  O   UNL     1      -7.763   6.488  68.580  1.00  0.00    -0.101 OA 
HETATM    6  C   UNL     1      -8.471   7.389  68.984  1.00  0.00    -0.129 C  
HETATM    7  C   UNL     1      -8.373   8.783  68.473  1.00  0.00    -0.129 C  
ENDROOT
BRANCH   4   8
HETATM    8  C   UNL     1      -9.922   6.472  70.800  1.00  0.00    -0.184 A  
HETATM    9  C   UNL     1     -11.183   6.539  71.397  1.00  0.00    -0.331 A  
HETATM   10  C   UNL     1     -11.645   5.517  72.226  1.00  0.00    -0.176 A  
HETATM   11  C   UNL     1      -9.125   5.350  71.068  1.00  0.00    -0.167 A  
HETATM   12  C   UNL     1      -8.653   3.137  72.124  1.00  0.00    -0.092 C  
HETATM   13  C   UNL     1      -9.573   4.308  71.905  1.00  0.00    -0.212 A  
HETATM   14  C   UNL     1     -10.852   4.392  72.486  1.00  0.00    -0.105 A  
HETATM   15  C   UNL     1     -11.402   3.326  73.391  1.00  0.00    -0.200 C  
ENDBRANCH   4   8
BRANCH   7  16
HETATM   16  N   UNL     1      -7.560   9.287  67.598  1.00  0.00    -0.088 NA 
HETATM   17  H   UNL     1      -6.555   9.117  67.641  1.00  0.00     0.000 HD 
BRANCH  16  18
HETATM   18  N   UNL     1      -8.118  10.054  66.617  1.00  0.00    -0.117 NA 
HETATM   19  H   UNL     1      -8.427  11.003  66.829  1.00  0.00     0.000 HD 
BRANCH  18  20
HETATM   20  C   UNL     1      -8.269   9.542  65.310  1.00  0.00    -0.130 A  
HETATM   21  C   UNL     1      -7.658   8.338  64.907  1.00  0.00    -0.097 A  
HETATM   22  C   UNL     1      -7.862   7.757  63.640  1.00  0.00    -0.128 A  
HETATM   23  O   UNL     1      -6.825   7.706  65.809  1.00  0.00    -0.052 OA 
HETATM   24  C   UNL     1      -9.039  10.228  64.368  1.00  0.00    -0.275 A  
HETATM   25  C   UNL     1      -8.616   8.497  62.717  1.00  0.00    -0.051 A  
HETATM   26  H   UNL     1      -6.413   6.894  65.537  1.00  0.00     0.000 HD 
HETATM   27  C   UNL     1      -9.193   9.721  63.074  1.00  0.00    -0.226 A  
BRANCH  22  28
HETATM   28  C   UNL     1      -7.420   6.378  63.345  1.00  0.00    -0.073 A  
HETATM   29  C   UNL     1      -6.210   6.074  62.704  1.00  0.00    -0.026 A  
HETATM   30  C   UNL     1      -5.874   4.749  62.396  1.00  0.00    -0.014 A  
HETATM   31  C   UNL     1      -6.723   3.702  62.759  1.00  0.00    -0.030 A  
HETATM   32  C   UNL     1      -7.914   3.981  63.427  1.00  0.00    -0.083 A  
HETATM   33  C   UNL     1      -8.272   5.306  63.667  1.00  0.00    -0.126 A  
HETATM   34  C   UNL     1      -8.805   2.872  63.841  1.00  0.00    -0.093 C  
HETATM   35  O   UNL     1      -9.453   3.107  65.007  1.00  0.00    -0.152 OA 
HETATM   36  O   UNL     1      -8.914   1.840  63.212  1.00  0.00    -0.086 OA 
ENDBRANCH  22  28
ENDBRANCH  18  20
ENDBRANCH  16  18
ENDBRANCH   7  16
TORSDOF 5
ENDMDL
MODEL      210
REMARK 921   NORMALIZED FREE ENERGY PREDICTED BY IDOCK:   -2.67 KCAL/MOL
REMARK 922        TOTAL FREE ENERGY PREDICTED BY IDOCK:   -4.75 KCAL/MOL
REMARK 923 INTER-LIGAND FREE ENERGY PREDICTED BY IDOCK:   -5.41 KCAL/MOL
REMARK 924 INTRA-LIGAND FREE ENERGY PREDICTED BY IDOCK:    0.66 KCAL/MOL
REMARK 927      BINDING AFFINITY PREDICTED BY RF-SCORE:    0.00 PKD
ROOT
HETATM    1  C   UNL     1     -11.974  11.050  67.597  1.00  0.00     0.322 C  
HETATM    2  C   UNL     1     -11.327  12.274  68.127  1.00  0.00    -0.295 C  
HETATM    3  N   UNL     1     -10.588  13.127  67.478  1.00  0.00    -0.233 NA 
HETATM    4  N   UNL     1     -10.216  14.133  68.392  1.00  0.00    -0.241 N  
HETATM    5  O   UNL     1     -10.642  14.580  70.717  1.00  0.00     0.363 OA 
HETATM    6  C   UNL     1     -10.718  13.962  69.673  1.00  0.00     0.166 C  
HETATM    7  C   UNL     1     -11.461  12.679  69.548  1.00  0.00    -0.225 C  
ENDROOT
BRANCH   4   8
HETATM    8  C   UNL     1      -9.358  15.173  67.963  1.00  0.00    -0.187 A  
HETATM    9  C   UNL     1      -8.263  14.904  67.138  1.00  0.00    -0.244 A  
HETATM   10  C   UNL     1      -7.428  15.926  66.690  1.00  0.00    -0.093 A  
HETATM   11  C   UNL     1      -9.587  16.503  68.340  1.00  0.00    -0.233 A  
HETATM   12  C   UNL     1      -9.085  18.950  68.346  1.00  0.00    -0.383 C  
HETATM   13  C   UNL     1      -8.752  17.551  67.899  1.00  0.00    -0.247 A  
HETATM   14  C   UNL     1      -7.662  17.257  67.060  1.00  0.00    -0.227 A  
HETATM   15  C   UNL     1      -6.725  18.315  66.550  1.00  0.00    -0.241 C  
ENDBRANCH   4   8
BRANCH   7  16
HETATM   16  N   UNL     1     -12.090  11.997  70.453  1.00  0.00    -0.401 NA 
HETATM   17  H   UNL     1     -12.201  12.346  71.405  1.00  0.00     0.000 HD 
BRANCH  16  18
HETATM   18  N   UNL     1     -12.596  10.790  70.066  1.00  0.00    -0.415 NA 
HETATM   19  H   UNL     1     -13.255  10.742  69.289  1.00  0.00     0.000 HD 
BRANCH  18  20
HETATM   20  C   UNL     1     -12.214   9.608  70.737  1.00  0.00    -0.230 A  
HETATM   21  C   UNL     1     -11.079   8.868  70.351  1.00  0.00    -0.239 A  
HETATM   22  C   UNL     1     -10.622   7.736  71.055  1.00  0.00    -0.226 A  
HETATM   23  O   UNL     1     -10.388   9.285  69.231  1.00  0.00    -0.202 OA 
HETATM   24  C   UNL     1     -12.964   9.135  71.816  1.00  0.00    -0.448 A  
HETATM   25  C   UNL     1     -11.424   7.279  72.111  1.00  0.00    -0.310 A  
HETATM   26  H   UNL     1      -9.623   8.786  68.971  1.00  0.00     0.000 HD 
HETATM   27  C   UNL     1     -12.585   7.966  72.484  1.00  0.00    -0.074 A  
BRANCH  22  28
HETATM   28  C   UNL     1      -9.296   7.143  70.782  1.00  0.00    -0.160 A  
HETATM   29  C   UNL     1      -8.189   7.301  71.629  1.00  0.00    -0.104 A  
HETATM   30  C   UNL     1      -6.940   6.765  71.285  1.00  0.00    -0.074 A  
HETATM   31  C   UNL     1      -6.786   6.030  70.108  1.00  0.00    -0.057 A  
HETATM   32  C   UNL     1      -7.883   5.833  69.271  1.00  0.00    -0.090 A  
HETATM   33  C   UNL     1      -9.103   6.428  69.586  1.00  0.00    -0.143 A  
HETATM   34  C   UNL     1      -7.732   5.029  68.035  1.00  0.00    -0.083 C  
HETATM   35  O   UNL     1      -8.838   4.312  67.721  1.00  0.00    -0.103 OA 
HETATM   36  O   UNL     1      -6.706   4.991  67.391  1.00  0.00    -0.052 OA 
ENDBRANCH  22  28
ENDBRANCH  18  20
ENDBRANCH  16  18
ENDBRANCH   7  16
TORSDOF 5
ENDMDL
MODEL      211
REMARK 921   NORMALIZED FREE ENERGY PREDICTED BY IDOCK:   -2.55 KCAL/MOL
REMARK 922        TOTAL FREE ENERGY PREDICTED BY IDOCK:   -4.59 KCAL/MOL
REMARK 923 INTER-LIGAND FREE ENERGY PREDICTED BY IDOCK:   -4.38 KCAL/MOL
REMARK 924 INTRA-LIGAND FREE ENERGY PREDICTED BY IDOCK:   -0.22 KCAL/MOL
REMARK 927      BINDING AFFINITY PREDICTED BY RF-SCORE:    0.00 PKD
ROOT
HETATM    1  C   UNL     1     -10.449   4.482  70.203  1.00  0.00     0.274 C  
HETATM    2  C   UNL     1     -10.095   5.362  69.062  1.00  0.00    -0.213 C  
HETATM    3  N   UNL     1      -9.094   5.233  68.241  1.00  0.00    -0.109 NA 
HETATM    4  N   UNL     1      -9.179   6.290  67.314  1.00  0.00    -0.118 N  
HETATM    5  O   UNL     1     -10.682   8.133  66.948  1.00  0.00    -0.309 OA 
HETATM    6  C   UNL     1     -10.258   7.140  67.506  1.00  0.00    -0.212 C  
HETATM    7  C   UNL     1     -10.898   6.560  68.718  1.00  0.00    -0.299 C  
ENDROOT
BRANCH   4   8
HETATM    8  C   UNL     1      -8.175   6.426  66.327  1.00  0.00    -0.118 A  
HETATM    9  C   UNL     1      -7.744   5.323  65.586  1.00  0.00    -0.087 A  
HETATM   10  C   UNL     1      -6.772   5.454  64.594  1.00  0.00    -0.047 A  
HETATM   11  C   UNL     1      -7.593   7.672  66.053  1.00  0.00    -0.088 A  
HETATM   12  C   UNL     1      -6.049   9.202  64.823  1.00  0.00    -0.066 C  
HETATM   13  C   UNL     1      -6.608   7.824  65.055  1.00  0.00    -0.047 A  
HETATM   14  C   UNL     1      -6.197   6.700  64.314  1.00  0.00    -0.035 A  
HETATM   15  C   UNL     1      -5.152   6.777  63.237  1.00  0.00    -0.027 C  
ENDBRANCH   4   8
BRANCH   7  16
HETATM   16  N   UNL     1     -11.924   6.978  69.390  1.00  0.00    -0.228 NA 
HETATM   17  H   UNL     1     -12.441   6.362  70.017  1.00  0.00     0.000 HD 
BRANCH  16  18
HETATM   18  N   UNL     1     -12.277   8.285  69.216  1.00  0.00     1.486 NA 
HETATM   19  H   UNL     1     -12.367   8.665  68.274  1.00  0.00     0.000 HD 
BRANCH  18  20
HETATM   20  C   UNL     1     -12.518   9.115  70.333  1.00  0.00     0.371 A  
HETATM   21  C   UNL     1     -12.283  10.503  70.293  1.00  0.00    -0.311 A  
HETATM   22  C   UNL     1     -12.598  11.368  71.360  1.00  0.00    -0.439 A  
HETATM   23  O   UNL     1     -11.723  11.029  69.146  1.00  0.00    -0.284 OA 
HETATM   24  C   UNL     1     -13.002   8.570  71.525  1.00  0.00    -0.328 A  
HETATM   25  C   UNL     1     -13.049  10.773  72.547  1.00  0.00     0.504 A  
HETATM   26  H   UNL     1     -11.564  11.966  69.120  1.00  0.00     0.000 HD 
HETATM   27  C   UNL     1     -13.244   9.389  72.631  1.00  0.00    -0.277 A  
BRANCH  22  28
HETATM   28  C   UNL     1     -12.582  12.836  71.192  1.00  0.00    -0.365 A  
HETATM   29  C   UNL     1     -13.284  13.718  72.026  1.00  0.00    -0.520 A  
HETATM   30  C   UNL     1     -13.280  15.098  71.778  1.00  0.00    -0.484 A  
HETATM   31  C   UNL     1     -12.542  15.623  70.715  1.00  0.00    -0.482 A  
HETATM   32  C   UNL     1     -11.810  14.766  69.896  1.00  0.00    -0.364 A  
HETATM   33  C   UNL     1     -11.875  13.390  70.108  1.00  0.00    -0.342 A  
HETATM   34  C   UNL     1     -11.000  15.320  68.785  1.00  0.00    -0.260 C  
HETATM   35  O   UNL     1      -9.857  14.631  68.555  1.00  0.00    -0.216 OA 
HETATM   36  O   UNL     1     -11.317  16.315  68.168  1.00  0.00    -0.337 OA 
ENDBRANCH  22  28
ENDBRANCH  18  20
ENDBRANCH  16  18
ENDBRANCH   7  16
TORSDOF 5
ENDMDL
MODEL      212
REMARK 921   NORMALIZED FREE ENERGY PREDICTED BY IDOCK:   -2.45 KCAL/MOL
REMARK 922        TOTAL FREE ENERGY PREDICTED BY IDOCK:   -4.46 KCAL/MOL
REMARK 923 INTER-LIGAND FREE ENERGY PREDICTED BY IDOCK:   -3.92 KCAL/MOL
REMARK 924 INTRA-LIGAND FREE ENERGY PREDICTED BY IDOCK:   -0.54 KCAL/MOL
REMARK 927      BINDING AFFINITY PREDICTED BY RF-SCORE:    0.00 PKD
ROOT
HETATM    1  C   UNL     1      -7.951   2.715  72.319  1.00  0.00    -0.054 C  
HETATM    2  C   UNL     1      -7.452   3.203  71.010  1.00  0.00    -0.036 C  
HETATM    3  N   UNL     1      -7.538   2.607  69.855  1.00  0.00    -0.043 NA 
HETATM    4  N   UNL     1      -6.945   3.461  68.904  1.00  0.00    -0.045 N  
HETATM    5  O   UNL     1      -5.901   5.628  68.959  1.00  0.00    -0.014 OA 
HETATM    6  C   UNL     1      -6.459   4.652  69.422  1.00  0.00    -0.036 C  
HETATM    7  C   UNL     1      -6.755   4.505  70.873  1.00  0.00    -0.035 C  
ENDROOT
BRANCH   4   8
HETATM    8  C   UNL     1      -6.852   3.035  67.558  1.00  0.00    -0.045 A  
HETATM    9  C   UNL     1      -5.636   2.601  67.026  1.00  0.00    -0.018 A  
HETATM   10  C   UNL     1      -5.542   2.156  65.708  1.00  0.00    -0.016 A  
HETATM   11  C   UNL     1      -7.978   3.024  66.723  1.00  0.00    -0.080 A  
HETATM   12  C   UNL     1      -9.166   2.593  64.569  1.00  0.00    -0.134 C  
HETATM   13  C   UNL     1      -7.902   2.580  65.386  1.00  0.00    -0.078 A  
HETATM   14  C   UNL     1      -6.669   2.136  64.876  1.00  0.00    -0.034 A  
HETATM   15  C   UNL     1      -6.504   1.651  63.463  1.00  0.00    -0.014 C  
ENDBRANCH   4   8
BRANCH   7  16
HETATM   16  N   UNL     1      -6.471   5.297  71.858  1.00  0.00    -0.038 NA 
HETATM   17  H   UNL     1      -6.361   4.949  72.810  1.00  0.00     0.000 HD 
BRANCH  16  18
HETATM   18  N   UNL     1      -6.326   6.620  71.555  1.00  0.00    -0.041 NA 
HETATM   19  H   UNL     1      -5.393   7.016  71.445  1.00  0.00     0.000 HD 
BRANCH  18  20
HETATM   20  C   UNL     1      -7.462   7.444  71.396  1.00  0.00    -0.080 A  
HETATM   21  C   UNL     1      -7.421   8.628  70.634  1.00  0.00    -0.074 A  
HETATM   22  C   UNL     1      -8.557   9.422  70.383  1.00  0.00    -0.266 A  
HETATM   23  O   UNL     1      -6.203   9.015  70.111  1.00  0.00    -0.036 OA 
HETATM   24  C   UNL     1      -8.674   7.099  71.999  1.00  0.00    -0.130 A  
HETATM   25  C   UNL     1      -9.743   9.056  71.036  1.00  0.00    -0.348 A  
HETATM   26  H   UNL     1      -6.175   9.814  69.598  1.00  0.00     0.000 HD 
HETATM   27  C   UNL     1      -9.801   7.912  71.839  1.00  0.00    -0.233 A  
BRANCH  22  28
HETATM   28  C   UNL     1      -8.533  10.504  69.376  1.00  0.00    -0.106 A  
HETATM   29  C   UNL     1      -7.355  11.121  68.932  1.00  0.00    -0.110 A  
HETATM   30  C   UNL     1      -7.402  12.185  68.020  1.00  0.00    -0.105 A  
HETATM   31  C   UNL     1      -8.624  12.624  67.508  1.00  0.00    -0.185 A  
HETATM   32  C   UNL     1      -9.803  12.001  67.912  1.00  0.00    -0.196 A  
HETATM   33  C   UNL     1      -9.753  10.990  68.870  1.00  0.00    -0.184 A  
HETATM   34  C   UNL     1     -11.101  12.443  67.349  1.00  0.00    -0.272 C  
HETATM   35  O   UNL     1     -11.992  11.435  67.193  1.00  0.00    -0.532 OA 
HETATM   36  O   UNL     1     -11.327  13.590  67.028  1.00  0.00    -0.302 OA 
ENDBRANCH  22  28
ENDBRANCH  18  20
ENDBRANCH  16  18
ENDBRANCH   7  16
TORSDOF 5
ENDMDL
MODEL      213
REMARK 921   NORMALIZED FREE ENERGY PREDICTED BY IDOCK:   -2.36 KCAL/MOL
REMARK 922        TOTAL FREE ENERGY PREDICTED BY IDOCK:   -4.36 KCAL/MOL
REMARK 923 INTER-LIGAND FREE ENERGY PREDICTED BY IDOCK:   -4.46 KCAL/MOL
REMARK 924 INTRA-LIGAND FREE ENERGY PREDICTED BY IDOCK:    0.10 KCAL/MOL
REMARK 927      BINDING AFFINITY PREDICTED BY RF-SCORE:    0.00 PKD
ROOT
HETATM    1  C   UNL     1     -10.243  16.927  69.825  1.00  0.00     0.054 C  
HETATM    2  C   UNL     1     -10.008  15.930  68.751  1.00  0.00    -0.220 C  
HETATM    3  N   UNL     1     -10.870  15.474  67.889  1.00  0.00    -0.298 NA 
HETATM    4  N   UNL     1     -10.183  14.567  67.057  1.00  0.00    -0.260 N  
HETATM    5  O   UNL     1      -7.922  13.759  66.899  1.00  0.00    -0.013 OA 
HETATM    6  C   UNL     1      -8.838  14.415  67.357  1.00  0.00    -0.203 C  
HETATM    7  C   UNL     1      -8.679  15.308  68.536  1.00  0.00    -0.176 C  
ENDROOT
BRANCH   4   8
HETATM    8  C   UNL     1     -10.898  13.874  66.052  1.00  0.00    -0.290 A  
HETATM    9  C   UNL     1     -12.295  13.866  66.043  1.00  0.00    -0.511 A  
HETATM   10  C   UNL     1     -13.007  13.207  65.041  1.00  0.00    -0.221 A  
HETATM   11  C   UNL     1     -10.229  13.188  65.029  1.00  0.00    -0.296 A  
HETATM   12  C   UNL     1     -10.127  11.815  62.946  1.00  0.00    -0.101 C  
HETATM   13  C   UNL     1     -10.931  12.514  64.009  1.00  0.00    -0.443 A  
HETATM   14  C   UNL     1     -12.338  12.529  64.014  1.00  0.00    -0.557 A  
HETATM   15  C   UNL     1     -13.160  11.834  62.966  1.00  0.00     0.436 C  
ENDBRANCH   4   8
BRANCH   7  16
HETATM   16  N   UNL     1      -7.636  15.523  69.275  1.00  0.00    -0.205 NA 
HETATM   17  H   UNL     1      -7.117  16.399  69.228  1.00  0.00     0.000 HD 
BRANCH  16  18
HETATM   18  N   UNL     1      -7.269  14.515  70.120  1.00  0.00    -0.381 NA 
HETATM   19  H   UNL     1      -7.270  14.672  71.128  1.00  0.00     0.000 HD 
BRANCH  18  20
HETATM   20  C   UNL     1      -6.887  13.256  69.606  1.00  0.00     0.151 A  
HETATM   21  C   UNL     1      -7.833  12.254  69.315  1.00  0.00     0.472 A  
HETATM   22  C   UNL     1      -7.493  11.024  68.718  1.00  0.00    -0.116 A  
HETATM   23  O   UNL     1      -9.155  12.504  69.629  1.00  0.00     0.822 OA 
HETATM   24  C   UNL     1      -5.541  12.969  69.371  1.00  0.00    -0.084 A  
HETATM   25  C   UNL     1      -6.127  10.766  68.531  1.00  0.00    -0.043 A  
HETATM   26  H   UNL     1      -9.792  11.828  69.432  1.00  0.00     0.000 HD 
HETATM   27  C   UNL     1      -5.161  11.725  68.859  1.00  0.00    -0.050 A  
BRANCH  22  28
HETATM   28  C   UNL     1      -8.529  10.110  68.193  1.00  0.00    -0.118 A  
HETATM   29  C   UNL     1      -9.228  10.339  66.999  1.00  0.00    -0.169 A  
HETATM   30  C   UNL     1     -10.243   9.466  66.583  1.00  0.00    -0.319 A  
HETATM   31  C   UNL     1     -10.550   8.330  67.334  1.00  0.00    -0.324 A  
HETATM   32  C   UNL     1      -9.842   8.067  68.505  1.00  0.00    -0.185 A  
HETATM   33  C   UNL     1      -8.883   8.976  68.947  1.00  0.00    -0.139 A  
HETATM   34  C   UNL     1     -10.143   6.847  69.291  1.00  0.00    -0.170 C  
HETATM   35  O   UNL     1      -9.054   6.311  69.893  1.00  0.00    -0.142 OA 
HETATM   36  O   UNL     1     -11.251   6.358  69.356  1.00  0.00    -0.359 OA 
ENDBRANCH  22  28
ENDBRANCH  18  20
ENDBRANCH  16  18
ENDBRANCH   7  16
TORSDOF 5
ENDMDL
MODEL      214
REMARK 921   NORMALIZED FREE ENERGY PREDICTED BY IDOCK:   -2.33 KCAL/MOL
REMARK 922        TOTAL FREE ENERGY PREDICTED BY IDOCK:   -4.32 KCAL/MOL
REMARK 923 INTER-LIGAND FREE ENERGY PREDICTED BY IDOCK:   -4.21 KCAL/MOL
REMARK 924 INTRA-LIGAND FREE ENERGY PREDICTED BY IDOCK:   -0.11 KCAL/MOL
REMARK 927      BINDING AFFINITY PREDICTED BY RF-SCORE:    0.00 PKD
ROOT
HETATM    1  C   UNL     1      -6.680  15.034  71.682  1.00  0.00     1.433 C  
HETATM    2  C   UNL     1      -6.411  14.143  70.528  1.00  0.00    -0.081 C  
HETATM    3  N   UNL     1      -6.308  12.845  70.533  1.00  0.00     0.021 NA 
HETATM    4  N   UNL     1      -6.069  12.443  69.204  1.00  0.00    -0.080 N  
HETATM    5  O   UNL     1      -5.844  13.564  67.087  1.00  0.00    -0.275 OA 
HETATM    6  C   UNL     1      -6.018  13.483  68.287  1.00  0.00    -0.100 C  
HETATM    7  C   UNL     1      -6.214  14.674  69.157  1.00  0.00    -0.105 C  
ENDROOT
BRANCH   4   8
HETATM    8  C   UNL     1      -5.862  11.072  68.924  1.00  0.00    -0.040 A  
HETATM    9  C   UNL     1      -5.348  10.212  69.897  1.00  0.00    -0.038 A  
HETATM   10  C   UNL     1      -5.166   8.853  69.638  1.00  0.00    -0.030 A  
HETATM   11  C   UNL     1      -6.178  10.533  67.669  1.00  0.00    -0.056 A  
HETATM   12  C   UNL     1      -6.377   8.673  66.015  1.00  0.00    -0.053 C  
HETATM   13  C   UNL     1      -5.998   9.163  67.386  1.00  0.00    -0.050 A  
HETATM   14  C   UNL     1      -5.490   8.313  68.386  1.00  0.00    -0.033 A  
HETATM   15  C   UNL     1      -5.266   6.844  68.164  1.00  0.00    -0.012 C  
ENDBRANCH   4   8
BRANCH   7  16
HETATM   16  N   UNL     1      -6.203  15.932  68.848  1.00  0.00    -0.116 NA 
HETATM   17  H   UNL     1      -5.623  16.603  69.353  1.00  0.00     0.000 HD 
BRANCH  16  18
HETATM   18  N   UNL     1      -7.006  16.314  67.812  1.00  0.00    -0.127 NA 
HETATM   19  H   UNL     1      -6.639  16.319  66.861  1.00  0.00     0.000 HD 
BRANCH  18  20
HETATM   20  C   UNL     1      -8.342  16.703  68.052  1.00  0.00    -0.187 A  
HETATM   21  C   UNL     1      -9.313  15.788  68.505  1.00  0.00    -0.198 A  
HETATM   22  C   UNL     1     -10.629  16.163  68.837  1.00  0.00    -0.275 A  
HETATM   23  O   UNL     1      -8.942  14.463  68.629  1.00  0.00    -0.189 OA 
HETATM   24  C   UNL     1      -8.741  18.024  67.841  1.00  0.00    -0.258 A  
HETATM   25  C   UNL     1     -10.994  17.493  68.578  1.00  0.00     0.001 A  
HETATM   26  H   UNL     1      -9.597  13.847  68.934  1.00  0.00     0.000 HD 
HETATM   27  C   UNL     1     -10.063  18.412  68.080  1.00  0.00    -0.408 A  
BRANCH  22  28
HETATM   28  C   UNL     1     -11.538  15.240  69.548  1.00  0.00    -0.339 A  
HETATM   29  C   UNL     1     -12.455  15.656  70.524  1.00  0.00    -0.440 A  
HETATM   30  C   UNL     1     -13.247  14.724  71.209  1.00  0.00    -0.447 A  
HETATM   31  C   UNL     1     -13.164  13.364  70.901  1.00  0.00    -0.019 A  
HETATM   32  C   UNL     1     -12.284  12.935  69.910  1.00  0.00    -0.258 A  
HETATM   33  C   UNL     1     -11.451  13.860  69.283  1.00  0.00    -0.348 A  
HETATM   34  C   UNL     1     -12.212  11.497  69.558  1.00  0.00    -0.221 C  
HETATM   35  O   UNL     1     -11.963  11.275  68.245  1.00  0.00    -0.582 OA 
HETATM   36  O   UNL     1     -12.396  10.609  70.363  1.00  0.00    -0.302 OA 
ENDBRANCH  22  28
ENDBRANCH  18  20
ENDBRANCH  16  18
ENDBRANCH   7  16
TORSDOF 5
ENDMDL
MODEL      215
REMARK 921   NORMALIZED FREE ENERGY PREDICTED BY IDOCK:   -2.32 KCAL/MOL
REMARK 922        TOTAL FREE ENERGY PREDICTED BY IDOCK:   -4.30 KCAL/MOL
REMARK 923 INTER-LIGAND FREE ENERGY PREDICTED BY IDOCK:   -4.53 KCAL/MOL
REMARK 924 INTRA-LIGAND FREE ENERGY PREDICTED BY IDOCK:    0.23 KCAL/MOL
REMARK 927      BINDING AFFINITY PREDICTED BY RF-SCORE:    0.00 PKD
ROOT
HETATM    1  C   UNL     1     -10.409   4.737  72.905  1.00  0.00    -0.237 C  
HETATM    2  C   UNL     1      -9.953   5.939  72.165  1.00  0.00    -0.170 C  
HETATM    3  N   UNL     1     -10.690   6.853  71.603  1.00  0.00    -0.221 NA 
HETATM    4  N   UNL     1      -9.815   7.804  71.043  1.00  0.00    -0.174 N  
HETATM    5  O   UNL     1      -7.428   8.081  70.929  1.00  0.00    -0.065 OA 
HETATM    6  C   UNL     1      -8.469   7.533  71.236  1.00  0.00    -0.116 C  
HETATM    7  C   UNL     1      -8.514   6.242  71.975  1.00  0.00    -0.123 C  
ENDROOT
BRANCH   4   8
HETATM    8  C   UNL     1     -10.353   8.892  70.316  1.00  0.00    -0.206 A  
HETATM    9  C   UNL     1     -10.154   9.001  68.938  1.00  0.00    -0.207 A  
HETATM   10  C   UNL     1     -10.702  10.057  68.210  1.00  0.00    -0.280 A  
HETATM   11  C   UNL     1     -11.110   9.885  70.953  1.00  0.00    -0.418 A  
HETATM   12  C   UNL     1     -12.480  11.973  71.002  1.00  0.00    -0.376 C  
HETATM   13  C   UNL     1     -11.670  10.962  70.235  1.00  0.00    -0.437 A  
HETATM   14  C   UNL     1     -11.467  11.044  68.845  1.00  0.00    -0.364 A  
HETATM   15  C   UNL     1     -12.026  12.160  68.009  1.00  0.00    -0.233 C  
ENDBRANCH   4   8
BRANCH   7  16
HETATM   16  N   UNL     1      -7.541   5.485  72.373  1.00  0.00    -0.099 NA 
HETATM   17  H   UNL     1      -7.014   5.692  73.222  1.00  0.00     0.000 HD 
BRANCH  16  18
HETATM   18  N   UNL     1      -7.258   4.397  71.600  1.00  0.00    -0.056 NA 
HETATM   19  H   UNL     1      -6.573   3.712  71.919  1.00  0.00     0.000 HD 
BRANCH  18  20
HETATM   20  C   UNL     1      -7.909   4.214  70.360  1.00  0.00    -0.051 A  
HETATM   21  C   UNL     1      -7.288   4.543  69.139  1.00  0.00    -0.052 A  
HETATM   22  C   UNL     1      -7.875   4.289  67.884  1.00  0.00    -0.079 A  
HETATM   23  O   UNL     1      -6.043   5.137  69.188  1.00  0.00    -0.020 OA 
HETATM   24  C   UNL     1      -9.204   3.695  70.313  1.00  0.00    -0.222 A  
HETATM   25  C   UNL     1      -9.190   3.798  67.886  1.00  0.00    -0.218 A  
HETATM   26  H   UNL     1      -5.625   5.359  68.365  1.00  0.00     0.000 HD 
HETATM   27  C   UNL     1      -9.849   3.510  69.086  1.00  0.00     0.131 A  
BRANCH  22  28
HETATM   28  C   UNL     1      -7.098   4.405  66.632  1.00  0.00    -0.067 A  
HETATM   29  C   UNL     1      -6.000   3.588  66.325  1.00  0.00    -0.024 A  
HETATM   30  C   UNL     1      -5.265   3.787  65.148  1.00  0.00    -0.009 A  
HETATM   31  C   UNL     1      -5.638   4.781  64.241  1.00  0.00    -0.014 A  
HETATM   32  C   UNL     1      -6.747   5.579  64.512  1.00  0.00    -0.043 A  
HETATM   33  C   UNL     1      -7.430   5.420  65.716  1.00  0.00    -0.081 A  
HETATM   34  C   UNL     1      -7.165   6.616  63.539  1.00  0.00    -0.065 C  
HETATM   35  O   UNL     1      -8.506   6.795  63.485  1.00  0.00     0.122 OA 
HETATM   36  O   UNL     1      -6.382   7.217  62.835  1.00  0.00    -0.052 OA 
ENDBRANCH  22  28
ENDBRANCH  18  20
ENDBRANCH  16  18
ENDBRANCH   7  16
TORSDOF 5
ENDMDL
MODEL      216
REMARK 921   NORMALIZED FREE ENERGY PREDICTED BY IDOCK:   -2.29 KCAL/MOL
REMARK 922        TOTAL FREE ENERGY PREDICTED BY IDOCK:   -4.25 KCAL/MOL
REMARK 923 INTER-LIGAND FREE ENERGY PREDICTED BY IDOCK:   -5.45 KCAL/MOL
REMARK 924 INTRA-LIGAND FREE ENERGY PREDICTED BY IDOCK:    1.19 KCAL/MOL
REMARK 927      BINDING AFFINITY PREDICTED BY RF-SCORE:    0.00 PKD
ROOT
HETATM    1  C   UNL     1     -12.464  10.654  68.542  1.00  0.00     1.127 C  
HETATM    2  C   UNL     1     -12.067  12.026  68.945  1.00  0.00    -0.145 C  
HETATM    3  N   UNL     1     -11.645  12.989  68.178  1.00  0.00    -0.319 NA 
HETATM    4  N   UNL     1     -11.412  14.106  69.004  1.00  0.00    -0.265 N  
HETATM    5  O   UNL     1     -11.630  14.576  71.353  1.00  0.00    -0.257 OA 
HETATM    6  C   UNL     1     -11.689  13.897  70.347  1.00  0.00    -0.199 C  
HETATM    7  C   UNL     1     -12.110  12.470  70.360  1.00  0.00    -0.297 C  
ENDROOT
BRANCH   4   8
HETATM    8  C   UNL     1     -10.892  15.291  68.432  1.00  0.00    -0.257 A  
HETATM    9  C   UNL     1     -11.452  16.536  68.731  1.00  0.00    -0.143 A  
HETATM   10  C   UNL     1     -10.929  17.711  68.192  1.00  0.00    -0.089 A  
HETATM   11  C   UNL     1      -9.794  15.254  67.562  1.00  0.00    -0.213 A  
HETATM   12  C   UNL     1      -8.065  16.294  66.090  1.00  0.00    -0.130 C  
HETATM   13  C   UNL     1      -9.253  16.431  67.005  1.00  0.00    -0.236 A  
HETATM   14  C   UNL     1      -9.826  17.675  67.329  1.00  0.00    -0.303 A  
HETATM   15  C   UNL     1      -9.310  18.973  66.776  1.00  0.00    -0.357 C  
ENDBRANCH   4   8
BRANCH   7  16
HETATM   16  N   UNL     1     -12.435  11.714  71.361  1.00  0.00    -0.266 NA 
HETATM   17  H   UNL     1     -12.516  12.085  72.308  1.00  0.00     0.000 HD 
BRANCH  16  18
HETATM   18  N   UNL     1     -12.663  10.398  71.083  1.00  0.00    -0.380 NA 
HETATM   19  H   UNL     1     -13.478  10.130  70.532  1.00  0.00     0.000 HD 
BRANCH  18  20
HETATM   20  C   UNL     1     -11.777   9.405  71.556  1.00  0.00    -0.394 A  
HETATM   21  C   UNL     1     -10.468   9.276  71.053  1.00  0.00    -0.314 A  
HETATM   22  C   UNL     1      -9.533   8.355  71.566  1.00  0.00    -0.267 A  
HETATM   23  O   UNL     1     -10.094  10.100  70.010  1.00  0.00    -0.309 OA 
HETATM   24  C   UNL     1     -12.185   8.511  72.549  1.00  0.00    -0.383 A  
HETATM   25  C   UNL     1      -9.996   7.456  72.538  1.00  0.00    -0.228 A  
HETATM   26  H   UNL     1      -9.211  10.013  69.671  1.00  0.00     0.000 HD 
HETATM   27  C   UNL     1     -11.308   7.529  73.021  1.00  0.00    -0.313 A  
BRANCH  22  28
HETATM   28  C   UNL     1      -8.104   8.422  71.197  1.00  0.00    -0.144 A  
HETATM   29  C   UNL     1      -7.088   8.773  72.098  1.00  0.00    -0.007 A  
HETATM   30  C   UNL     1      -5.757   8.879  71.673  1.00  0.00    -0.057 A  
HETATM   31  C   UNL     1      -5.413   8.598  70.349  1.00  0.00    -0.020 A  
HETATM   32  C   UNL     1      -6.403   8.214  69.447  1.00  0.00    -0.034 A  
HETATM   33  C   UNL     1      -7.733   8.179  69.861  1.00  0.00    -0.098 A  
HETATM   34  C   UNL     1      -6.040   7.886  68.048  1.00  0.00    -0.046 C  
HETATM   35  O   UNL     1      -6.801   6.904  67.510  1.00  0.00    -0.071 OA 
HETATM   36  O   UNL     1      -5.126   8.423  67.458  1.00  0.00    -0.032 OA 
ENDBRANCH  22  28
ENDBRANCH  18  20
ENDBRANCH  16  18
ENDBRANCH   7  16
TORSDOF 5
ENDMDL
MODEL      217
REMARK 921   NORMALIZED FREE ENERGY PREDICTED BY IDOCK:   -2.14 KCAL/MOL
REMARK 922        TOTAL FREE ENERGY PREDICTED BY IDOCK:   -4.07 KCAL/MOL
REMARK 923 INTER-LIGAND FREE ENERGY PREDICTED BY IDOCK:   -5.93 KCAL/MOL
REMARK 924 INTRA-LIGAND FREE ENERGY PREDICTED BY IDOCK:    1.86 KCAL/MOL
REMARK 927      BINDING AFFINITY PREDICTED BY RF-SCORE:    0.00 PKD
ROOT
HETATM    1  C   UNL     1      -7.513   8.556  65.770  1.00  0.00    -0.081 C  
HETATM    2  C   UNL     1      -8.114   8.173  67.071  1.00  0.00    -0.108 C  
HETATM    3  N   UNL     1      -7.494   7.790  68.150  1.00  0.00    -0.105 NA 
HETATM    4  N   UNL     1      -8.477   7.555  69.132  1.00  0.00    -0.135 N  
HETATM    5  O   UNL     1     -10.875   7.718  69.230  1.00  0.00    -0.188 OA 
HETATM    6  C   UNL     1      -9.778   7.791  68.713  1.00  0.00    -0.157 C  
HETATM    7  C   UNL     1      -9.580   8.186  67.292  1.00  0.00    -0.163 C  
ENDROOT
BRANCH   4   8
HETATM    8  C   UNL     1      -8.083   7.072  70.402  1.00  0.00    -0.119 A  
HETATM    9  C   UNL     1      -8.213   7.867  71.542  1.00  0.00    -0.122 A  
HETATM   10  C   UNL     1      -7.851   7.389  72.802  1.00  0.00    -0.108 A  
HETATM   11  C   UNL     1      -7.565   5.779  70.556  1.00  0.00    -0.090 A  
HETATM   12  C   UNL     1      -6.656   3.873  71.889  1.00  0.00    -0.015 C  
HETATM   13  C   UNL     1      -7.191   5.278  71.820  1.00  0.00    -0.080 A  
HETATM   14  C   UNL     1      -7.341   6.093  72.957  1.00  0.00    -0.092 A  
HETATM   15  C   UNL     1      -6.964   5.637  74.337  1.00  0.00    -0.081 C  
ENDBRANCH   4   8
BRANCH   7  16
HETATM   16  N   UNL     1     -10.460   8.470  66.384  1.00  0.00    -0.303 NA 
HETATM   17  H   UNL     1     -10.779   7.774  65.711  1.00  0.00     0.000 HD 
BRANCH  16  18
HETATM   18  N   UNL     1     -10.939   9.749  66.376  1.00  0.00     0.200 NA 
HETATM   19  H   UNL     1     -11.752   9.982  65.808  1.00  0.00     0.000 HD 
BRANCH  18  20
HETATM   20  C   UNL     1     -10.313  10.750  67.151  1.00  0.00    -0.224 A  
HETATM   21  C   UNL     1     -11.031  11.842  67.677  1.00  0.00    -0.233 A  
HETATM   22  C   UNL     1     -10.454  12.806  68.526  1.00  0.00    -0.252 A  
HETATM   23  O   UNL     1     -12.365  11.957  67.340  1.00  0.00    -0.297 OA 
HETATM   24  C   UNL     1      -8.944  10.681  67.419  1.00  0.00    -0.138 A  
HETATM   25  C   UNL     1      -9.070  12.716  68.740  1.00  0.00     0.163 A  
HETATM   26  H   UNL     1     -12.849  12.694  67.694  1.00  0.00     0.000 HD 
HETATM   27  C   UNL     1      -8.322  11.670  68.189  1.00  0.00    -0.154 A  
BRANCH  22  28
HETATM   28  C   UNL     1     -11.286  13.781  69.262  1.00  0.00    -0.291 A  
HETATM   29  C   UNL     1     -11.380  15.136  68.914  1.00  0.00    -0.314 A  
HETATM   30  C   UNL     1     -12.138  16.025  69.688  1.00  0.00    -0.114 A  
HETATM   31  C   UNL     1     -12.845  15.567  70.801  1.00  0.00    -0.513 A  
HETATM   32  C   UNL     1     -12.792  14.218  71.143  1.00  0.00    -0.429 A  
HETATM   33  C   UNL     1     -11.981  13.354  70.409  1.00  0.00    -0.358 A  
HETATM   34  C   UNL     1     -13.564  13.720  72.306  1.00  0.00    -0.559 C  
HETATM   35  O   UNL     1     -14.037  12.462  72.140  1.00  0.00    -0.040 OA 
HETATM   36  O   UNL     1     -13.780  14.391  73.293  1.00  0.00    -0.427 OA 
ENDBRANCH  22  28
ENDBRANCH  18  20
ENDBRANCH  16  18
ENDBRANCH   7  16
TORSDOF 5
ENDMDL
MODEL      218
REMARK 921   NORMALIZED FREE ENERGY PREDICTED BY IDOCK:   -1.99 KCAL/MOL
REMARK 922        TOTAL FREE ENERGY PREDICTED BY IDOCK:   -3.87 KCAL/MOL
REMARK 923 INTER-LIGAND FREE ENERGY PREDICTED BY IDOCK:   -3.20 KCAL/MOL
REMARK 924 INTRA-LIGAND FREE ENERGY PREDICTED BY IDOCK:   -0.68 KCAL/MOL
REMARK 927      BINDING AFFINITY PREDICTED BY RF-SCORE:    0.00 PKD
ROOT
HETATM    1  C   UNL     1     -12.893   8.431  72.082  1.00  0.00    -0.385 C  
HETATM    2  C   UNL     1     -12.066   7.710  71.083  1.00  0.00    -0.298 C  
HETATM    3  N   UNL     1     -11.445   6.576  71.237  1.00  0.00    -0.304 NA 
HETATM    4  N   UNL     1     -10.812   6.282  70.013  1.00  0.00    -0.290 N  
HETATM    5  O   UNL     1     -10.665   7.344  67.859  1.00  0.00    -0.206 OA 
HETATM    6  C   UNL     1     -11.016   7.225  69.016  1.00  0.00    -0.047 C  
HETATM    7  C   UNL     1     -11.846   8.243  69.717  1.00  0.00     0.720 C  
ENDROOT
BRANCH   4   8
HETATM    8  C   UNL     1     -10.012   5.119  69.911  1.00  0.00    -0.246 A  
HETATM    9  C   UNL     1     -10.041   4.329  68.760  1.00  0.00     0.112 A  
HETATM   10  C   UNL     1      -9.237   3.196  68.641  1.00  0.00    -0.228 A  
HETATM   11  C   UNL     1      -9.159   4.733  70.954  1.00  0.00    -0.181 A  
HETATM   12  C   UNL     1      -7.447   3.261  72.021  1.00  0.00    -0.052 C  
HETATM   13  C   UNL     1      -8.340   3.590  70.854  1.00  0.00    -0.089 A  
HETATM   14  C   UNL     1      -8.377   2.815  69.680  1.00  0.00    -0.079 A  
HETATM   15  C   UNL     1      -7.539   1.582  69.497  1.00  0.00    -0.042 C  
ENDBRANCH   4   8
BRANCH   7  16
HETATM   16  N   UNL     1     -12.292   9.381  69.288  1.00  0.00     0.786 NA 
HETATM   17  H   UNL     1     -13.054   9.438  68.613  1.00  0.00     0.000 HD 
BRANCH  16  18
HETATM   18  N   UNL     1     -11.688  10.500  69.786  1.00  0.00    -0.324 NA 
HETATM   19  H   UNL     1     -11.927  10.832  70.720  1.00  0.00     0.000 HD 
BRANCH  18  20
HETATM   20  C   UNL     1     -10.735  11.200  69.014  1.00  0.00    -0.225 A  
HETATM   21  C   UNL     1      -9.486  10.638  68.686  1.00  0.00    -0.176 A  
HETATM   22  C   UNL     1      -8.552  11.275  67.845  1.00  0.00    -0.134 A  
HETATM   23  O   UNL     1      -9.176   9.402  69.218  1.00  0.00    -0.148 OA 
HETATM   24  C   UNL     1     -11.012  12.488  68.550  1.00  0.00    -0.280 A  
HETATM   25  C   UNL     1      -8.858  12.579  67.430  1.00  0.00    -0.187 A  
HETATM   26  H   UNL     1      -8.333   9.023  68.997  1.00  0.00     0.000 HD 
HETATM   27  C   UNL     1     -10.071  13.182  67.783  1.00  0.00    -0.226 A  
BRANCH  22  28
HETATM   28  C   UNL     1      -7.375  10.554  67.316  1.00  0.00    -0.091 A  
HETATM   29  C   UNL     1      -6.286  10.165  68.110  1.00  0.00    -0.049 A  
HETATM   30  C   UNL     1      -5.170   9.539  67.539  1.00  0.00    -0.036 A  
HETATM   31  C   UNL     1      -5.141   9.255  66.172  1.00  0.00    -0.036 A  
HETATM   32  C   UNL     1      -6.228   9.603  65.373  1.00  0.00    -0.071 A  
HETATM   33  C   UNL     1      -7.303  10.287  65.937  1.00  0.00    -0.131 A  
HETATM   34  C   UNL     1      -6.215   9.278  63.927  1.00  0.00    -0.089 C  
HETATM   35  O   UNL     1      -7.438   8.968  63.434  1.00  0.00    -0.097 OA 
HETATM   36  O   UNL     1      -5.201   9.258  63.263  1.00  0.00    -0.066 OA 
ENDBRANCH  22  28
ENDBRANCH  18  20
ENDBRANCH  16  18
ENDBRANCH   7  16
TORSDOF 5
ENDMDL
MODEL      219
REMARK 921   NORMALIZED FREE ENERGY PREDICTED BY IDOCK:   -1.93 KCAL/MOL
REMARK 922        TOTAL FREE ENERGY PREDICTED BY IDOCK:   -3.80 KCAL/MOL
REMARK 923 INTER-LIGAND FREE ENERGY PREDICTED BY IDOCK:   -4.54 KCAL/MOL
REMARK 924 INTRA-LIGAND FREE ENERGY PREDICTED BY IDOCK:    0.74 KCAL/MOL
REMARK 927      BINDING AFFINITY PREDICTED BY RF-SCORE:    0.00 PKD
ROOT
HETATM    1  C   UNL     1     -10.529  19.777  66.646  1.00  0.00    -0.615 C  
HETATM    2  C   UNL     1     -10.189  18.381  66.274  1.00  0.00    -0.406 C  
HETATM    3  N   UNL     1     -10.959  17.502  65.702  1.00  0.00    -0.135 NA 
HETATM    4  N   UNL     1     -10.195  16.331  65.531  1.00  0.00    -0.335 N  
HETATM    5  O   UNL     1      -7.933  15.672  66.020  1.00  0.00     0.308 OA 
HETATM    6  C   UNL     1      -8.888  16.423  65.985  1.00  0.00    -0.261 C  
HETATM    7  C   UNL     1      -8.847  17.805  66.535  1.00  0.00    -0.262 C  
ENDROOT
BRANCH   4   8
HETATM    8  C   UNL     1     -10.806  15.182  64.974  1.00  0.00    -0.440 A  
HETATM    9  C   UNL     1     -12.178  15.156  64.714  1.00  0.00    -0.141 A  
HETATM   10  C   UNL     1     -12.784  14.038  64.142  1.00  0.00     0.066 A  
HETATM   11  C   UNL     1     -10.053  14.045  64.653  1.00  0.00    -0.102 A  
HETATM   12  C   UNL     1      -9.756  11.734  63.754  1.00  0.00    -0.255 C  
HETATM   13  C   UNL     1     -10.647  12.903  64.076  1.00  0.00    -0.418 A  
HETATM   14  C   UNL     1     -12.030  12.904  63.813  1.00  0.00    -0.582 A  
HETATM   15  C   UNL     1     -12.739  11.728  63.204  1.00  0.00    -0.179 C  
ENDBRANCH   4   8
BRANCH   7  16
HETATM   16  N   UNL     1      -7.885  18.423  67.144  1.00  0.00    -0.226 NA 
HETATM   17  H   UNL     1      -7.490  19.291  66.781  1.00  0.00     0.000 HD 
BRANCH  16  18
HETATM   18  N   UNL     1      -7.428  17.854  68.298  1.00  0.00    -0.250 NA 
HETATM   19  H   UNL     1      -6.666  18.295  68.814  1.00  0.00     0.000 HD 
BRANCH  18  20
HETATM   20  C   UNL     1      -8.003  16.658  68.780  1.00  0.00    -0.239 A  
HETATM   21  C   UNL     1      -7.360  15.413  68.637  1.00  0.00    -0.127 A  
HETATM   22  C   UNL     1      -7.866  14.218  69.186  1.00  0.00     0.018 A  
HETATM   23  O   UNL     1      -6.176  15.377  67.927  1.00  0.00    -0.126 OA 
HETATM   24  C   UNL     1      -9.244  16.681  69.421  1.00  0.00     0.040 A  
HETATM   25  C   UNL     1      -9.129  14.283  69.791  1.00  0.00     0.911 A  
HETATM   26  H   UNL     1      -5.743  14.537  67.831  1.00  0.00     0.000 HD 
HETATM   27  C   UNL     1      -9.814  15.498  69.903  1.00  0.00    -0.207 A  
BRANCH  22  28
HETATM   28  C   UNL     1      -7.046  12.989  69.242  1.00  0.00     0.097 A  
HETATM   29  C   UNL     1      -5.950  12.829  70.101  1.00  0.00    -0.135 A  
HETATM   30  C   UNL     1      -5.174  11.662  70.064  1.00  0.00    -0.079 A  
HETATM   31  C   UNL     1      -5.504  10.620  69.195  1.00  0.00    -0.041 A  
HETATM   32  C   UNL     1      -6.610  10.747  68.358  1.00  0.00    -0.055 A  
HETATM   33  C   UNL     1      -7.335  11.938  68.352  1.00  0.00    -0.095 A  
HETATM   34  C   UNL     1      -6.983   9.633  67.455  1.00  0.00    -0.084 C  
HETATM   35  O   UNL     1      -8.320   9.511  67.272  1.00  0.00    -0.123 OA 
HETATM   36  O   UNL     1      -6.169   8.884  66.957  1.00  0.00    -0.057 OA 
ENDBRANCH  22  28
ENDBRANCH  18  20
ENDBRANCH  16  18
ENDBRANCH   7  16
TORSDOF 5
ENDMDL
MODEL      220
REMARK 921   NORMALIZED FREE ENERGY PREDICTED BY IDOCK:   -1.42 KCAL/MOL
REMARK 922        TOTAL FREE ENERGY PREDICTED BY IDOCK:   -3.13 KCAL/MOL
REMARK 923 INTER-LIGAND FREE ENERGY PREDICTED BY IDOCK:   -4.74 KCAL/MOL
REMARK 924 INTRA-LIGAND FREE ENERGY PREDICTED BY IDOCK:    1.61 KCAL/MOL
REMARK 927      BINDING AFFINITY PREDICTED BY RF-SCORE:    0.00 PKD
ROOT
HETATM    1  C   UNL     1     -11.282   6.538  68.339  1.00  0.00    -0.274 C  
HETATM    2  C   UNL     1     -10.524   7.554  67.569  1.00  0.00    -0.271 C  
HETATM    3  N   UNL     1     -10.909   8.754  67.242  1.00  0.00    -0.128 NA 
HETATM    4  N   UNL     1      -9.847   9.351  66.534  1.00  0.00    -0.237 N  
HETATM    5  O   UNL     1      -7.636   8.677  65.867  1.00  0.00    -0.086 OA 
HETATM    6  C   UNL     1      -8.727   8.547  66.387  1.00  0.00    -0.133 C  
HETATM    7  C   UNL     1      -9.158   7.289  67.054  1.00  0.00    -0.135 C  
ENDROOT
BRANCH   4   8
HETATM    8  C   UNL     1     -10.015  10.654  66.008  1.00  0.00    -0.239 A  
HETATM    9  C   UNL     1     -10.472  10.846  64.703  1.00  0.00    -0.384 A  
HETATM   10  C   UNL     1     -10.665  12.127  64.185  1.00  0.00    -0.405 A  
HETATM   11  C   UNL     1      -9.741  11.789  66.784  1.00  0.00    -0.213 A  
HETATM   12  C   UNL     1      -9.618  14.250  67.190  1.00  0.00    -0.245 C  
HETATM   13  C   UNL     1      -9.927  13.093  66.278  1.00  0.00    -0.285 A  
HETATM   14  C   UNL     1     -10.399  13.262  64.964  1.00  0.00    -0.355 A  
HETATM   15  C   UNL     1     -10.621  14.615  64.351  1.00  0.00     0.141 C  
ENDBRANCH   4   8
BRANCH   7  16
HETATM   16  N   UNL     1      -8.531   6.161  67.173  1.00  0.00    -0.105 NA 
HETATM   17  H   UNL     1      -7.833   5.862  66.493  1.00  0.00     0.000 HD 
BRANCH  16  18
HETATM   18  N   UNL     1      -8.854   5.394  68.255  1.00  0.00    -0.105 NA 
HETATM   19  H   UNL     1      -9.262   4.470  68.119  1.00  0.00     0.000 HD 
BRANCH  18  20
HETATM   20  C   UNL     1      -8.625   5.874  69.564  1.00  0.00    -0.117 A  
HETATM   21  C   UNL     1      -7.658   6.862  69.835  1.00  0.00    -0.099 A  
HETATM   22  C   UNL     1      -7.469   7.425  71.113  1.00  0.00    -0.077 A  
HETATM   23  O   UNL     1      -6.868   7.295  68.788  1.00  0.00    -0.067 OA 
HETATM   24  C   UNL     1      -9.363   5.373  70.638  1.00  0.00    -0.204 A  
HETATM   25  C   UNL     1      -8.208   6.867  72.166  1.00  0.00    -0.105 A  
HETATM   26  H   UNL     1      -6.215   7.961  68.972  1.00  0.00     0.000 HD 
HETATM   27  C   UNL     1      -9.140   5.849  71.934  1.00  0.00    -0.142 A  
BRANCH  22  28
HETATM   28  C   UNL     1      -6.636   8.630  71.308  1.00  0.00    -0.069 A  
HETATM   29  C   UNL     1      -5.910   8.886  72.481  1.00  0.00    -0.066 A  
HETATM   30  C   UNL     1      -5.187  10.077  72.631  1.00  0.00     0.073 A  
HETATM   31  C   UNL     1      -5.145  11.014  71.597  1.00  0.00    -0.011 A  
HETATM   32  C   UNL     1      -5.832  10.761  70.411  1.00  0.00    -0.118 A  
HETATM   33  C   UNL     1      -6.604   9.607  70.297  1.00  0.00    -0.091 A  
HETATM   34  C   UNL     1      -5.767  11.738  69.298  1.00  0.00    -0.062 C  
HETATM   35  O   UNL     1      -5.791  11.162  68.073  1.00  0.00    -0.043 OA 
HETATM   36  O   UNL     1      -5.665  12.934  69.473  1.00  0.00    -0.083 OA 
ENDBRANCH  22  28
ENDBRANCH  18  20
ENDBRANCH  16  18
ENDBRANCH   7  16
TORSDOF 5
ENDMDL
MODEL      221
REMARK 921   NORMALIZED FREE ENERGY PREDICTED BY IDOCK:   -1.27 KCAL/MOL
REMARK 922        TOTAL FREE ENERGY PREDICTED BY IDOCK:   -2.94 KCAL/MOL
REMARK 923 INTER-LIGAND FREE ENERGY PREDICTED BY IDOCK:   -6.89 KCAL/MOL
REMARK 924 INTRA-LIGAND FREE ENERGY PREDICTED BY IDOCK:    3.95 KCAL/MOL
REMARK 927      BINDING AFFINITY PREDICTED BY RF-SCORE:    0.00 PKD
ROOT
HETATM    1  C   UNL     1      -8.259  16.610  65.887  1.00  0.00     0.076 C  
HETATM    2  C   UNL     1      -9.037  15.396  65.537  1.00  0.00     0.386 C  
HETATM    3  N   UNL     1      -8.722  14.156  65.774  1.00  0.00     0.908 NA 
HETATM    4  N   UNL     1      -9.773  13.359  65.278  1.00  0.00    -0.056 N  
HETATM    5  O   UNL     1     -11.874  13.779  64.184  1.00  0.00    -0.414 OA 
HETATM    6  C   UNL     1     -10.816  14.072  64.706  1.00  0.00    -0.419 C  
HETATM    7  C   UNL     1     -10.338  15.476  64.830  1.00  0.00    -0.173 C  
ENDROOT
BRANCH   4   8
HETATM    8  C   UNL     1      -9.668  11.950  65.357  1.00  0.00    -0.207 A  
HETATM    9  C   UNL     1      -9.750  11.161  64.208  1.00  0.00    -0.315 A  
HETATM   10  C   UNL     1      -9.622   9.774  64.274  1.00  0.00    -0.111 A  
HETATM   11  C   UNL     1      -9.465  11.307  66.586  1.00  0.00    -0.204 A  
HETATM   12  C   UNL     1      -9.108   9.304  68.035  1.00  0.00    -0.132 C  
HETATM   13  C   UNL     1      -9.336   9.905  66.674  1.00  0.00    -0.196 A  
HETATM   14  C   UNL     1      -9.410   9.131  65.501  1.00  0.00    -0.287 A  
HETATM   15  C   UNL     1      -9.285   7.634  65.510  1.00  0.00     0.221 C  
ENDBRANCH   4   8
BRANCH   7  16
HETATM   16  N   UNL     1     -10.885  16.574  64.412  1.00  0.00    -0.993 NA 
HETATM   17  H   UNL     1     -11.239  16.666  63.460  1.00  0.00     0.000 HD 
BRANCH  16  18
HETATM   18  N   UNL     1     -10.962  17.599  65.310  1.00  0.00    -0.487 NA 
HETATM   19  H   UNL     1     -11.163  18.544  64.985  1.00  0.00     0.000 HD 
BRANCH  18  20
HETATM   20  C   UNL     1     -10.763  17.357  66.687  1.00  0.00    -0.084 A  
HETATM   21  C   UNL     1     -11.333  16.244  67.337  1.00  0.00     0.113 A  
HETATM   22  C   UNL     1     -11.081  15.928  68.686  1.00  0.00    -0.337 A  
HETATM   23  O   UNL     1     -12.173  15.430  66.603  1.00  0.00     0.258 OA 
HETATM   24  C   UNL     1      -9.986  18.230  67.451  1.00  0.00    -0.344 A  
HETATM   25  C   UNL     1     -10.322  16.850  69.422  1.00  0.00    -0.250 A  
HETATM   26  H   UNL     1     -12.557  14.680  67.041  1.00  0.00     0.000 HD 
HETATM   27  C   UNL     1      -9.785  17.991  68.815  1.00  0.00    -0.336 A  
BRANCH  22  28
HETATM   28  C   UNL     1     -11.480  14.626  69.260  1.00  0.00    -0.322 A  
HETATM   29  C   UNL     1     -11.232  13.396  68.633  1.00  0.00    -0.304 A  
HETATM   30  C   UNL     1     -11.690  12.198  69.197  1.00  0.00    -0.384 A  
HETATM   31  C   UNL     1     -12.369  12.205  70.417  1.00  0.00    -0.315 A  
HETATM   32  C   UNL     1     -12.594  13.414  71.072  1.00  0.00    -0.425 A  
HETATM   33  C   UNL     1     -12.197  14.606  70.470  1.00  0.00    -0.389 A  
HETATM   34  C   UNL     1     -13.288  13.425  72.382  1.00  0.00    -0.528 C  
HETATM   35  O   UNL     1     -12.842  14.391  73.220  1.00  0.00    -0.486 OA 
HETATM   36  O   UNL     1     -14.147  12.623  72.683  1.00  0.00    -0.356 OA 
ENDBRANCH  22  28
ENDBRANCH  18  20
ENDBRANCH  16  18
ENDBRANCH   7  16
TORSDOF 5
ENDMDL
MODEL      222
REMARK 921   NORMALIZED FREE ENERGY PREDICTED BY IDOCK:   -1.25 KCAL/MOL
REMARK 922        TOTAL FREE ENERGY PREDICTED BY IDOCK:   -2.92 KCAL/MOL
REMARK 923 INTER-LIGAND FREE ENERGY PREDICTED BY IDOCK:   -2.40 KCAL/MOL
REMARK 924 INTRA-LIGAND FREE ENERGY PREDICTED BY IDOCK:   -0.52 KCAL/MOL
REMARK 927      BINDING AFFINITY PREDICTED BY RF-SCORE:    0.00 PKD
ROOT
HETATM    1  C   UNL     1     -11.617  16.644  69.944  1.00  0.00     0.380 C  
HETATM    2  C   UNL     1     -11.089  15.920  68.762  1.00  0.00    -0.328 C  
HETATM    3  N   UNL     1     -11.766  15.254  67.871  1.00  0.00    -0.290 NA 
HETATM    4  N   UNL     1     -10.840  14.760  66.931  1.00  0.00    -0.309 N  
HETATM    5  O   UNL     1      -8.455  14.893  66.640  1.00  0.00    -0.221 OA 
HETATM    6  C   UNL     1      -9.521  15.104  67.186  1.00  0.00    -0.216 C  
HETATM    7  C   UNL     1      -9.639  15.874  68.454  1.00  0.00    -0.208 C  
ENDROOT
BRANCH   4   8
HETATM    8  C   UNL     1     -11.301  13.946  65.870  1.00  0.00    -0.313 A  
HETATM    9  C   UNL     1     -12.667  13.733  65.672  1.00  0.00    -0.523 A  
HETATM   10  C   UNL     1     -13.130  12.953  64.612  1.00  0.00    -0.030 A  
HETATM   11  C   UNL     1     -10.404  13.341  64.979  1.00  0.00    -0.355 A  
HETATM   12  C   UNL     1      -9.815  11.949  62.990  1.00  0.00    -0.160 C  
HETATM   13  C   UNL     1     -10.852  12.547  63.903  1.00  0.00    -0.472 A  
HETATM   14  C   UNL     1     -12.234  12.356  63.716  1.00  0.00    -0.626 A  
HETATM   15  C   UNL     1     -12.792  11.523  62.598  1.00  0.00     1.346 C  
ENDBRANCH   4   8
BRANCH   7  16
HETATM   16  N   UNL     1      -8.712  16.398  69.191  1.00  0.00    -0.225 NA 
HETATM   17  H   UNL     1      -8.433  17.374  69.089  1.00  0.00     0.000 HD 
BRANCH  16  18
HETATM   18  N   UNL     1      -8.127  15.577  70.112  1.00  0.00     0.166 NA 
HETATM   19  H   UNL     1      -8.278  15.742  71.107  1.00  0.00     0.000 HD 
BRANCH  18  20
HETATM   20  C   UNL     1      -7.315  14.500  69.695  1.00  0.00    -0.011 A  
HETATM   21  C   UNL     1      -7.853  13.228  69.413  1.00  0.00     0.662 A  
HETATM   22  C   UNL     1      -7.083  12.161  68.909  1.00  0.00    -0.098 A  
HETATM   23  O   UNL     1      -9.200  13.034  69.641  1.00  0.00     0.761 OA 
HETATM   24  C   UNL     1      -5.937  14.671  69.549  1.00  0.00    -0.106 A  
HETATM   25  C   UNL     1      -5.699  12.369  68.811  1.00  0.00    -0.058 A  
HETATM   26  H   UNL     1      -9.562  12.176  69.451  1.00  0.00     0.000 HD 
HETATM   27  C   UNL     1      -5.131  13.607  69.132  1.00  0.00    -0.077 A  
BRANCH  22  28
HETATM   28  C   UNL     1      -7.717  10.934  68.384  1.00  0.00    -0.116 A  
HETATM   29  C   UNL     1      -8.603  10.142  69.129  1.00  0.00    -0.167 A  
HETATM   30  C   UNL     1      -9.125   8.955  68.597  1.00  0.00    -0.137 A  
HETATM   31  C   UNL     1      -8.802   8.561  67.297  1.00  0.00    -0.137 A  
HETATM   32  C   UNL     1      -7.951   9.353  66.529  1.00  0.00    -0.108 A  
HETATM   33  C   UNL     1      -7.382  10.494  67.090  1.00  0.00    -0.093 A  
HETATM   34  C   UNL     1      -7.627   8.955  65.139  1.00  0.00    -0.099 C  
HETATM   35  O   UNL     1      -7.463  10.006  64.301  1.00  0.00    -0.134 OA 
HETATM   36  O   UNL     1      -7.553   7.798  64.782  1.00  0.00    -0.093 OA 
ENDBRANCH  22  28
ENDBRANCH  18  20
ENDBRANCH  16  18
ENDBRANCH   7  16
TORSDOF 5
ENDMDL
MODEL      223
REMARK 921   NORMALIZED FREE ENERGY PREDICTED BY IDOCK:   -1.07 KCAL/MOL
REMARK 922        TOTAL FREE ENERGY PREDICTED BY IDOCK:   -2.68 KCAL/MOL
REMARK 923 INTER-LIGAND FREE ENERGY PREDICTED BY IDOCK:   -4.74 KCAL/MOL
REMARK 924 INTRA-LIGAND FREE ENERGY PREDICTED BY IDOCK:    2.06 KCAL/MOL
REMARK 927      BINDING AFFINITY PREDICTED BY RF-SCORE:    0.00 PKD
ROOT
HETATM    1  C   UNL     1      -7.901   7.890  66.037  1.00  0.00    -0.095 C  
HETATM    2  C   UNL     1      -8.231   6.794  66.982  1.00  0.00    -0.113 C  
HETATM    3  N   UNL     1      -7.411   6.127  67.742  1.00  0.00    -0.082 NA 
HETATM    4  N   UNL     1      -8.183   5.206  68.476  1.00  0.00    -0.089 N  
HETATM    5  O   UNL     1     -10.522   4.660  68.622  1.00  0.00     0.078 OA 
HETATM    6  C   UNL     1      -9.544   5.257  68.216  1.00  0.00    -0.130 C  
HETATM    7  C   UNL     1      -9.621   6.312  67.169  1.00  0.00    -0.132 C  
ENDROOT
BRANCH   4   8
HETATM    8  C   UNL     1      -7.534   4.305  69.353  1.00  0.00    -0.054 A  
HETATM    9  C   UNL     1      -6.145   4.154  69.327  1.00  0.00    -0.027 A  
HETATM   10  C   UNL     1      -5.496   3.288  70.205  1.00  0.00    -0.016 A  
HETATM   11  C   UNL     1      -8.261   3.548  70.283  1.00  0.00    -0.075 A  
HETATM   12  C   UNL     1      -8.485   1.904  72.148  1.00  0.00    -0.059 C  
HETATM   13  C   UNL     1      -7.622   2.665  71.178  1.00  0.00    -0.036 A  
HETATM   14  C   UNL     1      -6.222   2.538  71.140  1.00  0.00    -0.018 A  
HETATM   15  C   UNL     1      -5.467   1.618  72.056  1.00  0.00    -0.004 C  
ENDBRANCH   4   8
BRANCH   7  16
HETATM   16  N   UNL     1     -10.647   6.746  66.508  1.00  0.00    -0.507 NA 
HETATM   17  H   UNL     1     -11.137   6.158  65.832  1.00  0.00     0.000 HD 
BRANCH  16  18
HETATM   18  N   UNL     1     -11.040   8.028  66.761  1.00  0.00    -0.127 NA 
HETATM   19  H   UNL     1     -11.681   8.498  66.123  1.00  0.00     0.000 HD 
BRANCH  18  20
HETATM   20  C   UNL     1     -10.561   8.709  67.902  1.00  0.00    -0.161 A  
HETATM   21  C   UNL     1     -10.631   8.142  69.190  1.00  0.00    -0.166 A  
HETATM   22  C   UNL     1     -10.083   8.756  70.333  1.00  0.00    -0.223 A  
HETATM   23  O   UNL     1     -11.267   6.923  69.324  1.00  0.00    -0.443 OA 
HETATM   24  C   UNL     1      -9.998   9.981  67.781  1.00  0.00    -0.203 A  
HETATM   25  C   UNL     1      -9.558  10.047  70.169  1.00  0.00    -0.151 A  
HETATM   26  H   UNL     1     -11.314   6.541  70.192  1.00  0.00     0.000 HD 
HETATM   27  C   UNL     1      -9.521  10.655  68.909  1.00  0.00    -0.199 A  
BRANCH  22  28
HETATM   28  C   UNL     1      -9.944   8.024  71.610  1.00  0.00    -0.237 A  
HETATM   29  C   UNL     1      -8.986   8.342  72.583  1.00  0.00    -0.316 A  
HETATM   30  C   UNL     1      -8.864   7.572  73.748  1.00  0.00    -0.283 A  
HETATM   31  C   UNL     1      -9.723   6.495  73.977  1.00  0.00    -0.269 A  
HETATM   32  C   UNL     1     -10.704   6.185  73.037  1.00  0.00    -0.276 A  
HETATM   33  C   UNL     1     -10.773   6.913  71.851  1.00  0.00    -0.245 A  
HETATM   34  C   UNL     1     -11.637   5.062  73.288  1.00  0.00    -0.168 C  
HETATM   35  O   UNL     1     -12.881   5.275  72.797  1.00  0.00     0.253 OA 
HETATM   36  O   UNL     1     -11.324   4.066  73.905  1.00  0.00    -0.162 OA 
ENDBRANCH  22  28
ENDBRANCH  18  20
ENDBRANCH  16  18
ENDBRANCH   7  16
TORSDOF 5
ENDMDL
MODEL      224
REMARK 921   NORMALIZED FREE ENERGY PREDICTED BY IDOCK:   -0.01 KCAL/MOL
REMARK 922        TOTAL FREE ENERGY PREDICTED BY IDOCK:   -1.31 KCAL/MOL
REMARK 923 INTER-LIGAND FREE ENERGY PREDICTED BY IDOCK:   -0.97 KCAL/MOL
REMARK 924 INTRA-LIGAND FREE ENERGY PREDICTED BY IDOCK:   -0.34 KCAL/MOL
REMARK 927      BINDING AFFINITY PREDICTED BY RF-SCORE:    0.00 PKD
ROOT
HETATM    1  C   UNL     1     -10.587  10.750  64.577  1.00  0.00    -0.258 C  
HETATM    2  C   UNL     1      -9.806  11.103  65.788  1.00  0.00    -0.235 C  
HETATM    3  N   UNL     1      -9.276  12.255  66.083  1.00  0.00    -0.181 NA 
HETATM    4  N   UNL     1      -8.653  12.114  67.339  1.00  0.00    -0.166 N  
HETATM    5  O   UNL     1      -8.397  10.333  68.937  1.00  0.00    -0.118 OA 
HETATM    6  C   UNL     1      -8.772  10.853  67.903  1.00  0.00    -0.131 C  
HETATM    7  C   UNL     1      -9.528  10.113  66.857  1.00  0.00    -0.169 C  
ENDROOT
BRANCH   4   8
HETATM    8  C   UNL     1      -7.945  13.210  67.886  1.00  0.00    -0.158 A  
HETATM    9  C   UNL     1      -6.758  13.659  67.302  1.00  0.00     0.169 A  
HETATM   10  C   UNL     1      -6.068  14.755  67.819  1.00  0.00    -0.143 A  
HETATM   11  C   UNL     1      -8.419  13.886  69.018  1.00  0.00     0.197 A  
HETATM   12  C   UNL     1      -8.325  15.665  70.769  1.00  0.00     2.436 C  
HETATM   13  C   UNL     1      -7.734  14.995  69.558  1.00  0.00    -0.168 A  
HETATM   14  C   UNL     1      -6.546  15.436  68.946  1.00  0.00    -0.110 A  
HETATM   15  C   UNL     1      -5.756  16.606  69.460  1.00  0.00    -0.176 C  
ENDBRANCH   4   8
BRANCH   7  16
HETATM   16  N   UNL     1      -9.879   8.867  66.817  1.00  0.00    -0.217 NA 
HETATM   17  H   UNL     1     -10.658   8.512  67.371  1.00  0.00     0.000 HD 
BRANCH  16  18
HETATM   18  N   UNL     1      -9.153   8.054  65.995  1.00  0.00    -0.273 NA 
HETATM   19  H   UNL     1      -9.486   7.859  65.051  1.00  0.00     0.000 HD 
BRANCH  18  20
HETATM   20  C   UNL     1      -7.944   7.480  66.446  1.00  0.00    -0.107 A  
HETATM   21  C   UNL     1      -7.706   7.224  67.811  1.00  0.00    -0.112 A  
HETATM   22  C   UNL     1      -6.549   6.571  68.281  1.00  0.00    -0.059 A  
HETATM   23  O   UNL     1      -8.662   7.632  68.720  1.00  0.00    -0.129 OA 
HETATM   24  C   UNL     1      -6.939   7.147  65.536  1.00  0.00    -0.056 A  
HETATM   25  C   UNL     1      -5.553   6.286  67.335  1.00  0.00    -0.009 A  
HETATM   26  H   UNL     1      -8.500   7.460  69.640  1.00  0.00     0.000 HD 
HETATM   27  C   UNL     1      -5.742   6.576  65.979  1.00  0.00    -0.021 A  
BRANCH  22  28
HETATM   28  C   UNL     1      -6.449   6.090  69.675  1.00  0.00    -0.042 A  
HETATM   29  C   UNL     1      -5.742   4.937  70.046  1.00  0.00    -0.016 A  
HETATM   30  C   UNL     1      -5.735   4.497  71.377  1.00  0.00    -0.012 A  
HETATM   31  C   UNL     1      -6.402   5.223  72.365  1.00  0.00    -0.039 A  
HETATM   32  C   UNL     1      -7.080   6.391  72.022  1.00  0.00    -0.082 A  
HETATM   33  C   UNL     1      -7.140   6.783  70.686  1.00  0.00    -0.068 A  
HETATM   34  C   UNL     1      -7.765   7.182  73.071  1.00  0.00    -0.089 C  
HETATM   35  O   UNL     1      -7.735   8.517  72.845  1.00  0.00    -0.308 OA 
HETATM   36  O   UNL     1      -8.270   6.682  74.054  1.00  0.00    -0.119 OA 
ENDBRANCH  22  28
ENDBRANCH  18  20
ENDBRANCH  16  18
ENDBRANCH   7  16
TORSDOF 5
ENDMDL
MODEL      225
REMARK 921   NORMALIZED FREE ENERGY PREDICTED BY IDOCK:    0.01 KCAL/MOL
REMARK 922        TOTAL FREE ENERGY PREDICTED BY IDOCK:   -1.29 KCAL/MOL
REMARK 923 INTER-LIGAND FREE ENERGY PREDICTED BY IDOCK:   -1.72 KCAL/MOL
REMARK 924 INTRA-LIGAND FREE ENERGY PREDICTED BY IDOCK:    0.43 KCAL/MOL
REMARK 927      BINDING AFFINITY PREDICTED BY RF-SCORE:    0.00 PKD
ROOT
HETATM    1  C   UNL     1      -8.736   8.392  65.925  1.00  0.00    -0.197 C  
HETATM    2  C   UNL     1      -8.873   7.175  66.762  1.00  0.00    -0.130 C  
HETATM    3  N   UNL     1      -7.920   6.477  67.310  1.00  0.00    -0.111 NA 
HETATM    4  N   UNL     1      -8.533   5.428  68.024  1.00  0.00    -0.098 N  
HETATM    5  O   UNL     1     -10.798   4.721  68.426  1.00  0.00     0.419 OA 
HETATM    6  C   UNL     1      -9.919   5.423  67.965  1.00  0.00    -0.154 C  
HETATM    7  C   UNL     1     -10.197   6.587  67.080  1.00  0.00    -0.215 C  
ENDROOT
BRANCH   4   8
HETATM    8  C   UNL     1      -7.722   4.474  68.682  1.00  0.00    -0.071 A  
HETATM    9  C   UNL     1      -7.636   4.445  70.075  1.00  0.00    -0.050 A  
HETATM   10  C   UNL     1      -6.859   3.491  70.732  1.00  0.00    -0.033 A  
HETATM   11  C   UNL     1      -6.992   3.521  67.957  1.00  0.00    -0.050 A  
HETATM   12  C   UNL     1      -5.461   1.560  67.741  1.00  0.00    -0.017 C  
HETATM   13  C   UNL     1      -6.199   2.550  68.602  1.00  0.00    -0.028 A  
HETATM   14  C   UNL     1      -6.137   2.533  70.008  1.00  0.00    -0.024 A  
HETATM   15  C   UNL     1      -5.314   1.535  70.770  1.00  0.00    -0.004 C  
ENDBRANCH   4   8
BRANCH   7  16
HETATM   16  N   UNL     1     -11.328   7.029  66.628  1.00  0.00    -0.364 NA 
HETATM   17  H   UNL     1     -11.865   6.513  65.931  1.00  0.00     0.000 HD 
BRANCH  16  18
HETATM   18  N   UNL     1     -11.764   8.220  67.133  1.00  0.00     1.897 NA 
HETATM   19  H   UNL     1     -12.567   8.686  66.712  1.00  0.00     0.000 HD 
BRANCH  18  20
HETATM   20  C   UNL     1     -11.107   8.811  68.235  1.00  0.00     0.307 A  
HETATM   21  C   UNL     1     -11.004   8.156  69.478  1.00  0.00    -0.047 A  
HETATM   22  C   UNL     1     -10.279   8.680  70.567  1.00  0.00    -0.229 A  
HETATM   23  O   UNL     1     -11.645   6.941  69.621  1.00  0.00    -0.553 OA 
HETATM   24  C   UNL     1     -10.534  10.079  68.117  1.00  0.00    -0.250 A  
HETATM   25  C   UNL     1      -9.750   9.971  70.414  1.00  0.00    -0.023 A  
HETATM   26  H   UNL     1     -11.576   6.501  70.460  1.00  0.00     0.000 HD 
HETATM   27  C   UNL     1      -9.881  10.665  69.206  1.00  0.00    -0.201 A  
BRANCH  22  28
HETATM   28  C   UNL     1      -9.976   7.859  71.757  1.00  0.00    -0.228 A  
HETATM   29  C   UNL     1     -10.955   7.407  72.655  1.00  0.00    -0.363 A  
HETATM   30  C   UNL     1     -10.598   6.683  73.800  1.00  0.00    -0.302 A  
HETATM   31  C   UNL     1      -9.262   6.364  74.048  1.00  0.00    -0.165 A  
HETATM   32  C   UNL     1      -8.279   6.774  73.149  1.00  0.00    -0.119 A  
HETATM   33  C   UNL     1      -8.634   7.553  72.050  1.00  0.00    -0.126 A  
HETATM   34  C   UNL     1      -6.862   6.413  73.391  1.00  0.00    -0.074 C  
HETATM   35  O   UNL     1      -6.162   6.186  72.254  1.00  0.00    -0.043 OA 
HETATM   36  O   UNL     1      -6.388   6.299  74.502  1.00  0.00    -0.072 OA 
ENDBRANCH  22  28
ENDBRANCH  18  20
ENDBRANCH  16  18
ENDBRANCH   7  16
TORSDOF 5
ENDMDL
MODEL      226
REMARK 921   NORMALIZED FREE ENERGY PREDICTED BY IDOCK:    0.14 KCAL/MOL
REMARK 922        TOTAL FREE ENERGY PREDICTED BY IDOCK:   -1.12 KCAL/MOL
REMARK 923 INTER-LIGAND FREE ENERGY PREDICTED BY IDOCK:   -1.53 KCAL/MOL
REMARK 924 INTRA-LIGAND FREE ENERGY PREDICTED BY IDOCK:    0.41 KCAL/MOL
REMARK 927      BINDING AFFINITY PREDICTED BY RF-SCORE:    0.00 PKD
ROOT
HETATM    1  C   UNL     1      -7.605   8.030  65.728  1.00  0.00    -0.083 C  
HETATM    2  C   UNL     1      -7.962   7.520  67.075  1.00  0.00    -0.116 C  
HETATM    3  N   UNL     1      -7.181   6.930  67.934  1.00  0.00    -0.092 NA 
HETATM    4  N   UNL     1      -7.958   6.648  69.075  1.00  0.00    -0.111 N  
HETATM    5  O   UNL     1     -10.245   7.015  69.726  1.00  0.00    -0.193 OA 
HETATM    6  C   UNL     1      -9.279   7.061  68.989  1.00  0.00    -0.137 C  
HETATM    7  C   UNL     1      -9.337   7.637  67.618  1.00  0.00    -0.142 C  
ENDROOT
BRANCH   4   8
HETATM    8  C   UNL     1      -7.369   5.953  70.157  1.00  0.00    -0.077 A  
HETATM    9  C   UNL     1      -7.171   6.581  71.389  1.00  0.00    -0.079 A  
HETATM   10  C   UNL     1      -6.614   5.895  72.468  1.00  0.00    -0.067 A  
HETATM   11  C   UNL     1      -6.980   4.612  70.031  1.00  0.00    -0.048 A  
HETATM   12  C   UNL     1      -6.038   2.462  70.884  1.00  0.00    -0.018 C  
HETATM   13  C   UNL     1      -6.413   3.902  71.110  1.00  0.00    -0.026 A  
HETATM   14  C   UNL     1      -6.234   4.552  72.345  1.00  0.00    -0.017 A  
HETATM   15  C   UNL     1      -5.635   3.868  73.541  1.00  0.00    -0.004 C  
ENDBRANCH   4   8
BRANCH   7  16
HETATM   16  N   UNL     1     -10.346   8.128  66.971  1.00  0.00    -0.314 NA 
HETATM   17  H   UNL     1     -10.940   7.545  66.381  1.00  0.00     0.000 HD 
BRANCH  16  18
HETATM   18  N   UNL     1     -10.574   9.466  67.119  1.00  0.00    -0.250 NA 
HETATM   19  H   UNL     1     -11.349   9.907  66.624  1.00  0.00     0.000 HD 
BRANCH  18  20
HETATM   20  C   UNL     1      -9.740  10.244  67.952  1.00  0.00    -0.145 A  
HETATM   21  C   UNL     1      -9.015  11.346  67.459  1.00  0.00    -0.150 A  
HETATM   22  C   UNL     1      -8.247  12.193  68.282  1.00  0.00    -0.168 A  
HETATM   23  O   UNL     1      -9.072  11.601  66.103  1.00  0.00    -0.213 OA 
HETATM   24  C   UNL     1      -9.612   9.934  69.308  1.00  0.00    -0.215 A  
HETATM   25  C   UNL     1      -8.120  11.824  69.629  1.00  0.00     1.065 A  
HETATM   26  H   UNL     1      -8.583  12.344  65.771  1.00  0.00     0.000 HD 
HETATM   27  C   UNL     1      -8.789  10.704  70.136  1.00  0.00     0.894 A  
BRANCH  22  28
HETATM   28  C   UNL     1      -7.715  13.478  67.782  1.00  0.00    -0.163 A  
HETATM   29  C   UNL     1      -6.358  13.699  67.507  1.00  0.00    -0.076 A  
HETATM   30  C   UNL     1      -5.905  14.959  67.093  1.00  0.00     0.696 A  
HETATM   31  C   UNL     1      -6.807  16.009  66.910  1.00  0.00    -0.089 A  
HETATM   32  C   UNL     1      -8.164  15.800  67.145  1.00  0.00    -0.237 A  
HETATM   33  C   UNL     1      -8.596  14.564  67.623  1.00  0.00    -0.184 A  
HETATM   34  C   UNL     1      -9.130  16.902  66.924  1.00  0.00    -0.230 C  
HETATM   35  O   UNL     1     -10.334  16.481  66.470  1.00  0.00    -0.299 OA 
HETATM   36  O   UNL     1      -8.853  18.070  67.100  1.00  0.00    -0.240 OA 
ENDBRANCH  22  28
ENDBRANCH  18  20
ENDBRANCH  16  18
ENDBRANCH   7  16
TORSDOF 5
ENDMDL
MODEL      227
REMARK 921   NORMALIZED FREE ENERGY PREDICTED BY IDOCK:    0.20 KCAL/MOL
REMARK 922        TOTAL FREE ENERGY PREDICTED BY IDOCK:   -1.04 KCAL/MOL
REMARK 923 INTER-LIGAND FREE ENERGY PREDICTED BY IDOCK:   -1.54 KCAL/MOL
REMARK 924 INTRA-LIGAND FREE ENERGY PREDICTED BY IDOCK:    0.50 KCAL/MOL
REMARK 927      BINDING AFFINITY PREDICTED BY RF-SCORE:    0.00 PKD
ROOT
HETATM    1  C   UNL     1     -12.908  14.992  69.669  1.00  0.00     0.145 C  
HETATM    2  C   UNL     1     -11.867  14.229  68.939  1.00  0.00    -0.336 C  
HETATM    3  N   UNL     1     -11.920  13.780  67.718  1.00  0.00    -0.370 NA 
HETATM    4  N   UNL     1     -10.693  13.139  67.458  1.00  0.00    -0.237 N  
HETATM    5  O   UNL     1      -8.668  12.744  68.696  1.00  0.00    -0.083 OA 
HETATM    6  C   UNL     1      -9.795  13.162  68.514  1.00  0.00    -0.153 C  
HETATM    7  C   UNL     1     -10.571  13.873  69.567  1.00  0.00     0.147 C  
ENDROOT
BRANCH   4   8
HETATM    8  C   UNL     1     -10.496  12.506  66.208  1.00  0.00    -0.246 A  
HETATM    9  C   UNL     1     -10.848  13.147  65.017  1.00  0.00    -0.331 A  
HETATM   10  C   UNL     1     -10.633  12.540  63.780  1.00  0.00    -0.471 A  
HETATM   11  C   UNL     1      -9.930  11.227  66.125  1.00  0.00    -0.268 A  
HETATM   12  C   UNL     1      -9.082   9.226  64.893  1.00  0.00    -0.227 C  
HETATM   13  C   UNL     1      -9.707  10.596  64.884  1.00  0.00    -0.341 A  
HETATM   14  C   UNL     1     -10.059  11.265  63.697  1.00  0.00    -0.432 A  
HETATM   15  C   UNL     1      -9.857  10.661  62.336  1.00  0.00     0.020 C  
ENDBRANCH   4   8
BRANCH   7  16
HETATM   16  N   UNL     1     -10.250  14.134  70.794  1.00  0.00     1.340 NA 
HETATM   17  H   UNL     1     -10.605  13.577  71.572  1.00  0.00     0.000 HD 
BRANCH  16  18
HETATM   18  N   UNL     1      -9.411  15.193  70.994  1.00  0.00     0.999 NA 
HETATM   19  H   UNL     1      -9.591  15.846  71.756  1.00  0.00     0.000 HD 
BRANCH  18  20
HETATM   20  C   UNL     1      -8.295  15.388  70.151  1.00  0.00     0.598 A  
HETATM   21  C   UNL     1      -8.309  16.333  69.106  1.00  0.00    -0.211 A  
HETATM   22  C   UNL     1      -7.183  16.614  68.307  1.00  0.00    -0.169 A  
HETATM   23  O   UNL     1      -9.486  17.014  68.869  1.00  0.00    -0.266 OA 
HETATM   24  C   UNL     1      -7.133  14.636  70.334  1.00  0.00     0.322 A  
HETATM   25  C   UNL     1      -6.050  15.811  68.504  1.00  0.00    -0.102 A  
HETATM   26  H   UNL     1      -9.495  17.652  68.164  1.00  0.00     0.000 HD 
HETATM   27  C   UNL     1      -6.026  14.830  69.502  1.00  0.00    -0.107 A  
BRANCH  22  28
HETATM   28  C   UNL     1      -7.153  17.782  67.402  1.00  0.00    -0.201 A  
HETATM   29  C   UNL     1      -5.967  18.384  66.957  1.00  0.00    -0.166 A  
HETATM   30  C   UNL     1      -6.004  19.528  66.148  1.00  0.00    -0.176 A  
HETATM   31  C   UNL     1      -7.226  20.066  65.738  1.00  0.00    -0.328 A  
HETATM   32  C   UNL     1      -8.414  19.460  66.142  1.00  0.00    -0.303 A  
HETATM   33  C   UNL     1      -8.369  18.365  67.002  1.00  0.00    -0.257 A  
HETATM   34  C   UNL     1      -9.713  20.009  65.686  1.00  0.00    -0.041 C  
HETATM   35  O   UNL     1     -10.658  19.060  65.484  1.00  0.00    -0.557 OA 
HETATM   36  O   UNL     1      -9.897  21.190  65.481  1.00  0.00     1.266 OA 
ENDBRANCH  22  28
ENDBRANCH  18  20
ENDBRANCH  16  18
ENDBRANCH   7  16
TORSDOF 5
ENDMDL
MODEL      228
REMARK 921   NORMALIZED FREE ENERGY PREDICTED BY IDOCK:    0.75 KCAL/MOL
REMARK 922        TOTAL FREE ENERGY PREDICTED BY IDOCK:   -0.34 KCAL/MOL
REMARK 923 INTER-LIGAND FREE ENERGY PREDICTED BY IDOCK:   -1.20 KCAL/MOL
REMARK 924 INTRA-LIGAND FREE ENERGY PREDICTED BY IDOCK:    0.86 KCAL/MOL
REMARK 927      BINDING AFFINITY PREDICTED BY RF-SCORE:    0.00 PKD
ROOT
HETATM    1  C   UNL     1      -8.745   8.393  65.916  1.00  0.00    -0.197 C  
HETATM    2  C   UNL     1      -8.873   7.198  66.786  1.00  0.00    -0.130 C  
HETATM    3  N   UNL     1      -7.916   6.523  67.354  1.00  0.00    -0.112 NA 
HETATM    4  N   UNL     1      -8.521   5.490  68.096  1.00  0.00    -0.099 N  
HETATM    5  O   UNL     1     -10.780   4.775  68.514  1.00  0.00     0.238 OA 
HETATM    6  C   UNL     1      -9.906   5.471  68.035  1.00  0.00    -0.139 C  
HETATM    7  C   UNL     1     -10.192   6.607  67.118  1.00  0.00    -0.213 C  
ENDROOT
BRANCH   4   8
HETATM    8  C   UNL     1      -7.703   4.561  68.781  1.00  0.00    -0.071 A  
HETATM    9  C   UNL     1      -7.086   3.510  68.098  1.00  0.00    -0.051 A  
HETATM   10  C   UNL     1      -6.258   2.605  68.762  1.00  0.00    -0.029 A  
HETATM   11  C   UNL     1      -7.475   4.674  70.159  1.00  0.00    -0.054 A  
HETATM   12  C   UNL     1      -6.447   3.977  72.326  1.00  0.00    -0.021 C  
HETATM   13  C   UNL     1      -6.642   3.768  70.848  1.00  0.00    -0.031 A  
HETATM   14  C   UNL     1      -6.023   2.724  70.138  1.00  0.00    -0.023 A  
HETATM   15  C   UNL     1      -5.125   1.716  70.797  1.00  0.00    -0.004 C  
ENDBRANCH   4   8
BRANCH   7  16
HETATM   16  N   UNL     1     -11.326   7.027  66.652  1.00  0.00    -0.364 NA 
HETATM   17  H   UNL     1     -11.868   6.478  65.984  1.00  0.00     0.000 HD 
BRANCH  16  18
HETATM   18  N   UNL     1     -11.760   8.241  67.102  1.00  0.00     1.897 NA 
HETATM   19  H   UNL     1     -12.588   8.669  66.689  1.00  0.00     0.000 HD 
BRANCH  18  20
HETATM   20  C   UNL     1     -11.067   8.907  68.136  1.00  0.00     0.268 A  
HETATM   21  C   UNL     1     -10.726  10.271  68.045  1.00  0.00    -0.255 A  
HETATM   22  C   UNL     1     -10.115  10.984  69.096  1.00  0.00    -0.167 A  
HETATM   23  O   UNL     1     -11.014  10.930  66.866  1.00  0.00    -0.271 OA 
HETATM   24  C   UNL     1     -10.695   8.219  69.294  1.00  0.00    -0.140 A  
HETATM   25  C   UNL     1      -9.731  10.245  70.224  1.00  0.00     0.183 A  
HETATM   26  H   UNL     1     -10.784  11.849  66.805  1.00  0.00     0.000 HD 
HETATM   27  C   UNL     1     -10.012   8.878  70.321  1.00  0.00    -0.214 A  
BRANCH  22  28
HETATM   28  C   UNL     1     -10.009  12.458  69.066  1.00  0.00     0.191 A  
HETATM   29  C   UNL     1      -8.960  13.145  68.438  1.00  0.00    -0.128 A  
HETATM   30  C   UNL     1      -8.881  14.543  68.497  1.00  0.00    -0.182 A  
HETATM   31  C   UNL     1      -9.870  15.280  69.152  1.00  0.00    -0.239 A  
HETATM   32  C   UNL     1     -10.938  14.617  69.752  1.00  0.00    -0.232 A  
HETATM   33  C   UNL     1     -10.972  13.224  69.748  1.00  0.00     0.207 A  
HETATM   34  C   UNL     1     -12.006  15.396  70.423  1.00  0.00    -0.354 C  
HETATM   35  O   UNL     1     -13.234  14.834  70.311  1.00  0.00    -0.163 OA 
HETATM   36  O   UNL     1     -11.803  16.450  70.986  1.00  0.00    -0.298 OA 
ENDBRANCH  22  28
ENDBRANCH  18  20
ENDBRANCH  16  18
ENDBRANCH   7  16
TORSDOF 5
ENDMDL
MODEL      229
REMARK 921   NORMALIZED FREE ENERGY PREDICTED BY IDOCK:    0.86 KCAL/MOL
REMARK 922        TOTAL FREE ENERGY PREDICTED BY IDOCK:   -0.19 KCAL/MOL
REMARK 923 INTER-LIGAND FREE ENERGY PREDICTED BY IDOCK:   -0.17 KCAL/MOL
REMARK 924 INTRA-LIGAND FREE ENERGY PREDICTED BY IDOCK:   -0.03 KCAL/MOL
REMARK 927      BINDING AFFINITY PREDICTED BY RF-SCORE:    0.00 PKD
ROOT
HETATM    1  C   UNL     1     -11.049  12.755  69.242  1.00  0.00    -0.193 C  
HETATM    2  C   UNL     1     -10.842  11.353  69.681  1.00  0.00    -0.047 C  
HETATM    3  N   UNL     1     -11.736  10.520  70.127  1.00  0.00    -0.299 NA 
HETATM    4  N   UNL     1     -11.074   9.305  70.396  1.00  0.00    -0.246 N  
HETATM    5  O   UNL     1      -8.813   8.505  70.202  1.00  0.00    -0.132 OA 
HETATM    6  C   UNL     1      -9.715   9.316  70.119  1.00  0.00    -0.218 C  
HETATM    7  C   UNL     1      -9.503  10.714  69.656  1.00  0.00     0.099 C  
ENDROOT
BRANCH   4   8
HETATM    8  C   UNL     1     -11.805   8.227  70.948  1.00  0.00    -0.216 A  
HETATM    9  C   UNL     1     -13.162   8.061  70.661  1.00  0.00     0.571 A  
HETATM   10  C   UNL     1     -13.884   6.986  71.181  1.00  0.00    -0.102 A  
HETATM   11  C   UNL     1     -11.189   7.288  71.786  1.00  0.00    -0.278 A  
HETATM   12  C   UNL     1     -11.153   5.231  73.203  1.00  0.00    -0.384 C  
HETATM   13  C   UNL     1     -11.902   6.196  72.323  1.00  0.00    -0.326 A  
HETATM   14  C   UNL     1     -13.266   6.042  72.011  1.00  0.00     0.690 A  
HETATM   15  C   UNL     1     -14.096   4.910  72.544  1.00  0.00     2.967 C  
ENDBRANCH   4   8
BRANCH   7  16
HETATM   16  N   UNL     1      -8.406  11.313  69.314  1.00  0.00    -0.379 NA 
HETATM   17  H   UNL     1      -7.976  12.023  69.907  1.00  0.00     0.000 HD 
BRANCH  16  18
HETATM   18  N   UNL     1      -7.857  10.945  68.120  1.00  0.00    -0.109 NA 
HETATM   19  H   UNL     1      -7.115  11.511  67.707  1.00  0.00     0.000 HD 
BRANCH  18  20
HETATM   20  C   UNL     1      -8.310   9.786  67.453  1.00  0.00    -0.114 A  
HETATM   21  C   UNL     1      -7.719   8.526  67.666  1.00  0.00    -0.102 A  
HETATM   22  C   UNL     1      -8.205   7.338  67.085  1.00  0.00    -0.118 A  
HETATM   23  O   UNL     1      -6.613   8.464  68.491  1.00  0.00    -0.056 OA 
HETATM   24  C   UNL     1      -9.373   9.862  66.549  1.00  0.00    -0.206 A  
HETATM   25  C   UNL     1      -9.252   7.468  66.160  1.00  0.00    -0.156 A  
HETATM   26  H   UNL     1      -6.214   7.614  68.635  1.00  0.00     0.000 HD 
HETATM   27  C   UNL     1      -9.825   8.715  65.890  1.00  0.00    -0.073 A  
BRANCH  22  28
HETATM   28  C   UNL     1      -7.729   6.012  67.529  1.00  0.00    -0.097 A  
HETATM   29  C   UNL     1      -6.553   5.413  67.055  1.00  0.00    -0.053 A  
HETATM   30  C   UNL     1      -6.185   4.126  67.468  1.00  0.00    -0.036 A  
HETATM   31  C   UNL     1      -6.967   3.430  68.393  1.00  0.00    -0.050 A  
HETATM   32  C   UNL     1      -8.121   4.022  68.902  1.00  0.00    -0.075 A  
HETATM   33  C   UNL     1      -8.515   5.273  68.433  1.00  0.00    -0.096 A  
HETATM   34  C   UNL     1      -8.938   3.301  69.906  1.00  0.00    -0.108 C  
HETATM   35  O   UNL     1      -9.517   4.118  70.817  1.00  0.00    -0.142 OA 
HETATM   36  O   UNL     1      -9.047   2.093  69.926  1.00  0.00    -0.085 OA 
ENDBRANCH  22  28
ENDBRANCH  18  20
ENDBRANCH  16  18
ENDBRANCH   7  16
TORSDOF 5
ENDMDL
MODEL      230
REMARK 921   NORMALIZED FREE ENERGY PREDICTED BY IDOCK:    1.58 KCAL/MOL
REMARK 922        TOTAL FREE ENERGY PREDICTED BY IDOCK:    0.74 KCAL/MOL
REMARK 923 INTER-LIGAND FREE ENERGY PREDICTED BY IDOCK:   -0.60 KCAL/MOL
REMARK 924 INTRA-LIGAND FREE ENERGY PREDICTED BY IDOCK:    1.34 KCAL/MOL
REMARK 927      BINDING AFFINITY PREDICTED BY RF-SCORE:    0.00 PKD
ROOT
HETATM    1  C   UNL     1      -8.738   8.392  65.925  1.00  0.00    -0.197 C  
HETATM    2  C   UNL     1      -8.873   7.148  66.722  1.00  0.00    -0.130 C  
HETATM    3  N   UNL     1      -7.921   6.441  67.258  1.00  0.00    -0.111 NA 
HETATM    4  N   UNL     1      -8.533   5.366  67.932  1.00  0.00    -0.099 N  
HETATM    5  O   UNL     1     -10.796   4.628  68.287  1.00  0.00     0.554 OA 
HETATM    6  C   UNL     1      -9.918   5.351  67.858  1.00  0.00    -0.160 C  
HETATM    7  C   UNL     1     -10.196   6.540  67.007  1.00  0.00    -0.215 C  
ENDROOT
BRANCH   4   8
HETATM    8  C   UNL     1      -7.721   4.397  68.568  1.00  0.00    -0.074 A  
HETATM    9  C   UNL     1      -6.632   3.828  67.904  1.00  0.00    -0.042 A  
HETATM   10  C   UNL     1      -5.812   2.891  68.533  1.00  0.00    -0.023 A  
HETATM   11  C   UNL     1      -7.975   3.991  69.886  1.00  0.00    -0.056 A  
HETATM   12  C   UNL     1      -7.501   2.680  71.958  1.00  0.00    -0.044 C  
HETATM   13  C   UNL     1      -7.158   3.045  70.538  1.00  0.00    -0.034 A  
HETATM   14  C   UNL     1      -6.060   2.493  69.853  1.00  0.00    -0.024 A  
HETATM   15  C   UNL     1      -5.144   1.477  70.475  1.00  0.00    -0.004 C  
ENDBRANCH   4   8
BRANCH   7  16
HETATM   16  N   UNL     1     -11.326   6.987  66.557  1.00  0.00    -0.136 NA 
HETATM   17  H   UNL     1     -11.889   6.452  65.895  1.00  0.00     0.000 HD 
BRANCH  16  18
HETATM   18  N   UNL     1     -11.724   8.210  67.014  1.00  0.00     1.948 NA 
HETATM   19  H   UNL     1     -12.524   8.676  66.586  1.00  0.00     0.000 HD 
BRANCH  18  20
HETATM   20  C   UNL     1     -11.034   8.834  68.076  1.00  0.00     0.132 A  
HETATM   21  C   UNL     1     -10.338  10.046  67.900  1.00  0.00    -0.207 A  
HETATM   22  C   UNL     1      -9.716  10.738  68.959  1.00  0.00    -0.201 A  
HETATM   23  O   UNL     1     -10.272  10.573  66.626  1.00  0.00    -0.217 OA 
HETATM   24  C   UNL     1     -11.025   8.256  69.347  1.00  0.00    -0.013 A  
HETATM   25  C   UNL     1      -9.704  10.103  70.210  1.00  0.00     0.021 A  
HETATM   26  H   UNL     1      -9.802  11.390  66.508  1.00  0.00     0.000 HD 
HETATM   27  C   UNL     1     -10.345   8.874  70.402  1.00  0.00    -0.240 A  
BRANCH  22  28
HETATM   28  C   UNL     1      -9.223  12.121  68.791  1.00  0.00     0.085 A  
HETATM   29  C   UNL     1     -10.065  13.240  68.734  1.00  0.00    -0.083 A  
HETATM   30  C   UNL     1      -9.542  14.521  68.512  1.00  0.00    -0.220 A  
HETATM   31  C   UNL     1      -8.164  14.710  68.382  1.00  0.00    -0.154 A  
HETATM   32  C   UNL     1      -7.309  13.614  68.470  1.00  0.00    -0.114 A  
HETATM   33  C   UNL     1      -7.843  12.336  68.622  1.00  0.00    -0.063 A  
HETATM   34  C   UNL     1      -5.844  13.811  68.362  1.00  0.00    -0.100 C  
HETATM   35  O   UNL     1      -5.127  12.958  69.132  1.00  0.00    -0.069 OA 
HETATM   36  O   UNL     1      -5.342  14.676  67.677  1.00  0.00    -0.310 OA 
ENDBRANCH  22  28
ENDBRANCH  18  20
ENDBRANCH  16  18
ENDBRANCH   7  16
TORSDOF 5
ENDMDL
MODEL      231
REMARK 921   NORMALIZED FREE ENERGY PREDICTED BY IDOCK:    1.64 KCAL/MOL
REMARK 922        TOTAL FREE ENERGY PREDICTED BY IDOCK:    0.81 KCAL/MOL
REMARK 923 INTER-LIGAND FREE ENERGY PREDICTED BY IDOCK:   -0.20 KCAL/MOL
REMARK 924 INTRA-LIGAND FREE ENERGY PREDICTED BY IDOCK:    1.02 KCAL/MOL
REMARK 927      BINDING AFFINITY PREDICTED BY RF-SCORE:    0.00 PKD
ROOT
HETATM    1  C   UNL     1     -12.903  15.233  74.133  1.00  0.00    -0.300 C  
HETATM    2  C   UNL     1     -12.737  14.837  72.713  1.00  0.00    -0.399 C  
HETATM    3  N   UNL     1     -12.391  15.594  71.713  1.00  0.00    -0.389 NA 
HETATM    4  N   UNL     1     -12.346  14.774  70.568  1.00  0.00    -0.316 N  
HETATM    5  O   UNL     1     -12.729  12.442  70.113  1.00  0.00     0.053 OA 
HETATM    6  C   UNL     1     -12.658  13.442  70.800  1.00  0.00    -0.294 C  
HETATM    7  C   UNL     1     -12.966  13.445  72.256  1.00  0.00    -0.289 C  
ENDROOT
BRANCH   4   8
HETATM    8  C   UNL     1     -12.044  15.354  69.314  1.00  0.00    -0.255 A  
HETATM    9  C   UNL     1     -12.501  14.775  68.128  1.00  0.00     0.320 A  
HETATM   10  C   UNL     1     -12.230  15.355  66.889  1.00  0.00     0.768 A  
HETATM   11  C   UNL     1     -11.291  16.533  69.224  1.00  0.00    -0.133 A  
HETATM   12  C   UNL     1     -10.199  18.406  67.983  1.00  0.00    -0.406 C  
HETATM   13  C   UNL     1     -11.004  17.134  67.980  1.00  0.00    -0.229 A  
HETATM   14  C   UNL     1     -11.485  16.538  66.799  1.00  0.00     0.698 A  
HETATM   15  C   UNL     1     -11.220  17.113  65.437  1.00  0.00     0.391 C  
ENDBRANCH   4   8
BRANCH   7  16
HETATM   16  N   UNL     1     -13.375  12.477  73.015  1.00  0.00     0.063 NA 
HETATM   17  H   UNL     1     -13.306  12.527  74.031  1.00  0.00     0.000 HD 
BRANCH  16  18
HETATM   18  N   UNL     1     -13.904  11.388  72.384  1.00  0.00    -0.196 NA 
HETATM   19  H   UNL     1     -14.837  11.441  71.976  1.00  0.00     0.000 HD 
BRANCH  18  20
HETATM   20  C   UNL     1     -13.165  10.188  72.293  1.00  0.00    -0.261 A  
HETATM   21  C   UNL     1     -12.603   9.750  71.078  1.00  0.00    -0.314 A  
HETATM   22  C   UNL     1     -11.787   8.606  70.974  1.00  0.00    -0.303 A  
HETATM   23  O   UNL     1     -12.869  10.489  69.942  1.00  0.00    -0.513 OA 
HETATM   24  C   UNL     1     -12.970   9.392  73.425  1.00  0.00     2.387 A  
HETATM   25  C   UNL     1     -11.647   7.821  72.128  1.00  0.00    -0.367 A  
HETATM   26  H   UNL     1     -12.490  10.193  69.122  1.00  0.00     0.000 HD 
HETATM   27  C   UNL     1     -12.236   8.205  73.338  1.00  0.00     1.572 A  
BRANCH  22  28
HETATM   28  C   UNL     1     -11.010   8.323  69.750  1.00  0.00    -0.132 A  
HETATM   29  C   UNL     1     -10.904   7.046  69.178  1.00  0.00    -0.223 A  
HETATM   30  C   UNL     1     -10.101   6.829  68.051  1.00  0.00    -0.183 A  
HETATM   31  C   UNL     1      -9.421   7.891  67.452  1.00  0.00    -0.179 A  
HETATM   32  C   UNL     1      -9.541   9.173  67.985  1.00  0.00    -0.165 A  
HETATM   33  C   UNL     1     -10.285   9.368  69.146  1.00  0.00    -0.209 A  
HETATM   34  C   UNL     1      -8.845  10.310  67.336  1.00  0.00    -0.131 C  
HETATM   35  O   UNL     1      -9.530  11.475  67.411  1.00  0.00    -0.164 OA 
HETATM   36  O   UNL     1      -7.781  10.195  66.764  1.00  0.00    -0.102 OA 
ENDBRANCH  22  28
ENDBRANCH  18  20
ENDBRANCH  16  18
ENDBRANCH   7  16
TORSDOF 5
ENDMDL
MODEL      232
REMARK 921   NORMALIZED FREE ENERGY PREDICTED BY IDOCK:    1.74 KCAL/MOL
REMARK 922        TOTAL FREE ENERGY PREDICTED BY IDOCK:    0.95 KCAL/MOL
REMARK 923 INTER-LIGAND FREE ENERGY PREDICTED BY IDOCK:    1.26 KCAL/MOL
REMARK 924 INTRA-LIGAND FREE ENERGY PREDICTED BY IDOCK:   -0.31 KCAL/MOL
REMARK 927      BINDING AFFINITY PREDICTED BY RF-SCORE:    0.00 PKD
ROOT
HETATM    1  C   UNL     1      -6.563  11.850  66.601  1.00  0.00     0.074 C  
HETATM    2  C   UNL     1      -6.918  10.653  67.402  1.00  0.00    -0.082 C  
HETATM    3  N   UNL     1      -7.308   9.491  66.963  1.00  0.00    -0.087 NA 
HETATM    4  N   UNL     1      -7.509   8.668  68.089  1.00  0.00    -0.095 N  
HETATM    5  O   UNL     1      -7.283   8.934  70.469  1.00  0.00    -0.054 OA 
HETATM    6  C   UNL     1      -7.242   9.280  69.305  1.00  0.00    -0.065 C  
HETATM    7  C   UNL     1      -6.865  10.657  68.884  1.00  0.00    -0.066 C  
ENDROOT
BRANCH   4   8
HETATM    8  C   UNL     1      -7.990   7.351  67.905  1.00  0.00    -0.119 A  
HETATM    9  C   UNL     1      -7.823   6.691  66.685  1.00  0.00    -0.104 A  
HETATM   10  C   UNL     1      -8.272   5.383  66.504  1.00  0.00    -0.109 A  
HETATM   11  C   UNL     1      -8.636   6.664  68.942  1.00  0.00    -0.126 A  
HETATM   12  C   UNL     1      -9.770   4.681  69.952  1.00  0.00    -0.279 C  
HETATM   13  C   UNL     1      -9.100   5.342  68.777  1.00  0.00    -0.135 A  
HETATM   14  C   UNL     1      -8.910   4.694  67.544  1.00  0.00    -0.112 A  
HETATM   15  C   UNL     1      -9.376   3.289  67.287  1.00  0.00    -0.229 C  
ENDBRANCH   4   8
BRANCH   7  16
HETATM   16  N   UNL     1      -6.566  11.689  69.608  1.00  0.00    -0.224 NA 
HETATM   17  H   UNL     1      -5.603  11.899  69.869  1.00  0.00     0.000 HD 
BRANCH  16  18
HETATM   18  N   UNL     1      -7.606  12.479  70.004  1.00  0.00     0.811 NA 
HETATM   19  H   UNL     1      -7.431  13.287  70.601  1.00  0.00     0.000 HD 
BRANCH  18  20
HETATM   20  C   UNL     1      -8.924  12.183  69.592  1.00  0.00     1.866 A  
HETATM   21  C   UNL     1      -9.494  12.770  68.445  1.00  0.00    -0.162 A  
HETATM   22  C   UNL     1     -10.771  12.428  67.958  1.00  0.00    -0.247 A  
HETATM   23  O   UNL     1      -8.753  13.721  67.772  1.00  0.00    -0.161 OA 
HETATM   24  C   UNL     1      -9.708  11.287  70.323  1.00  0.00     2.146 A  
HETATM   25  C   UNL     1     -11.534  11.550  68.743  1.00  0.00    -0.349 A  
HETATM   26  H   UNL     1      -9.138  14.117  66.999  1.00  0.00     0.000 HD 
HETATM   27  C   UNL     1     -11.012  10.990  69.914  1.00  0.00    -0.218 A  
BRANCH  22  28
HETATM   28  C   UNL     1     -11.229  12.864  66.623  1.00  0.00    -0.342 A  
HETATM   29  C   UNL     1     -11.627  14.177  66.333  1.00  0.00    -0.380 A  
HETATM   30  C   UNL     1     -12.111  14.516  65.062  1.00  0.00    -0.390 A  
HETATM   31  C   UNL     1     -12.168  13.558  64.048  1.00  0.00    -0.458 A  
HETATM   32  C   UNL     1     -11.744  12.256  64.307  1.00  0.00    -0.456 A  
HETATM   33  C   UNL     1     -11.330  11.911  65.592  1.00  0.00    -0.339 A  
HETATM   34  C   UNL     1     -11.774  11.242  63.227  1.00  0.00     0.414 C  
HETATM   35  O   UNL     1     -10.763  10.345  63.302  1.00  0.00     0.472 OA 
HETATM   36  O   UNL     1     -12.605  11.240  62.344  1.00  0.00     0.869 OA 
ENDBRANCH  22  28
ENDBRANCH  18  20
ENDBRANCH  16  18
ENDBRANCH   7  16
TORSDOF 5
ENDMDL
MODEL      233
REMARK 921   NORMALIZED FREE ENERGY PREDICTED BY IDOCK:    2.46 KCAL/MOL
REMARK 922        TOTAL FREE ENERGY PREDICTED BY IDOCK:    1.88 KCAL/MOL
REMARK 923 INTER-LIGAND FREE ENERGY PREDICTED BY IDOCK:    0.08 KCAL/MOL
REMARK 924 INTRA-LIGAND FREE ENERGY PREDICTED BY IDOCK:    1.79 KCAL/MOL
REMARK 927      BINDING AFFINITY PREDICTED BY RF-SCORE:    0.00 PKD
ROOT
HETATM    1  C   UNL     1      -9.077  13.019  64.080  1.00  0.00     2.473 C  
HETATM    2  C   UNL     1      -8.422  11.877  64.764  1.00  0.00     1.290 C  
HETATM    3  N   UNL     1      -8.463  10.620  64.428  1.00  0.00    -0.122 NA 
HETATM    4  N   UNL     1      -7.676   9.916  65.361  1.00  0.00    -0.124 N  
HETATM    5  O   UNL     1      -6.361  10.506  67.288  1.00  0.00    -0.060 OA 
HETATM    6  C   UNL     1      -7.089  10.709  66.336  1.00  0.00    -0.134 C  
HETATM    7  C   UNL     1      -7.602  12.062  65.986  1.00  0.00     0.874 C  
ENDROOT
BRANCH   4   8
HETATM    8  C   UNL     1      -7.586   8.507  65.265  1.00  0.00    -0.089 A  
HETATM    9  C   UNL     1      -7.419   7.721  66.407  1.00  0.00    -0.084 A  
HETATM   10  C   UNL     1      -7.354   6.330  66.323  1.00  0.00    -0.081 A  
HETATM   11  C   UNL     1      -7.674   7.859  64.025  1.00  0.00    -0.133 A  
HETATM   12  C   UNL     1      -7.726   5.847  62.547  1.00  0.00    -0.079 C  
HETATM   13  C   UNL     1      -7.609   6.454  63.919  1.00  0.00    -0.099 A  
HETATM   14  C   UNL     1      -7.452   5.682  65.084  1.00  0.00    -0.078 A  
HETATM   15  C   UNL     1      -7.371   4.182  65.057  1.00  0.00    -0.072 C  
ENDBRANCH   4   8
BRANCH   7  16
HETATM   16  N   UNL     1      -7.424  13.194  66.591  1.00  0.00    -0.014 NA 
HETATM   17  H   UNL     1      -6.592  13.762  66.433  1.00  0.00     0.000 HD 
BRANCH  16  18
HETATM   18  N   UNL     1      -8.409  13.588  67.451  1.00  0.00    -0.186 NA 
HETATM   19  H   UNL     1      -8.398  14.532  67.836  1.00  0.00     0.000 HD 
BRANCH  18  20
HETATM   20  C   UNL     1      -9.442  12.694  67.809  1.00  0.00    -0.198 A  
HETATM   21  C   UNL     1      -9.184  11.504  68.518  1.00  0.00    -0.167 A  
HETATM   22  C   UNL     1     -10.201  10.639  68.967  1.00  0.00    -0.231 A  
HETATM   23  O   UNL     1      -7.867  11.184  68.781  1.00  0.00    -0.129 OA 
HETATM   24  C   UNL     1     -10.767  12.973  67.465  1.00  0.00    -0.248 A  
HETATM   25  C   UNL     1     -11.512  10.942  68.569  1.00  0.00    -0.380 A  
HETATM   26  H   UNL     1      -7.693  10.382  69.258  1.00  0.00     0.000 HD 
HETATM   27  C   UNL     1     -11.792  12.092  67.822  1.00  0.00    -0.308 A  
BRANCH  22  28
HETATM   28  C   UNL     1      -9.918   9.547  69.921  1.00  0.00    -0.259 A  
HETATM   29  C   UNL     1      -8.679   8.894  70.004  1.00  0.00    -0.151 A  
HETATM   30  C   UNL     1      -8.490   7.823  70.887  1.00  0.00    -0.127 A  
HETATM   31  C   UNL     1      -9.524   7.411  71.731  1.00  0.00    -0.166 A  
HETATM   32  C   UNL     1     -10.751   8.070  71.687  1.00  0.00    -0.284 A  
HETATM   33  C   UNL     1     -10.952   9.088  70.758  1.00  0.00    -0.315 A  
HETATM   34  C   UNL     1     -11.842   7.657  72.601  1.00  0.00    -0.218 C  
HETATM   35  O   UNL     1     -12.621   8.687  73.011  1.00  0.00    -0.232 OA 
HETATM   36  O   UNL     1     -11.998   6.513  72.972  1.00  0.00     0.212 OA 
ENDBRANCH  22  28
ENDBRANCH  18  20
ENDBRANCH  16  18
ENDBRANCH   7  16
TORSDOF 5
ENDMDL
MODEL      234
REMARK 921   NORMALIZED FREE ENERGY PREDICTED BY IDOCK:    2.97 KCAL/MOL
REMARK 922        TOTAL FREE ENERGY PREDICTED BY IDOCK:    2.53 KCAL/MOL
REMARK 923 INTER-LIGAND FREE ENERGY PREDICTED BY IDOCK:    3.40 KCAL/MOL
REMARK 924 INTRA-LIGAND FREE ENERGY PREDICTED BY IDOCK:   -0.87 KCAL/MOL
REMARK 927      BINDING AFFINITY PREDICTED BY RF-SCORE:    0.00 PKD
ROOT
HETATM    1  C   UNL     1     -11.881  10.601  66.997  1.00  0.00     1.242 C  
HETATM    2  C   UNL     1     -11.561  11.895  66.345  1.00  0.00    -0.243 C  
HETATM    3  N   UNL     1     -11.334  13.040  66.921  1.00  0.00    -0.296 NA 
HETATM    4  N   UNL     1     -11.057  13.970  65.900  1.00  0.00    -0.299 N  
HETATM    5  O   UNL     1     -10.909  13.888  63.500  1.00  0.00     0.588 OA 
HETATM    6  C   UNL     1     -11.088  13.444  64.617  1.00  0.00    -0.366 C  
HETATM    7  C   UNL     1     -11.465  12.027  64.871  1.00  0.00    -0.294 C  
ENDROOT
BRANCH   4   8
HETATM    8  C   UNL     1     -10.822  15.322  66.243  1.00  0.00    -0.312 A  
HETATM    9  C   UNL     1     -11.884  16.217  66.396  1.00  0.00     1.171 A  
HETATM   10  C   UNL     1     -11.663  17.545  66.759  1.00  0.00     2.015 A  
HETATM   11  C   UNL     1      -9.521  15.801  66.452  1.00  0.00    -0.326 A  
HETATM   12  C   UNL     1      -7.848  17.562  67.032  1.00  0.00    -0.240 C  
HETATM   13  C   UNL     1      -9.277  17.142  66.817  1.00  0.00    -0.270 A  
HETATM   14  C   UNL     1     -10.363  18.022  66.977  1.00  0.00    -0.377 A  
HETATM   15  C   UNL     1     -10.188  19.464  67.361  1.00  0.00    -0.530 C  
ENDBRANCH   4   8
BRANCH   7  16
HETATM   16  N   UNL     1     -11.696  11.070  64.028  1.00  0.00     0.108 NA 
HETATM   17  H   UNL     1     -12.644  10.761  63.815  1.00  0.00     0.000 HD 
BRANCH  16  18
HETATM   18  N   UNL     1     -10.605  10.498  63.439  1.00  0.00    -0.348 NA 
HETATM   19  H   UNL     1     -10.632  10.256  62.449  1.00  0.00     0.000 HD 
BRANCH  18  20
HETATM   20  C   UNL     1      -9.440  10.240  64.194  1.00  0.00    -0.301 A  
HETATM   21  C   UNL     1      -9.155   8.959  64.708  1.00  0.00     0.054 A  
HETATM   22  C   UNL     1      -7.959   8.651  65.387  1.00  0.00    -0.111 A  
HETATM   23  O   UNL     1     -10.098   7.968  64.525  1.00  0.00     2.469 OA 
HETATM   24  C   UNL     1      -8.527  11.264  64.455  1.00  0.00     0.448 A  
HETATM   25  C   UNL     1      -7.089   9.717  65.655  1.00  0.00    -0.105 A  
HETATM   26  H   UNL     1      -9.906   7.104  64.872  1.00  0.00     0.000 HD 
HETATM   27  C   UNL     1      -7.371  11.010  65.200  1.00  0.00     0.415 A  
BRANCH  22  28
HETATM   28  C   UNL     1      -7.580   7.253  65.681  1.00  0.00    -0.089 A  
HETATM   29  C   UNL     1      -6.876   6.438  64.783  1.00  0.00    -0.050 A  
HETATM   30  C   UNL     1      -6.598   5.100  65.094  1.00  0.00    -0.040 A  
HETATM   31  C   UNL     1      -6.985   4.565  66.325  1.00  0.00    -0.063 A  
HETATM   32  C   UNL     1      -7.655   5.370  67.244  1.00  0.00    -0.092 A  
HETATM   33  C   UNL     1      -7.988   6.678  66.898  1.00  0.00    -0.109 A  
HETATM   34  C   UNL     1      -8.042   4.817  68.564  1.00  0.00    -0.084 C  
HETATM   35  O   UNL     1      -7.987   5.726  69.566  1.00  0.00    -0.094 OA 
HETATM   36  O   UNL     1      -8.344   3.655  68.731  1.00  0.00    -0.071 OA 
ENDBRANCH  22  28
ENDBRANCH  18  20
ENDBRANCH  16  18
ENDBRANCH   7  16
TORSDOF 5
ENDMDL
MODEL      235
REMARK 921   NORMALIZED FREE ENERGY PREDICTED BY IDOCK:    4.37 KCAL/MOL
REMARK 922        TOTAL FREE ENERGY PREDICTED BY IDOCK:    4.35 KCAL/MOL
REMARK 923 INTER-LIGAND FREE ENERGY PREDICTED BY IDOCK:   -3.99 KCAL/MOL
REMARK 924 INTRA-LIGAND FREE ENERGY PREDICTED BY IDOCK:    8.34 KCAL/MOL
REMARK 927      BINDING AFFINITY PREDICTED BY RF-SCORE:    0.00 PKD
ROOT
HETATM    1  C   UNL     1     -10.452  14.296  64.826  1.00  0.00    -0.421 C  
HETATM    2  C   UNL     1      -9.818  13.089  65.412  1.00  0.00    -0.112 C  
HETATM    3  N   UNL     1      -9.409  12.922  66.636  1.00  0.00    -0.245 NA 
HETATM    4  N   UNL     1      -8.898  11.612  66.726  1.00  0.00    -0.179 N  
HETATM    5  O   UNL     1      -8.657   9.757  65.213  1.00  0.00    -0.137 OA 
HETATM    6  C   UNL     1      -8.971  10.882  65.549  1.00  0.00    -0.197 C  
HETATM    7  C   UNL     1      -9.566  11.868  64.608  1.00  0.00    -0.025 C  
ENDROOT
BRANCH   4   8
HETATM    8  C   UNL     1      -8.331  11.174  67.947  1.00  0.00    -0.129 A  
HETATM    9  C   UNL     1      -6.996  11.446  68.254  1.00  0.00    -0.072 A  
HETATM   10  C   UNL     1      -6.437  11.041  69.466  1.00  0.00    -0.109 A  
HETATM   11  C   UNL     1      -9.094  10.470  68.888  1.00  0.00    -0.180 A  
HETATM   12  C   UNL     1      -9.445   9.309  71.071  1.00  0.00    -0.313 C  
HETATM   13  C   UNL     1      -8.546  10.049  70.118  1.00  0.00    -0.046 A  
HETATM   14  C   UNL     1      -7.201  10.344  70.410  1.00  0.00     0.132 A  
HETATM   15  C   UNL     1      -6.542   9.929  71.695  1.00  0.00     0.542 C  
ENDBRANCH   4   8
BRANCH   7  16
HETATM   16  N   UNL     1      -9.815  11.755  63.341  1.00  0.00    -0.479 NA 
HETATM   17  H   UNL     1     -10.769  11.712  62.984  1.00  0.00     0.000 HD 
BRANCH  16  18
HETATM   18  N   UNL     1      -8.734  11.695  62.510  1.00  0.00    -0.562 NA 
HETATM   19  H   UNL     1      -8.691  12.298  61.689  1.00  0.00     0.000 HD 
BRANCH  18  20
HETATM   20  C   UNL     1      -7.674  10.802  62.781  1.00  0.00    -0.003 A  
HETATM   21  C   UNL     1      -7.888   9.566  63.423  1.00  0.00    -0.132 A  
HETATM   22  C   UNL     1      -6.866   8.617  63.626  1.00  0.00    -0.088 A  
HETATM   23  O   UNL     1      -9.165   9.283  63.865  1.00  0.00    -0.430 OA 
HETATM   24  C   UNL     1      -6.366  11.127  62.413  1.00  0.00     0.092 A  
HETATM   25  C   UNL     1      -5.564   9.001  63.272  1.00  0.00    -0.072 A  
HETATM   26  H   UNL     1      -9.308   8.450  64.298  1.00  0.00     0.000 HD 
HETATM   27  C   UNL     1      -5.315  10.243  62.677  1.00  0.00    -0.115 A  
BRANCH  22  28
HETATM   28  C   UNL     1      -7.172   7.239  64.063  1.00  0.00    -0.077 A  
HETATM   29  C   UNL     1      -7.459   6.192  63.176  1.00  0.00    -0.069 A  
HETATM   30  C   UNL     1      -7.801   4.920  63.654  1.00  0.00    -0.085 A  
HETATM   31  C   UNL     1      -7.825   4.663  65.026  1.00  0.00    -0.094 A  
HETATM   32  C   UNL     1      -7.509   5.682  65.922  1.00  0.00    -0.078 A  
HETATM   33  C   UNL     1      -7.237   6.961  65.441  1.00  0.00    -0.073 A  
HETATM   34  C   UNL     1      -7.504   5.407  67.379  1.00  0.00    -0.084 C  
HETATM   35  O   UNL     1      -6.561   6.106  68.056  1.00  0.00    -0.056 OA 
HETATM   36  O   UNL     1      -8.249   4.607  67.904  1.00  0.00    -0.098 OA 
ENDBRANCH  22  28
ENDBRANCH  18  20
ENDBRANCH  16  18
ENDBRANCH   7  16
TORSDOF 5
ENDMDL
MODEL      236
REMARK 921   NORMALIZED FREE ENERGY PREDICTED BY IDOCK:    4.41 KCAL/MOL
REMARK 922        TOTAL FREE ENERGY PREDICTED BY IDOCK:    4.40 KCAL/MOL
REMARK 923 INTER-LIGAND FREE ENERGY PREDICTED BY IDOCK:   -2.46 KCAL/MOL
REMARK 924 INTRA-LIGAND FREE ENERGY PREDICTED BY IDOCK:    6.86 KCAL/MOL
REMARK 927      BINDING AFFINITY PREDICTED BY RF-SCORE:    0.00 PKD
ROOT
HETATM    1  C   UNL     1      -9.379  13.447  64.473  1.00  0.00     1.358 C  
HETATM    2  C   UNL     1      -9.383  14.292  65.692  1.00  0.00     0.180 C  
HETATM    3  N   UNL     1      -8.356  14.793  66.315  1.00  0.00     0.335 NA 
HETATM    4  N   UNL     1      -8.853  15.539  67.402  1.00  0.00    -0.184 N  
HETATM    5  O   UNL     1     -11.037  16.056  68.271  1.00  0.00    -0.324 OA 
HETATM    6  C   UNL     1     -10.236  15.549  67.509  1.00  0.00    -0.254 C  
HETATM    7  C   UNL     1     -10.643  14.677  66.374  1.00  0.00    -0.301 C  
ENDROOT
BRANCH   4   8
HETATM    8  C   UNL     1      -7.942  16.157  68.290  1.00  0.00    -0.152 A  
HETATM    9  C   UNL     1      -7.887  15.783  69.634  1.00  0.00    -0.044 A  
HETATM   10  C   UNL     1      -6.974  16.369  70.511  1.00  0.00     1.501 A  
HETATM   11  C   UNL     1      -7.059  17.151  67.846  1.00  0.00    -0.170 A  
HETATM   12  C   UNL     1      -5.213  18.807  68.147  1.00  0.00    -0.179 C  
HETATM   13  C   UNL     1      -6.130  17.757  68.717  1.00  0.00    -0.195 A  
HETATM   14  C   UNL     1      -6.085  17.356  70.065  1.00  0.00    -0.118 A  
HETATM   15  C   UNL     1      -5.128  17.954  71.056  1.00  0.00    -0.236 C  
ENDBRANCH   4   8
BRANCH   7  16
HETATM   16  N   UNL     1     -11.825  14.282  66.019  1.00  0.00    -0.381 NA 
HETATM   17  H   UNL     1     -12.639  14.891  66.097  1.00  0.00     0.000 HD 
BRANCH  16  18
HETATM   18  N   UNL     1     -11.923  13.009  65.535  1.00  0.00    -0.398 NA 
HETATM   19  H   UNL     1     -12.760  12.723  65.029  1.00  0.00     0.000 HD 
BRANCH  18  20
HETATM   20  C   UNL     1     -10.872  12.087  65.733  1.00  0.00    -0.287 A  
HETATM   21  C   UNL     1     -10.542  11.599  67.012  1.00  0.00    -0.237 A  
HETATM   22  C   UNL     1      -9.559  10.613  67.230  1.00  0.00    -0.186 A  
HETATM   23  O   UNL     1     -11.224  12.116  68.096  1.00  0.00    -0.229 OA 
HETATM   24  C   UNL     1     -10.122  11.630  64.648  1.00  0.00    -0.305 A  
HETATM   25  C   UNL     1      -8.809  10.208  66.116  1.00  0.00    -0.162 A  
HETATM   26  H   UNL     1     -11.001  11.787  68.958  1.00  0.00     0.000 HD 
HETATM   27  C   UNL     1      -9.082  10.714  64.840  1.00  0.00    -0.231 A  
BRANCH  22  28
HETATM   28  C   UNL     1      -9.420   9.941  68.539  1.00  0.00    -0.149 A  
HETATM   29  C   UNL     1      -8.552  10.385  69.548  1.00  0.00    -0.109 A  
HETATM   30  C   UNL     1      -8.418   9.670  70.745  1.00  0.00     0.069 A  
HETATM   31  C   UNL     1      -9.177   8.520  70.971  1.00  0.00    -0.227 A  
HETATM   32  C   UNL     1     -10.070   8.082  69.995  1.00  0.00    -0.196 A  
HETATM   33  C   UNL     1     -10.146   8.760  68.780  1.00  0.00    -0.213 A  
HETATM   34  C   UNL     1     -10.900   6.879  70.240  1.00  0.00    -0.257 C  
HETATM   35  O   UNL     1     -12.131   6.949  69.679  1.00  0.00     0.036 OA 
HETATM   36  O   UNL     1     -10.524   5.941  70.910  1.00  0.00    -0.220 OA 
ENDBRANCH  22  28
ENDBRANCH  18  20
ENDBRANCH  16  18
ENDBRANCH   7  16
TORSDOF 5
ENDMDL
MODEL      237
REMARK 921   NORMALIZED FREE ENERGY PREDICTED BY IDOCK:    5.02 KCAL/MOL
REMARK 922        TOTAL FREE ENERGY PREDICTED BY IDOCK:    5.18 KCAL/MOL
REMARK 923 INTER-LIGAND FREE ENERGY PREDICTED BY IDOCK:    4.70 KCAL/MOL
REMARK 924 INTRA-LIGAND FREE ENERGY PREDICTED BY IDOCK:    0.48 KCAL/MOL
REMARK 927      BINDING AFFINITY PREDICTED BY RF-SCORE:    0.00 PKD
ROOT
HETATM    1  C   UNL     1     -10.185  13.550  64.490  1.00  0.00    -0.296 C  
HETATM    2  C   UNL     1     -10.420  14.195  65.806  1.00  0.00    -0.311 C  
HETATM    3  N   UNL     1     -10.042  15.380  66.189  1.00  0.00    -0.285 NA 
HETATM    4  N   UNL     1     -10.511  15.559  67.505  1.00  0.00    -0.276 N  
HETATM    5  O   UNL     1     -11.782  14.243  69.067  1.00  0.00    -0.278 OA 
HETATM    6  C   UNL     1     -11.224  14.484  68.015  1.00  0.00    -0.292 C  
HETATM    7  C   UNL     1     -11.159  13.508  66.893  1.00  0.00    -0.296 C  
ENDROOT
BRANCH   4   8
HETATM    8  C   UNL     1     -10.194  16.754  68.194  1.00  0.00    -0.301 A  
HETATM    9  C   UNL     1      -9.069  17.505  67.845  1.00  0.00    -0.261 A  
HETATM   10  C   UNL     1      -8.764  18.696  68.503  1.00  0.00    -0.362 A  
HETATM   11  C   UNL     1     -11.004  17.225  69.237  1.00  0.00     0.233 A  
HETATM   12  C   UNL     1     -11.645  18.859  71.013  1.00  0.00     7.337 C  
HETATM   13  C   UNL     1     -10.710  18.426  69.915  1.00  0.00     1.552 A  
HETATM   14  C   UNL     1      -9.579  19.172  69.539  1.00  0.00     0.059 A  
HETATM   15  C   UNL     1      -9.196  20.459  70.213  1.00  0.00     1.432 C  
ENDBRANCH   4   8
BRANCH   7  16
HETATM   16  N   UNL     1     -11.609  12.295  66.828  1.00  0.00    -0.444 NA 
HETATM   17  H   UNL     1     -12.594  12.080  66.986  1.00  0.00     0.000 HD 
BRANCH  16  18
HETATM   18  N   UNL     1     -10.700  11.320  66.535  1.00  0.00    -0.267 NA 
HETATM   19  H   UNL     1     -10.255  11.301  65.618  1.00  0.00     0.000 HD 
BRANCH  18  20
HETATM   20  C   UNL     1     -10.372  10.339  67.496  1.00  0.00    -0.229 A  
HETATM   21  C   UNL     1      -9.927   9.055  67.126  1.00  0.00    -0.224 A  
HETATM   22  C   UNL     1      -9.507   8.086  68.059  1.00  0.00    -0.157 A  
HETATM   23  O   UNL     1      -9.901   8.745  65.780  1.00  0.00    -0.462 OA 
HETATM   24  C   UNL     1     -10.482  10.622  68.859  1.00  0.00    -0.232 A  
HETATM   25  C   UNL     1      -9.668   8.402  69.416  1.00  0.00    -0.177 A  
HETATM   26  H   UNL     1      -9.601   7.879  65.531  1.00  0.00     0.000 HD 
HETATM   27  C   UNL     1     -10.155   9.653  69.813  1.00  0.00    -0.258 A  
BRANCH  22  28
HETATM   28  C   UNL     1      -8.808   6.856  67.631  1.00  0.00    -0.118 A  
HETATM   29  C   UNL     1      -8.053   6.054  68.499  1.00  0.00    -0.107 A  
HETATM   30  C   UNL     1      -7.362   4.933  68.021  1.00  0.00    -0.070 A  
HETATM   31  C   UNL     1      -7.446   4.571  66.675  1.00  0.00    -0.082 A  
HETATM   32  C   UNL     1      -8.220   5.336  65.804  1.00  0.00    -0.119 A  
HETATM   33  C   UNL     1      -8.847   6.488  66.273  1.00  0.00    -0.154 A  
HETATM   34  C   UNL     1      -8.337   4.941  64.380  1.00  0.00    -0.133 C  
HETATM   35  O   UNL     1      -9.549   5.215  63.842  1.00  0.00     0.332 OA 
HETATM   36  O   UNL     1      -7.443   4.392  63.771  1.00  0.00    -0.054 OA 
ENDBRANCH  22  28
ENDBRANCH  18  20
ENDBRANCH  16  18
ENDBRANCH   7  16
TORSDOF 5
ENDMDL
MODEL      238
REMARK 921   NORMALIZED FREE ENERGY PREDICTED BY IDOCK:    5.61 KCAL/MOL
REMARK 922        TOTAL FREE ENERGY PREDICTED BY IDOCK:    5.95 KCAL/MOL
REMARK 923 INTER-LIGAND FREE ENERGY PREDICTED BY IDOCK:    5.05 KCAL/MOL
REMARK 924 INTRA-LIGAND FREE ENERGY PREDICTED BY IDOCK:    0.90 KCAL/MOL
REMARK 927      BINDING AFFINITY PREDICTED BY RF-SCORE:    0.00 PKD
ROOT
HETATM    1  C   UNL     1      -6.864  15.122  71.702  1.00  0.00     1.835 C  
HETATM    2  C   UNL     1      -6.836  14.464  70.373  1.00  0.00     0.161 C  
HETATM    3  N   UNL     1      -6.975  13.197  70.110  1.00  0.00     0.588 NA 
HETATM    4  N   UNL     1      -6.897  13.052  68.711  1.00  0.00    -0.098 N  
HETATM    5  O   UNL     1      -6.600  14.543  66.847  1.00  0.00     0.122 OA 
HETATM    6  C   UNL     1      -6.711  14.239  68.018  1.00  0.00    -0.148 C  
HETATM    7  C   UNL     1      -6.629  15.234  69.122  1.00  0.00    -0.130 C  
ENDROOT
BRANCH   4   8
HETATM    8  C   UNL     1      -6.965  11.757  68.146  1.00  0.00    -0.076 A  
HETATM    9  C   UNL     1      -6.805  11.566  66.772  1.00  0.00    -0.114 A  
HETATM   10  C   UNL     1      -6.845  10.290  66.210  1.00  0.00    -0.110 A  
HETATM   11  C   UNL     1      -7.180  10.627  68.948  1.00  0.00    -0.090 A  
HETATM   12  C   UNL     1      -7.450   8.175  69.340  1.00  0.00    -0.091 C  
HETATM   13  C   UNL     1      -7.226   9.329  68.398  1.00  0.00    -0.076 A  
HETATM   14  C   UNL     1      -7.051   9.160  67.013  1.00  0.00    -0.086 A  
HETATM   15  C   UNL     1      -7.090   7.812  66.350  1.00  0.00    -0.071 C  
ENDBRANCH   4   8
BRANCH   7  16
HETATM   16  N   UNL     1      -6.405  16.509  69.069  1.00  0.00    -0.158 NA 
HETATM   17  H   UNL     1      -5.575  16.925  69.491  1.00  0.00     0.000 HD 
BRANCH  16  18
HETATM   18  N   UNL     1      -7.336  17.266  68.418  1.00  0.00    -0.214 NA 
HETATM   19  H   UNL     1      -7.229  17.457  67.422  1.00  0.00     0.000 HD 
BRANCH  18  20
HETATM   20  C   UNL     1      -8.446  17.788  69.118  1.00  0.00     0.123 A  
HETATM   21  C   UNL     1      -9.356  16.954  69.797  1.00  0.00     0.718 A  
HETATM   22  C   UNL     1     -10.420  17.449  70.576  1.00  0.00     1.278 A  
HETATM   23  O   UNL     1      -9.182  15.588  69.690  1.00  0.00    -0.275 OA 
HETATM   24  C   UNL     1      -8.674  19.165  69.153  1.00  0.00    -0.136 A  
HETATM   25  C   UNL     1     -10.630  18.835  70.556  1.00  0.00     2.128 A  
HETATM   26  H   UNL     1      -9.796  15.026  70.147  1.00  0.00     0.000 HD 
HETATM   27  C   UNL     1      -9.771  19.684  69.848  1.00  0.00     0.326 A  
BRANCH  22  28
HETATM   28  C   UNL     1     -11.191  16.566  71.477  1.00  0.00     0.173 A  
HETATM   29  C   UNL     1     -11.740  16.993  72.695  1.00  0.00     0.419 A  
HETATM   30  C   UNL     1     -12.408  16.092  73.536  1.00  0.00    -0.664 A  
HETATM   31  C   UNL     1     -12.573  14.759  73.155  1.00  0.00    -0.531 A  
HETATM   32  C   UNL     1     -12.065  14.325  71.933  1.00  0.00    -0.167 A  
HETATM   33  C   UNL     1     -11.342  15.209  71.135  1.00  0.00    -0.363 A  
HETATM   34  C   UNL     1     -12.264  12.918  71.510  1.00  0.00     0.356 C  
HETATM   35  O   UNL     1     -12.423  12.774  70.173  1.00  0.00    -0.185 OA 
HETATM   36  O   UNL     1     -12.313  11.993  72.293  1.00  0.00     0.603 OA 
ENDBRANCH  22  28
ENDBRANCH  18  20
ENDBRANCH  16  18
ENDBRANCH   7  16
TORSDOF 5
ENDMDL
MODEL      239
REMARK 921   NORMALIZED FREE ENERGY PREDICTED BY IDOCK:    6.14 KCAL/MOL
REMARK 922        TOTAL FREE ENERGY PREDICTED BY IDOCK:    6.64 KCAL/MOL
REMARK 923 INTER-LIGAND FREE ENERGY PREDICTED BY IDOCK:   -0.23 KCAL/MOL
REMARK 924 INTRA-LIGAND FREE ENERGY PREDICTED BY IDOCK:    6.86 KCAL/MOL
REMARK 927      BINDING AFFINITY PREDICTED BY RF-SCORE:    0.00 PKD
ROOT
HETATM    1  C   UNL     1     -14.322  15.337  73.122  1.00  0.00     1.152 C  
HETATM    2  C   UNL     1     -13.385  14.477  72.358  1.00  0.00    -0.433 C  
HETATM    3  N   UNL     1     -13.487  13.200  72.128  1.00  0.00    -0.540 NA 
HETATM    4  N   UNL     1     -12.375  12.830  71.345  1.00  0.00    -0.104 N  
HETATM    5  O   UNL     1     -10.482  13.978  70.404  1.00  0.00     0.781 OA 
HETATM    6  C   UNL     1     -11.515  13.873  71.036  1.00  0.00     0.536 C  
HETATM    7  C   UNL     1     -12.150  15.019  71.740  1.00  0.00    -0.361 C  
ENDROOT
BRANCH   4   8
HETATM    8  C   UNL     1     -12.204  11.471  70.988  1.00  0.00    -0.263 A  
HETATM    9  C   UNL     1     -10.943  10.973  70.651  1.00  0.00     0.596 A  
HETATM   10  C   UNL     1     -10.762   9.630  70.323  1.00  0.00    -0.335 A  
HETATM   11  C   UNL     1     -13.288  10.583  70.976  1.00  0.00    -0.189 A  
HETATM   12  C   UNL     1     -14.346   8.342  70.671  1.00  0.00     0.639 C  
HETATM   13  C   UNL     1     -13.125   9.222  70.645  1.00  0.00     0.235 A  
HETATM   14  C   UNL     1     -11.844   8.740  70.319  1.00  0.00     0.144 A  
HETATM   15  C   UNL     1     -11.587   7.306  69.952  1.00  0.00    -0.021 C  
ENDBRANCH   4   8
BRANCH   7  16
HETATM   16  N   UNL     1     -11.750  16.247  71.847  1.00  0.00    -0.563 NA 
HETATM   17  H   UNL     1     -11.516  16.657  72.751  1.00  0.00     0.000 HD 
BRANCH  16  18
HETATM   18  N   UNL     1     -11.656  16.962  70.688  1.00  0.00    -0.052 NA 
HETATM   19  H   UNL     1     -12.149  17.850  70.599  1.00  0.00     0.000 HD 
BRANCH  18  20
HETATM   20  C   UNL     1     -10.881  16.478  69.611  1.00  0.00    -0.322 A  
HETATM   21  C   UNL     1     -11.261  15.340  68.873  1.00  0.00    -0.285 A  
HETATM   22  C   UNL     1     -10.557  14.887  67.740  1.00  0.00    -0.262 A  
HETATM   23  O   UNL     1     -12.381  14.648  69.288  1.00  0.00    -0.525 OA 
HETATM   24  C   UNL     1      -9.699  17.126  69.246  1.00  0.00    -0.057 A  
HETATM   25  C   UNL     1      -9.359  15.548  67.432  1.00  0.00    -0.211 A  
HETATM   26  H   UNL     1     -12.637  13.880  68.791  1.00  0.00     0.000 HD 
HETATM   27  C   UNL     1      -8.931  16.651  68.179  1.00  0.00    -0.210 A  
BRANCH  22  28
HETATM   28  C   UNL     1     -11.122  13.856  66.844  1.00  0.00    -0.309 A  
HETATM   29  C   UNL     1     -11.209  12.498  67.185  1.00  0.00    -0.352 A  
HETATM   30  C   UNL     1     -11.699  11.558  66.268  1.00  0.00     0.149 A  
HETATM   31  C   UNL     1     -12.145  11.965  65.009  1.00  0.00    -0.070 A  
HETATM   32  C   UNL     1     -12.099  13.314  64.665  1.00  0.00    -0.458 A  
HETATM   33  C   UNL     1     -11.547  14.232  65.556  1.00  0.00    -0.338 A  
HETATM   34  C   UNL     1     -12.599  13.756  63.342  1.00  0.00     0.319 C  
HETATM   35  O   UNL     1     -13.179  14.979  63.365  1.00  0.00     0.627 OA 
HETATM   36  O   UNL     1     -12.526  13.070  62.344  1.00  0.00     0.855 OA 
ENDBRANCH  22  28
ENDBRANCH  18  20
ENDBRANCH  16  18
ENDBRANCH   7  16
TORSDOF 5
ENDMDL
MODEL      240
REMARK 921   NORMALIZED FREE ENERGY PREDICTED BY IDOCK:    7.35 KCAL/MOL
REMARK 922        TOTAL FREE ENERGY PREDICTED BY IDOCK:    8.20 KCAL/MOL
REMARK 923 INTER-LIGAND FREE ENERGY PREDICTED BY IDOCK:   -1.35 KCAL/MOL
REMARK 924 INTRA-LIGAND FREE ENERGY PREDICTED BY IDOCK:    9.55 KCAL/MOL
REMARK 927      BINDING AFFINITY PREDICTED BY RF-SCORE:    0.00 PKD
ROOT
HETATM    1  C   UNL     1     -10.465  14.313  64.829  1.00  0.00    -0.421 C  
HETATM    2  C   UNL     1      -9.974  13.070  65.474  1.00  0.00    -0.214 C  
HETATM    3  N   UNL     1      -9.587  12.915  66.707  1.00  0.00    -0.240 NA 
HETATM    4  N   UNL     1      -9.230  11.561  66.862  1.00  0.00    -0.172 N  
HETATM    5  O   UNL     1      -9.203   9.621  65.440  1.00  0.00    -0.202 OA 
HETATM    6  C   UNL     1      -9.386  10.789  65.721  1.00  0.00    -0.203 C  
HETATM    7  C   UNL     1      -9.863  11.792  64.730  1.00  0.00    -0.211 C  
ENDROOT
BRANCH   4   8
HETATM    8  C   UNL     1      -8.718  11.120  68.105  1.00  0.00    -0.144 A  
HETATM    9  C   UNL     1      -7.359  11.244  68.405  1.00  0.00    -0.097 A  
HETATM   10  C   UNL     1      -6.851  10.835  69.637  1.00  0.00    -0.133 A  
HETATM   11  C   UNL     1      -9.558  10.559  69.077  1.00  0.00    -0.213 A  
HETATM   12  C   UNL     1     -10.043   9.559  71.313  1.00  0.00    -0.196 C  
HETATM   13  C   UNL     1      -9.062  10.138  70.328  1.00  0.00     0.200 A  
HETATM   14  C   UNL     1      -7.692  10.283  70.612  1.00  0.00     0.728 A  
HETATM   15  C   UNL     1      -7.086   9.857  71.919  1.00  0.00     1.398 C  
ENDBRANCH   4   8
BRANCH   7  16
HETATM   16  N   UNL     1     -10.123  11.648  63.469  1.00  0.00    -0.385 NA 
HETATM   17  H   UNL     1     -11.063  11.778  63.097  1.00  0.00     0.000 HD 
BRANCH  16  18
HETATM   18  N   UNL     1      -9.072  11.313  62.664  1.00  0.00    -0.441 NA 
HETATM   19  H   UNL     1      -8.884  11.858  61.823  1.00  0.00     0.000 HD 
BRANCH  18  20
HETATM   20  C   UNL     1      -8.245  10.216  62.990  1.00  0.00    -0.158 A  
HETATM   21  C   UNL     1      -8.731   9.105  63.707  1.00  0.00    -0.125 A  
HETATM   22  C   UNL     1      -7.955   7.958  63.969  1.00  0.00    -0.124 A  
HETATM   23  O   UNL     1     -10.032   9.153  64.165  1.00  0.00     0.267 OA 
HETATM   24  C   UNL     1      -6.903  10.205  62.603  1.00  0.00    -0.130 A  
HETATM   25  C   UNL     1      -6.605   8.006  63.591  1.00  0.00    -0.071 A  
HETATM   26  H   UNL     1     -10.360   8.404  64.649  1.00  0.00     0.000 HD 
HETATM   27  C   UNL     1      -6.082   9.118  62.922  1.00  0.00    -0.090 A  
BRANCH  22  28
HETATM   28  C   UNL     1      -8.566   6.718  64.490  1.00  0.00     0.294 A  
HETATM   29  C   UNL     1      -9.485   6.694  65.550  1.00  0.00     0.470 A  
HETATM   30  C   UNL     1      -9.983   5.480  66.041  1.00  0.00    -0.074 A  
HETATM   31  C   UNL     1      -9.602   4.271  65.455  1.00  0.00    -0.187 A  
HETATM   32  C   UNL     1      -8.718   4.276  64.378  1.00  0.00    -0.139 A  
HETATM   33  C   UNL     1      -8.174   5.483  63.942  1.00  0.00    -0.110 A  
HETATM   34  C   UNL     1      -8.333   2.998  63.733  1.00  0.00    -0.086 C  
HETATM   35  O   UNL     1      -8.131   3.108  62.399  1.00  0.00    -0.069 OA 
HETATM   36  O   UNL     1      -8.243   1.952  64.340  1.00  0.00    -0.073 OA 
ENDBRANCH  22  28
ENDBRANCH  18  20
ENDBRANCH  16  18
ENDBRANCH   7  16
TORSDOF 5
ENDMDL
MODEL      241
REMARK 921   NORMALIZED FREE ENERGY PREDICTED BY IDOCK:    7.68 KCAL/MOL
REMARK 922        TOTAL FREE ENERGY PREDICTED BY IDOCK:    8.63 KCAL/MOL
REMARK 923 INTER-LIGAND FREE ENERGY PREDICTED BY IDOCK:    8.59 KCAL/MOL
REMARK 924 INTRA-LIGAND FREE ENERGY PREDICTED BY IDOCK:    0.04 KCAL/MOL
REMARK 927      BINDING AFFINITY PREDICTED BY RF-SCORE:    0.00 PKD
ROOT
HETATM    1  C   UNL     1     -10.965  12.255  68.683  1.00  0.00    -0.276 C  
HETATM    2  C   UNL     1      -9.883  11.666  67.857  1.00  0.00    -0.184 C  
HETATM    3  N   UNL     1      -9.983  10.702  66.988  1.00  0.00    -0.195 NA 
HETATM    4  N   UNL     1      -8.699  10.502  66.442  1.00  0.00    -0.141 N  
HETATM    5  O   UNL     1      -6.532  11.503  66.743  1.00  0.00    -0.136 OA 
HETATM    6  C   UNL     1      -7.721  11.348  66.943  1.00  0.00    -0.155 C  
HETATM    7  C   UNL     1      -8.482  12.145  67.944  1.00  0.00    -0.163 C  
ENDROOT
BRANCH   4   8
HETATM    8  C   UNL     1      -8.504   9.466  65.498  1.00  0.00    -0.143 A  
HETATM    9  C   UNL     1      -8.220   9.759  64.162  1.00  0.00    -0.158 A  
HETATM   10  C   UNL     1      -8.001   8.744  63.231  1.00  0.00    -0.160 A  
HETATM   11  C   UNL     1      -8.577   8.118  65.877  1.00  0.00    -0.171 A  
HETATM   12  C   UNL     1      -8.447   5.661  65.451  1.00  0.00    -0.147 C  
HETATM   13  C   UNL     1      -8.361   7.078  64.950  1.00  0.00    -0.016 A  
HETATM   14  C   UNL     1      -8.064   7.396  63.612  1.00  0.00    -0.012 A  
HETATM   15  C   UNL     1      -7.824   6.348  62.563  1.00  0.00    -0.102 C  
ENDBRANCH   4   8
BRANCH   7  16
HETATM   16  N   UNL     1      -8.063  13.058  68.763  1.00  0.00    -0.341 NA 
HETATM   17  H   UNL     1      -7.069  13.221  68.920  1.00  0.00     0.000 HD 
BRANCH  16  18
HETATM   18  N   UNL     1      -9.022  13.790  69.403  1.00  0.00     0.058 NA 
HETATM   19  H   UNL     1      -9.878  13.337  69.720  1.00  0.00     0.000 HD 
BRANCH  18  20
HETATM   20  C   UNL     1      -8.833  15.171  69.627  1.00  0.00    -0.049 A  
HETATM   21  C   UNL     1      -8.605  16.072  68.568  1.00  0.00    -0.190 A  
HETATM   22  C   UNL     1      -8.503  17.465  68.751  1.00  0.00    -0.225 A  
HETATM   23  O   UNL     1      -8.483  15.553  67.295  1.00  0.00    -0.167 OA 
HETATM   24  C   UNL     1      -8.868  15.686  70.924  1.00  0.00     2.664 A  
HETATM   25  C   UNL     1      -8.510  17.933  70.074  1.00  0.00     2.128 A  
HETATM   26  H   UNL     1      -8.329  16.160  66.581  1.00  0.00     0.000 HD 
HETATM   27  C   UNL     1      -8.685  17.054  71.149  1.00  0.00     7.153 A  
BRANCH  22  28
HETATM   28  C   UNL     1      -8.524  18.397  67.604  1.00  0.00    -0.264 A  
HETATM   29  C   UNL     1      -9.540  19.340  67.392  1.00  0.00    -0.389 A  
HETATM   30  C   UNL     1      -9.537  20.154  66.252  1.00  0.00    -0.487 A  
HETATM   31  C   UNL     1      -8.497  20.067  65.323  1.00  0.00     0.825 A  
HETATM   32  C   UNL     1      -7.461  19.160  65.534  1.00  0.00     0.036 A  
HETATM   33  C   UNL     1      -7.508  18.306  66.635  1.00  0.00    -0.253 A  
HETATM   34  C   UNL     1      -6.340  19.083  64.568  1.00  0.00     0.108 C  
HETATM   35  O   UNL     1      -5.149  18.796  65.145  1.00  0.00    -0.143 OA 
HETATM   36  O   UNL     1      -6.474  19.292  63.381  1.00  0.00     0.287 OA 
ENDBRANCH  22  28
ENDBRANCH  18  20
ENDBRANCH  16  18
ENDBRANCH   7  16
TORSDOF 5
ENDMDL
MODEL      242
REMARK 921   NORMALIZED FREE ENERGY PREDICTED BY IDOCK:    8.36 KCAL/MOL
REMARK 922        TOTAL FREE ENERGY PREDICTED BY IDOCK:    9.50 KCAL/MOL
REMARK 923 INTER-LIGAND FREE ENERGY PREDICTED BY IDOCK:    7.74 KCAL/MOL
REMARK 924 INTRA-LIGAND FREE ENERGY PREDICTED BY IDOCK:    1.76 KCAL/MOL
REMARK 927      BINDING AFFINITY PREDICTED BY RF-SCORE:    0.00 PKD
ROOT
HETATM    1  C   UNL     1      -7.383  15.033  72.032  1.00  0.00     3.606 C  
HETATM    2  C   UNL     1      -7.578  14.712  70.596  1.00  0.00     1.288 C  
HETATM    3  N   UNL     1      -8.553  14.038  70.058  1.00  0.00     1.508 NA 
HETATM    4  N   UNL     1      -8.320  14.011  68.669  1.00  0.00    -0.138 N  
HETATM    5  O   UNL     1      -6.638  14.896  67.194  1.00  0.00    -0.269 OA 
HETATM    6  C   UNL     1      -7.178  14.684  68.262  1.00  0.00    -0.117 C  
HETATM    7  C   UNL     1      -6.616  15.154  69.557  1.00  0.00    -0.163 C  
ENDROOT
BRANCH   4   8
HETATM    8  C   UNL     1      -9.208  13.292  67.834  1.00  0.00    -0.213 A  
HETATM    9  C   UNL     1      -9.024  13.262  66.450  1.00  0.00     0.010 A  
HETATM   10  C   UNL     1      -9.879  12.535  65.623  1.00  0.00    -0.227 A  
HETATM   11  C   UNL     1     -10.287  12.576  68.371  1.00  0.00    -0.237 A  
HETATM   12  C   UNL     1     -12.288  11.090  68.219  1.00  0.00     0.656 C  
HETATM   13  C   UNL     1     -11.164  11.836  67.551  1.00  0.00    -0.354 A  
HETATM   14  C   UNL     1     -10.953  11.812  66.160  1.00  0.00    -0.355 A  
HETATM   15  C   UNL     1     -11.842  11.051  65.219  1.00  0.00     1.153 C  
ENDBRANCH   4   8
BRANCH   7  16
HETATM   16  N   UNL     1      -5.516  15.796  69.796  1.00  0.00    -0.118 NA 
HETATM   17  H   UNL     1      -4.966  15.622  70.637  1.00  0.00     0.000 HD 
BRANCH  16  18
HETATM   18  N   UNL     1      -5.131  16.715  68.863  1.00  0.00    -0.118 NA 
HETATM   19  H   UNL     1      -4.339  16.517  68.252  1.00  0.00     0.000 HD 
BRANCH  18  20
HETATM   20  C   UNL     1      -5.824  17.940  68.740  1.00  0.00    -0.188 A  
HETATM   21  C   UNL     1      -7.023  18.045  68.008  1.00  0.00    -0.211 A  
HETATM   22  C   UNL     1      -7.783  19.230  67.942  1.00  0.00    -0.318 A  
HETATM   23  O   UNL     1      -7.466  16.925  67.333  1.00  0.00    -0.151 OA 
HETATM   24  C   UNL     1      -5.329  19.094  69.350  1.00  0.00    -0.207 A  
HETATM   25  C   UNL     1      -7.230  20.372  68.541  1.00  0.00    -0.092 A  
HETATM   26  H   UNL     1      -8.275  16.997  66.839  1.00  0.00     0.000 HD 
HETATM   27  C   UNL     1      -6.015  20.307  69.232  1.00  0.00    -0.372 A  
BRANCH  22  28
HETATM   28  C   UNL     1      -9.153  19.236  67.388  1.00  0.00    -0.345 A  
HETATM   29  C   UNL     1     -10.059  20.289  67.579  1.00  0.00    -0.519 A  
HETATM   30  C   UNL     1     -11.367  20.210  67.081  1.00  0.00     0.773 A  
HETATM   31  C   UNL     1     -11.778  19.094  66.349  1.00  0.00     1.740 A  
HETATM   32  C   UNL     1     -10.881  18.053  66.120  1.00  0.00     0.036 A  
HETATM   33  C   UNL     1      -9.605  18.109  66.678  1.00  0.00    -0.306 A  
HETATM   34  C   UNL     1     -11.303  16.879  65.319  1.00  0.00     0.418 C  
HETATM   35  O   UNL     1     -10.306  16.351  64.570  1.00  0.00    -0.153 OA 
HETATM   36  O   UNL     1     -12.440  16.457  65.312  1.00  0.00     1.722 OA 
ENDBRANCH  22  28
ENDBRANCH  18  20
ENDBRANCH  16  18
ENDBRANCH   7  16
TORSDOF 5
ENDMDL
MODEL      243
REMARK 921   NORMALIZED FREE ENERGY PREDICTED BY IDOCK:   12.92 KCAL/MOL
REMARK 922        TOTAL FREE ENERGY PREDICTED BY IDOCK:   15.39 KCAL/MOL
REMARK 923 INTER-LIGAND FREE ENERGY PREDICTED BY IDOCK:   11.08 KCAL/MOL
REMARK 924 INTRA-LIGAND FREE ENERGY PREDICTED BY IDOCK:    4.32 KCAL/MOL
REMARK 927      BINDING AFFINITY PREDICTED BY RF-SCORE:    0.00 PKD
ROOT
HETATM    1  C   UNL     1     -12.285  12.021  69.252  1.00  0.00    -0.135 C  
HETATM    2  C   UNL     1     -11.680  13.340  68.944  1.00  0.00    -0.327 C  
HETATM    3  N   UNL     1     -10.420  13.613  68.765  1.00  0.00    -0.230 NA 
HETATM    4  N   UNL     1     -10.331  14.990  68.477  1.00  0.00    -0.224 N  
HETATM    5  O   UNL     1     -11.901  16.798  68.247  1.00  0.00     0.203 OA 
HETATM    6  C   UNL     1     -11.548  15.653  68.452  1.00  0.00    -0.350 C  
HETATM    7  C   UNL     1     -12.503  14.566  68.801  1.00  0.00     0.138 C  
ENDROOT
BRANCH   4   8
HETATM    8  C   UNL     1      -9.057  15.575  68.288  1.00  0.00    -0.186 A  
HETATM    9  C   UNL     1      -8.068  14.917  67.552  1.00  0.00    -0.200 A  
HETATM   10  C   UNL     1      -6.818  15.499  67.340  1.00  0.00    -0.224 A  
HETATM   11  C   UNL     1      -8.753  16.836  68.820  1.00  0.00    -0.258 A  
HETATM   12  C   UNL     1      -7.264  18.801  69.217  1.00  0.00    -0.178 C  
HETATM   13  C   UNL     1      -7.494  17.439  68.618  1.00  0.00    -0.263 A  
HETATM   14  C   UNL     1      -6.518  16.763  67.864  1.00  0.00    -0.151 A  
HETATM   15  C   UNL     1      -5.153  17.335  67.606  1.00  0.00    -0.127 C  
ENDBRANCH   4   8
BRANCH   7  16
HETATM   16  N   UNL     1     -13.785  14.618  68.979  1.00  0.00     3.054 NA 
HETATM   17  H   UNL     1     -14.434  14.668  68.194  1.00  0.00     0.000 HD 
BRANCH  16  18
HETATM   18  N   UNL     1     -14.223  14.603  70.272  1.00  0.00     0.723 NA 
HETATM   19  H   UNL     1     -15.009  15.190  70.548  1.00  0.00     0.000 HD 
BRANCH  18  20
HETATM   20  C   UNL     1     -13.591  13.779  71.230  1.00  0.00    -0.103 A  
HETATM   21  C   UNL     1     -13.638  12.374  71.149  1.00  0.00     0.809 A  
HETATM   22  C   UNL     1     -12.945  11.528  72.036  1.00  0.00    -0.373 A  
HETATM   23  O   UNL     1     -14.401  11.812  70.144  1.00  0.00     4.992 OA 
HETATM   24  C   UNL     1     -12.893  14.347  72.298  1.00  0.00    -0.425 A  
HETATM   25  C   UNL     1     -12.285  12.141  73.112  1.00  0.00     6.109 A  
HETATM   26  H   UNL     1     -14.433  10.864  70.090  1.00  0.00     0.000 HD 
HETATM   27  C   UNL     1     -12.264  13.534  73.246  1.00  0.00     1.891 A  
BRANCH  22  28
HETATM   28  C   UNL     1     -12.806  10.080  71.771  1.00  0.00    -0.546 A  
HETATM   29  C   UNL     1     -13.824   9.148  72.015  1.00  0.00    -0.480 A  
HETATM   30  C   UNL     1     -13.610   7.779  71.800  1.00  0.00    -0.390 A  
HETATM   31  C   UNL     1     -12.389   7.324  71.300  1.00  0.00    -0.401 A  
HETATM   32  C   UNL     1     -11.377   8.239  71.019  1.00  0.00    -0.299 A  
HETATM   33  C   UNL     1     -11.573   9.590  71.301  1.00  0.00    -0.445 A  
HETATM   34  C   UNL     1     -10.088   7.766  70.460  1.00  0.00    -0.192 C  
HETATM   35  O   UNL     1      -9.523   8.639  69.593  1.00  0.00    -0.160 OA 
HETATM   36  O   UNL     1      -9.608   6.685  70.729  1.00  0.00    -0.174 OA 
ENDBRANCH  22  28
ENDBRANCH  18  20
ENDBRANCH  16  18
ENDBRANCH   7  16
TORSDOF 5
ENDMDL
MODEL      244
REMARK 921   NORMALIZED FREE ENERGY PREDICTED BY IDOCK:   15.55 KCAL/MOL
REMARK 922        TOTAL FREE ENERGY PREDICTED BY IDOCK:   18.79 KCAL/MOL
REMARK 923 INTER-LIGAND FREE ENERGY PREDICTED BY IDOCK:   11.43 KCAL/MOL
REMARK 924 INTRA-LIGAND FREE ENERGY PREDICTED BY IDOCK:    7.36 KCAL/MOL
REMARK 927      BINDING AFFINITY PREDICTED BY RF-SCORE:    0.00 PKD
ROOT
HETATM    1  C   UNL     1      -6.320  14.114  73.059  1.00  0.00     1.231 C  
HETATM    2  C   UNL     1      -6.859  14.533  71.742  1.00  0.00     1.815 C  
HETATM    3  N   UNL     1      -7.810  13.966  71.056  1.00  0.00     3.231 NA 
HETATM    4  N   UNL     1      -7.988  14.730  69.885  1.00  0.00     0.138 N  
HETATM    5  O   UNL     1      -6.992  16.718  68.966  1.00  0.00    -0.196 OA 
HETATM    6  C   UNL     1      -7.152  15.832  69.783  1.00  0.00    -0.077 C  
HETATM    7  C   UNL     1      -6.335  15.719  71.022  1.00  0.00     0.898 C  
ENDROOT
BRANCH   4   8
HETATM    8  C   UNL     1      -8.933  14.306  68.922  1.00  0.00    -0.025 A  
HETATM    9  C   UNL     1     -10.258  14.745  68.977  1.00  0.00    -0.237 A  
HETATM   10  C   UNL     1     -11.189  14.352  68.016  1.00  0.00    -0.298 A  
HETATM   11  C   UNL     1      -8.567  13.446  67.877  1.00  0.00    -0.184 A  
HETATM   12  C   UNL     1      -9.006  12.122  65.806  1.00  0.00     0.154 C  
HETATM   13  C   UNL     1      -9.495  13.036  66.897  1.00  0.00    -0.242 A  
HETATM   14  C   UNL     1     -10.821  13.500  66.967  1.00  0.00    -0.287 A  
HETATM   15  C   UNL     1     -11.870  13.108  65.965  1.00  0.00    -0.457 C  
ENDBRANCH   4   8
BRANCH   7  16
HETATM   16  N   UNL     1      -5.348  16.452  71.429  1.00  0.00     0.033 NA 
HETATM   17  H   UNL     1      -4.763  16.174  72.217  1.00  0.00     0.000 HD 
BRANCH  16  18
HETATM   18  N   UNL     1      -5.130  17.616  70.749  1.00  0.00    -0.256 NA 
HETATM   19  H   UNL     1      -4.262  17.744  70.229  1.00  0.00     0.000 HD 
BRANCH  18  20
HETATM   20  C   UNL     1      -6.100  18.642  70.761  1.00  0.00     0.331 A  
HETATM   21  C   UNL     1      -7.075  18.756  69.751  1.00  0.00     0.228 A  
HETATM   22  C   UNL     1      -8.108  19.713  69.782  1.00  0.00     0.503 A  
HETATM   23  O   UNL     1      -7.005  17.879  68.686  1.00  0.00    -0.232 OA 
HETATM   24  C   UNL     1      -6.116  19.584  71.792  1.00  0.00     0.099 A  
HETATM   25  C   UNL     1      -8.065  20.659  70.817  1.00  0.00     2.437 A  
HETATM   26  H   UNL     1      -7.662  17.957  68.005  1.00  0.00     0.000 HD 
HETATM   27  C   UNL     1      -7.078  20.600  71.808  1.00  0.00     1.606 A  
BRANCH  22  28
HETATM   28  C   UNL     1      -9.254  19.640  68.852  1.00  0.00    -0.307 A  
HETATM   29  C   UNL     1     -10.408  20.427  68.983  1.00  0.00     0.053 A  
HETATM   30  C   UNL     1     -11.488  20.269  68.104  1.00  0.00     1.657 A  
HETATM   31  C   UNL     1     -11.418  19.348  67.056  1.00  0.00     0.537 A  
HETATM   32  C   UNL     1     -10.266  18.582  66.889  1.00  0.00    -0.411 A  
HETATM   33  C   UNL     1      -9.225  18.697  67.808  1.00  0.00    -0.306 A  
HETATM   34  C   UNL     1     -10.174  17.625  65.761  1.00  0.00    -0.150 C  
HETATM   35  O   UNL     1      -8.923  17.506  65.256  1.00  0.00     0.448 OA 
HETATM   36  O   UNL     1     -11.135  17.035  65.314  1.00  0.00    -0.300 OA 
ENDBRANCH  22  28
ENDBRANCH  18  20
ENDBRANCH  16  18
ENDBRANCH   7  16
TORSDOF 5
ENDMDL
MODEL      245
REMARK 921   NORMALIZED FREE ENERGY PREDICTED BY IDOCK:   17.66 KCAL/MOL
REMARK 922        TOTAL FREE ENERGY PREDICTED BY IDOCK:   21.53 KCAL/MOL
REMARK 923 INTER-LIGAND FREE ENERGY PREDICTED BY IDOCK:    6.28 KCAL/MOL
REMARK 924 INTRA-LIGAND FREE ENERGY PREDICTED BY IDOCK:   15.24 KCAL/MOL
REMARK 927      BINDING AFFINITY PREDICTED BY RF-SCORE:    0.00 PKD
ROOT
HETATM    1  C   UNL     1     -11.568   4.689  68.835  1.00  0.00     5.833 C  
HETATM    2  C   UNL     1     -10.934   5.790  68.069  1.00  0.00    -0.047 C  
HETATM    3  N   UNL     1     -11.139   7.069  68.201  1.00  0.00    -0.083 NA 
HETATM    4  N   UNL     1     -10.300   7.720  67.275  1.00  0.00    -0.272 N  
HETATM    5  O   UNL     1      -8.681   7.020  65.639  1.00  0.00    -0.140 OA 
HETATM    6  C   UNL     1      -9.512   6.870  66.514  1.00  0.00    -0.153 C  
HETATM    7  C   UNL     1      -9.938   5.531  67.001  1.00  0.00    -0.174 C  
ENDROOT
BRANCH   4   8
HETATM    8  C   UNL     1     -10.357   9.130  67.164  1.00  0.00    -0.267 A  
HETATM    9  C   UNL     1     -11.409   9.754  66.490  1.00  0.00     1.128 A  
HETATM   10  C   UNL     1     -11.486  11.143  66.399  1.00  0.00     0.160 A  
HETATM   11  C   UNL     1      -9.369   9.941  67.738  1.00  0.00    -0.154 A  
HETATM   12  C   UNL     1      -8.327  12.137  68.313  1.00  0.00    -0.172 C  
HETATM   13  C   UNL     1      -9.427  11.348  67.655  1.00  0.00    -0.165 A  
HETATM   14  C   UNL     1     -10.503  11.955  66.981  1.00  0.00    -0.253 A  
HETATM   15  C   UNL     1     -10.637  13.445  66.845  1.00  0.00    -0.273 C  
ENDBRANCH   4   8
BRANCH   7  16
HETATM   16  N   UNL     1      -9.573   4.353  66.604  1.00  0.00    -0.182 NA 
HETATM   17  H   UNL     1      -9.086   4.213  65.718  1.00  0.00     0.000 HD 
BRANCH  16  18
HETATM   18  N   UNL     1      -9.871   3.309  67.431  1.00  0.00    -0.254 NA 
HETATM   19  H   UNL     1     -10.102   2.398  67.036  1.00  0.00     0.000 HD 
BRANCH  18  20
HETATM   20  C   UNL     1      -9.863   3.484  68.833  1.00  0.00     0.209 A  
HETATM   21  C   UNL     1      -9.246   4.596  69.439  1.00  0.00    -0.119 A  
HETATM   22  C   UNL     1      -9.298   4.844  70.825  1.00  0.00    -0.211 A  
HETATM   23  O   UNL     1      -8.565   5.479  68.625  1.00  0.00    -0.103 OA 
HETATM   24  C   UNL     1     -10.475   2.544  69.665  1.00  0.00     2.245 A  
HETATM   25  C   UNL     1      -9.894   3.857  71.624  1.00  0.00    -0.247 A  
HETATM   26  H   UNL     1      -8.149   6.228  69.035  1.00  0.00     0.000 HD 
HETATM   27  C   UNL     1     -10.471   2.717  71.052  1.00  0.00     1.091 A  
BRANCH  22  28
HETATM   28  C   UNL     1      -8.869   6.139  71.392  1.00  0.00    -0.139 A  
HETATM   29  C   UNL     1      -8.984   6.465  72.752  1.00  0.00    -0.124 A  
HETATM   30  C   UNL     1      -8.616   7.734  73.220  1.00  0.00    -0.240 A  
HETATM   31  C   UNL     1      -8.090   8.685  72.343  1.00  0.00    -0.063 A  
HETATM   32  C   UNL     1      -7.935   8.368  70.996  1.00  0.00    -0.116 A  
HETATM   33  C   UNL     1      -8.368   7.129  70.527  1.00  0.00    -0.131 A  
HETATM   34  C   UNL     1      -7.349   9.363  70.066  1.00  0.00    -0.101 C  
HETATM   35  O   UNL     1      -6.600   8.808  69.084  1.00  0.00    -0.046 OA 
HETATM   36  O   UNL     1      -7.500  10.559  70.198  1.00  0.00    -0.153 OA 
ENDBRANCH  22  28
ENDBRANCH  18  20
ENDBRANCH  16  18
ENDBRANCH   7  16
TORSDOF 5
ENDMDL
MODEL      246
REMARK 921   NORMALIZED FREE ENERGY PREDICTED BY IDOCK:   22.05 KCAL/MOL
REMARK 922        TOTAL FREE ENERGY PREDICTED BY IDOCK:   27.19 KCAL/MOL
REMARK 923 INTER-LIGAND FREE ENERGY PREDICTED BY IDOCK:   23.26 KCAL/MOL
REMARK 924 INTRA-LIGAND FREE ENERGY PREDICTED BY IDOCK:    3.94 KCAL/MOL
REMARK 927      BINDING AFFINITY PREDICTED BY RF-SCORE:    0.00 PKD
ROOT
HETATM    1  C   UNL     1      -9.474  13.828  69.060  1.00  0.00     0.202 C  
HETATM    2  C   UNL     1      -8.932  12.453  68.932  1.00  0.00     0.304 C  
HETATM    3  N   UNL     1      -9.599  11.336  68.907  1.00  0.00    -0.153 NA 
HETATM    4  N   UNL     1      -8.661  10.296  68.751  1.00  0.00    -0.130 N  
HETATM    5  O   UNL     1      -6.269  10.165  68.521  1.00  0.00    -0.045 OA 
HETATM    6  C   UNL     1      -7.343  10.718  68.660  1.00  0.00    -0.097 C  
HETATM    7  C   UNL     1      -7.477  12.193  68.813  1.00  0.00    -0.075 C  
ENDROOT
BRANCH   4   8
HETATM    8  C   UNL     1      -9.110   8.955  68.746  1.00  0.00    -0.134 A  
HETATM    9  C   UNL     1      -8.472   7.982  69.518  1.00  0.00    -0.131 A  
HETATM   10  C   UNL     1      -8.925   6.663  69.538  1.00  0.00    -0.138 A  
HETATM   11  C   UNL     1     -10.216   8.565  67.977  1.00  0.00    -0.264 A  
HETATM   12  C   UNL     1     -11.890   6.914  67.135  1.00  0.00     1.794 C  
HETATM   13  C   UNL     1     -10.688   7.236  67.982  1.00  0.00    -0.209 A  
HETATM   14  C   UNL     1     -10.036   6.276  68.777  1.00  0.00    -0.173 A  
HETATM   15  C   UNL     1     -10.473   4.840  68.836  1.00  0.00     0.159 C  
ENDBRANCH   4   8
BRANCH   7  16
HETATM   16  N   UNL     1      -6.557  13.104  68.863  1.00  0.00    -0.099 NA 
HETATM   17  H   UNL     1      -5.714  12.984  69.423  1.00  0.00     0.000 HD 
BRANCH  16  18
HETATM   18  N   UNL     1      -6.776  14.233  68.127  1.00  0.00    -0.112 NA 
HETATM   19  H   UNL     1      -6.294  15.098  68.370  1.00  0.00     0.000 HD 
BRANCH  18  20
HETATM   20  C   UNL     1      -7.665  14.209  67.030  1.00  0.00     0.159 A  
HETATM   21  C   UNL     1      -8.484  15.310  66.713  1.00  0.00    -0.255 A  
HETATM   22  C   UNL     1      -9.315  15.350  65.575  1.00  0.00    -0.037 A  
HETATM   23  O   UNL     1      -8.459  16.398  67.562  1.00  0.00    -0.166 OA 
HETATM   24  C   UNL     1      -7.757  13.074  66.222  1.00  0.00     1.501 A  
HETATM   25  C   UNL     1      -9.400  14.176  64.811  1.00  0.00     1.518 A  
HETATM   26  H   UNL     1      -9.012  17.141  67.348  1.00  0.00     0.000 HD 
HETATM   27  C   UNL     1      -8.635  13.049  65.133  1.00  0.00     2.415 A  
BRANCH  22  28
HETATM   28  C   UNL     1      -9.956  16.605  65.133  1.00  0.00     0.484 A  
HETATM   29  C   UNL     1     -11.064  16.647  64.274  1.00  0.00     0.525 A  
HETATM   30  C   UNL     1     -11.591  17.871  63.841  1.00  0.00     6.491 A  
HETATM   31  C   UNL     1     -11.044  19.075  64.290  1.00  0.00     5.254 A  
HETATM   32  C   UNL     1      -9.965  19.054  65.171  1.00  0.00     1.600 A  
HETATM   33  C   UNL     1      -9.404  17.833  65.542  1.00  0.00     0.812 A  
HETATM   34  C   UNL     1      -9.398  20.328  65.675  1.00  0.00     0.207 C  
HETATM   35  O   UNL     1      -8.942  20.249  66.947  1.00  0.00    -0.335 OA 
HETATM   36  O   UNL     1      -9.380  21.348  65.020  1.00  0.00     2.385 OA 
ENDBRANCH  22  28
ENDBRANCH  18  20
ENDBRANCH  16  18
ENDBRANCH   7  16
TORSDOF 5
ENDMDL
MODEL      247
REMARK 921   NORMALIZED FREE ENERGY PREDICTED BY IDOCK:   22.91 KCAL/MOL
REMARK 922        TOTAL FREE ENERGY PREDICTED BY IDOCK:   28.30 KCAL/MOL
REMARK 923 INTER-LIGAND FREE ENERGY PREDICTED BY IDOCK:   18.48 KCAL/MOL
REMARK 924 INTRA-LIGAND FREE ENERGY PREDICTED BY IDOCK:    9.82 KCAL/MOL
REMARK 927      BINDING AFFINITY PREDICTED BY RF-SCORE:    0.00 PKD
ROOT
HETATM    1  C   UNL     1      -8.806  13.641  63.287  1.00  0.00     9.065 C  
HETATM    2  C   UNL     1      -8.250  12.599  64.185  1.00  0.00     4.701 C  
HETATM    3  N   UNL     1      -8.017  11.350  63.904  1.00  0.00     0.935 NA 
HETATM    4  N   UNL     1      -7.473  10.759  65.062  1.00  0.00     0.086 N  
HETATM    5  O   UNL     1      -6.912  11.521  67.274  1.00  0.00    -0.104 OA 
HETATM    6  C   UNL     1      -7.329  11.624  66.137  1.00  0.00     0.335 C  
HETATM    7  C   UNL     1      -7.882  12.893  65.591  1.00  0.00     3.145 C  
ENDROOT
BRANCH   4   8
HETATM    8  C   UNL     1      -7.171   9.377  65.056  1.00  0.00    -0.105 A  
HETATM    9  C   UNL     1      -6.473   8.791  66.114  1.00  0.00    -0.065 A  
HETATM   10  C   UNL     1      -6.193   7.425  66.127  1.00  0.00    -0.041 A  
HETATM   11  C   UNL     1      -7.575   8.552  63.996  1.00  0.00    -0.124 A  
HETATM   12  C   UNL     1      -7.784   6.362  62.816  1.00  0.00    -0.092 C  
HETATM   13  C   UNL     1      -7.300   7.169  63.990  1.00  0.00    -0.081 A  
HETATM   14  C   UNL     1      -6.605   6.599  65.072  1.00  0.00    -0.046 A  
HETATM   15  C   UNL     1      -6.271   5.136  65.141  1.00  0.00    -0.034 C  
ENDBRANCH   4   8
BRANCH   7  16
HETATM   16  N   UNL     1      -8.053  14.037  66.175  1.00  0.00     0.701 NA 
HETATM   17  H   UNL     1      -7.282  14.692  66.307  1.00  0.00     0.000 HD 
BRANCH  16  18
HETATM   18  N   UNL     1      -9.317  14.321  66.605  1.00  0.00    -0.280 NA 
HETATM   19  H   UNL     1      -9.558  15.272  66.880  1.00  0.00     0.000 HD 
BRANCH  18  20
HETATM   20  C   UNL     1     -10.294  13.302  66.670  1.00  0.00    -0.274 A  
HETATM   21  C   UNL     1      -9.951  11.958  66.912  1.00  0.00    -0.200 A  
HETATM   22  C   UNL     1     -10.908  10.936  67.071  1.00  0.00    -0.323 A  
HETATM   23  O   UNL     1      -8.610  11.640  67.000  1.00  0.00    -0.157 OA 
HETATM   24  C   UNL     1     -11.644  13.609  66.492  1.00  0.00    -0.392 A  
HETATM   25  C   UNL     1     -12.249  11.284  66.851  1.00  0.00     1.569 A  
HETATM   26  H   UNL     1      -8.380  10.733  67.163  1.00  0.00     0.000 HD 
HETATM   27  C   UNL     1     -12.614  12.603  66.559  1.00  0.00     0.692 A  
BRANCH  22  28
HETATM   28  C   UNL     1     -10.531   9.599  67.577  1.00  0.00    -0.321 A  
HETATM   29  C   UNL     1     -11.185   8.417  67.200  1.00  0.00     0.818 A  
HETATM   30  C   UNL     1     -10.822   7.186  67.762  1.00  0.00    -0.248 A  
HETATM   31  C   UNL     1      -9.772   7.110  68.680  1.00  0.00    -0.141 A  
HETATM   32  C   UNL     1      -9.088   8.269  69.040  1.00  0.00    -0.147 A  
HETATM   33  C   UNL     1      -9.501   9.498  68.529  1.00  0.00    -0.146 A  
HETATM   34  C   UNL     1      -7.953   8.190  69.991  1.00  0.00    -0.105 C  
HETATM   35  O   UNL     1      -6.969   9.084  69.731  1.00  0.00    -0.051 OA 
HETATM   36  O   UNL     1      -7.900   7.379  70.891  1.00  0.00    -0.093 OA 
ENDBRANCH  22  28
ENDBRANCH  18  20
ENDBRANCH  16  18
ENDBRANCH   7  16
TORSDOF 5
ENDMDL
MODEL      248
REMARK 921   NORMALIZED FREE ENERGY PREDICTED BY IDOCK:   27.61 KCAL/MOL
REMARK 922        TOTAL FREE ENERGY PREDICTED BY IDOCK:   34.37 KCAL/MOL
REMARK 923 INTER-LIGAND FREE ENERGY PREDICTED BY IDOCK:   31.68 KCAL/MOL
REMARK 924 INTRA-LIGAND FREE ENERGY PREDICTED BY IDOCK:    2.69 KCAL/MOL
REMARK 927      BINDING AFFINITY PREDICTED BY RF-SCORE:    0.00 PKD
ROOT
HETATM    1  C   UNL     1      -6.725  14.130  73.303  1.00  0.00     2.470 C  
HETATM    2  C   UNL     1      -7.575  14.718  72.239  1.00  0.00     4.795 C  
HETATM    3  N   UNL     1      -8.783  14.368  71.904  1.00  0.00     5.545 NA 
HETATM    4  N   UNL     1      -9.187  15.223  70.859  1.00  0.00     1.594 N  
HETATM    5  O   UNL     1      -8.195  17.063  69.668  1.00  0.00     0.335 OA 
HETATM    6  C   UNL     1      -8.242  16.168  70.490  1.00  0.00     2.447 C  
HETATM    7  C   UNL     1      -7.104  15.838  71.389  1.00  0.00     3.103 C  
ENDROOT
BRANCH   4   8
HETATM    8  C   UNL     1     -10.455  15.030  70.260  1.00  0.00    -0.031 A  
HETATM    9  C   UNL     1     -11.569  15.751  70.695  1.00  0.00    -0.416 A  
HETATM   10  C   UNL     1     -12.816  15.585  70.093  1.00  0.00    -0.141 A  
HETATM   11  C   UNL     1     -10.627  14.123  69.206  1.00  0.00    -0.127 A  
HETATM   12  C   UNL     1     -11.966  12.953  67.453  1.00  0.00    -0.360 C  
HETATM   13  C   UNL     1     -11.880  13.940  68.586  1.00  0.00    -0.407 A  
HETATM   14  C   UNL     1     -12.987  14.685  69.033  1.00  0.00     1.114 A  
HETATM   15  C   UNL     1     -14.355  14.547  68.429  1.00  0.00    12.079 C  
ENDBRANCH   4   8
BRANCH   7  16
HETATM   16  N   UNL     1      -5.920  16.363  71.449  1.00  0.00     0.931 NA 
HETATM   17  H   UNL     1      -5.593  16.852  72.283  1.00  0.00     0.000 HD 
BRANCH  16  18
HETATM   18  N   UNL     1      -5.135  16.227  70.342  1.00  0.00    -0.169 NA 
HETATM   19  H   UNL     1      -4.181  15.880  70.436  1.00  0.00     0.000 HD 
BRANCH  18  20
HETATM   20  C   UNL     1      -5.636  16.566  69.065  1.00  0.00    -0.130 A  
HETATM   21  C   UNL     1      -6.420  15.670  68.313  1.00  0.00    -0.119 A  
HETATM   22  C   UNL     1      -7.008  16.011  67.078  1.00  0.00    -0.209 A  
HETATM   23  O   UNL     1      -6.619  14.402  68.822  1.00  0.00    -0.082 OA 
HETATM   24  C   UNL     1      -5.361  17.817  68.509  1.00  0.00    -0.152 A  
HETATM   25  C   UNL     1      -6.677  17.265  66.543  1.00  0.00    -0.286 A  
HETATM   26  H   UNL     1      -7.147  13.798  68.314  1.00  0.00     0.000 HD 
HETATM   27  C   UNL     1      -5.859  18.156  67.247  1.00  0.00    -0.151 A  
BRANCH  22  28
HETATM   28  C   UNL     1      -8.027  15.147  66.446  1.00  0.00     0.488 A  
HETATM   29  C   UNL     1      -9.044  15.635  65.612  1.00  0.00     0.023 A  
HETATM   30  C   UNL     1     -10.019  14.774  65.090  1.00  0.00    -0.279 A  
HETATM   31  C   UNL     1      -9.971  13.405  65.363  1.00  0.00    -0.211 A  
HETATM   32  C   UNL     1      -8.949  12.897  66.161  1.00  0.00     0.162 A  
HETATM   33  C   UNL     1      -8.024  13.770  66.731  1.00  0.00     0.387 A  
HETATM   34  C   UNL     1      -8.877  11.441  66.429  1.00  0.00    -0.192 C  
HETATM   35  O   UNL     1      -7.609  10.975  66.533  1.00  0.00    -0.139 OA 
HETATM   36  O   UNL     1      -9.858  10.734  66.511  1.00  0.00    -0.190 OA 
ENDBRANCH  22  28
ENDBRANCH  18  20
ENDBRANCH  16  18
ENDBRANCH   7  16
TORSDOF 5
ENDMDL
MODEL      249
REMARK 921   NORMALIZED FREE ENERGY PREDICTED BY IDOCK:   30.84 KCAL/MOL
REMARK 922        TOTAL FREE ENERGY PREDICTED BY IDOCK:   38.55 KCAL/MOL
REMARK 923 INTER-LIGAND FREE ENERGY PREDICTED BY IDOCK:   21.23 KCAL/MOL
REMARK 924 INTRA-LIGAND FREE ENERGY PREDICTED BY IDOCK:   17.32 KCAL/MOL
REMARK 927      BINDING AFFINITY PREDICTED BY RF-SCORE:    0.00 PKD
ROOT
HETATM    1  C   UNL     1     -14.158  15.311  73.371  1.00  0.00     1.167 C  
HETATM    2  C   UNL     1     -13.020  15.004  72.470  1.00  0.00    -0.374 C  
HETATM    3  N   UNL     1     -12.816  13.911  71.793  1.00  0.00    -0.338 NA 
HETATM    4  N   UNL     1     -11.621  14.089  71.069  1.00  0.00    -0.000 N  
HETATM    5  O   UNL     1     -10.011  15.861  70.825  1.00  0.00     0.517 OA 
HETATM    6  C   UNL     1     -11.014  15.323  71.252  1.00  0.00    -0.155 C  
HETATM    7  C   UNL     1     -11.923  15.974  72.234  1.00  0.00    -0.538 C  
ENDROOT
BRANCH   4   8
HETATM    8  C   UNL     1     -11.127  13.025  70.278  1.00  0.00     0.848 A  
HETATM    9  C   UNL     1     -11.992  12.063  69.750  1.00  0.00    -0.370 A  
HETATM   10  C   UNL     1     -11.516  11.026  68.949  1.00  0.00    -0.364 A  
HETATM   11  C   UNL     1      -9.760  12.910  69.990  1.00  0.00     2.927 A  
HETATM   12  C   UNL     1      -7.777  11.833  68.919  1.00  0.00    -0.041 C  
HETATM   13  C   UNL     1      -9.259  11.867  69.184  1.00  0.00     0.437 A  
HETATM   14  C   UNL     1     -10.150  10.916  68.654  1.00  0.00    -0.200 A  
HETATM   15  C   UNL     1      -9.697   9.774  67.790  1.00  0.00    -0.167 C  
ENDBRANCH   4   8
BRANCH   7  16
HETATM   16  N   UNL     1     -11.821  17.128  72.814  1.00  0.00    -0.014 NA 
HETATM   17  H   UNL     1     -11.863  17.223  73.829  1.00  0.00     0.000 HD 
BRANCH  16  18
HETATM   18  N   UNL     1     -11.656  18.209  71.998  1.00  0.00     2.657 NA 
HETATM   19  H   UNL     1     -11.971  19.129  72.304  1.00  0.00     0.000 HD 
BRANCH  18  20
HETATM   20  C   UNL     1     -11.051  18.061  70.730  1.00  0.00     2.804 A  
HETATM   21  C   UNL     1     -11.364  16.983  69.879  1.00  0.00     0.702 A  
HETATM   22  C   UNL     1     -10.845  16.856  68.575  1.00  0.00    -0.335 A  
HETATM   23  O   UNL     1     -12.225  16.014  70.355  1.00  0.00    -0.411 OA 
HETATM   24  C   UNL     1     -10.112  18.993  70.284  1.00  0.00     1.192 A  
HETATM   25  C   UNL     1      -9.881  17.797  68.182  1.00  0.00    -0.326 A  
HETATM   26  H   UNL     1     -12.435  15.287  69.781  1.00  0.00     0.000 HD 
HETATM   27  C   UNL     1      -9.514  18.850  69.028  1.00  0.00    -0.291 A  
BRANCH  22  28
HETATM   28  C   UNL     1     -11.388  15.865  67.623  1.00  0.00    -0.151 A  
HETATM   29  C   UNL     1     -11.230  14.480  67.774  1.00  0.00    -0.312 A  
HETATM   30  C   UNL     1     -11.715  13.592  66.804  1.00  0.00    -0.430 A  
HETATM   31  C   UNL     1     -12.401  14.072  65.687  1.00  0.00    -0.502 A  
HETATM   32  C   UNL     1     -12.599  15.443  65.537  1.00  0.00     0.939 A  
HETATM   33  C   UNL     1     -12.053  16.322  66.470  1.00  0.00     1.858 A  
HETATM   34  C   UNL     1     -13.352  15.956  64.368  1.00  0.00     2.587 C  
HETATM   35  O   UNL     1     -14.089  17.058  64.643  1.00  0.00     6.758 OA 
HETATM   36  O   UNL     1     -13.335  15.417  63.282  1.00  0.00     1.159 OA 
ENDBRANCH  22  28
ENDBRANCH  18  20
ENDBRANCH  16  18
ENDBRANCH   7  16
TORSDOF 5
ENDMDL
MODEL      250
REMARK 921   NORMALIZED FREE ENERGY PREDICTED BY IDOCK:   39.43 KCAL/MOL
REMARK 922        TOTAL FREE ENERGY PREDICTED BY IDOCK:   49.66 KCAL/MOL
REMARK 923 INTER-LIGAND FREE ENERGY PREDICTED BY IDOCK:   37.55 KCAL/MOL
REMARK 924 INTRA-LIGAND FREE ENERGY PREDICTED BY IDOCK:   12.11 KCAL/MOL
REMARK 927      BINDING AFFINITY PREDICTED BY RF-SCORE:    0.00 PKD
ROOT
HETATM    1  C   UNL     1     -13.065  20.266  67.915  1.00  0.00     5.728 C  
HETATM    2  C   UNL     1     -12.529  18.898  67.706  1.00  0.00     4.973 C  
HETATM    3  N   UNL     1     -12.830  18.063  66.754  1.00  0.00     7.142 NA 
HETATM    4  N   UNL     1     -12.056  16.904  66.959  1.00  0.00     2.015 N  
HETATM    5  O   UNL     1     -10.409  16.203  68.567  1.00  0.00    -0.236 OA 
HETATM    6  C   UNL     1     -11.215  16.960  68.060  1.00  0.00    -0.064 C  
HETATM    7  C   UNL     1     -11.530  18.300  68.625  1.00  0.00     1.926 C  
ENDROOT
BRANCH   4   8
HETATM    8  C   UNL     1     -12.223  15.800  66.090  1.00  0.00     1.352 A  
HETATM    9  C   UNL     1     -11.908  14.505  66.508  1.00  0.00    -0.367 A  
HETATM   10  C   UNL     1     -12.094  13.409  65.667  1.00  0.00    -0.476 A  
HETATM   11  C   UNL     1     -12.721  15.970  64.791  1.00  0.00     1.487 A  
HETATM   12  C   UNL     1     -13.464  15.152  62.551  1.00  0.00     6.461 C  
HETATM   13  C   UNL     1     -12.913  14.874  63.924  1.00  0.00     1.160 A  
HETATM   14  C   UNL     1     -12.600  13.577  64.371  1.00  0.00    -0.233 A  
HETATM   15  C   UNL     1     -12.773  12.359  63.510  1.00  0.00    -0.443 C  
ENDBRANCH   4   8
BRANCH   7  16
HETATM   16  N   UNL     1     -11.080  18.870  69.698  1.00  0.00     1.652 NA 
HETATM   17  H   UNL     1     -11.121  19.881  69.825  1.00  0.00     0.000 HD 
BRANCH  16  18
HETATM   18  N   UNL     1     -10.550  18.048  70.650  1.00  0.00     0.985 NA 
HETATM   19  H   UNL     1     -10.099  18.448  71.472  1.00  0.00     0.000 HD 
BRANCH  18  20
HETATM   20  C   UNL     1     -10.621  16.645  70.501  1.00  0.00     0.402 A  
HETATM   21  C   UNL     1      -9.648  15.922  69.784  1.00  0.00    -0.084 A  
HETATM   22  C   UNL     1      -9.644  14.516  69.694  1.00  0.00     0.350 A  
HETATM   23  O   UNL     1      -8.654  16.638  69.146  1.00  0.00    -0.213 OA 
HETATM   24  C   UNL     1     -11.676  15.929  71.071  1.00  0.00    -0.473 A  
HETATM   25  C   UNL     1     -10.740  13.842  70.253  1.00  0.00     0.941 A  
HETATM   26  H   UNL     1      -7.998  16.150  68.662  1.00  0.00     0.000 HD 
HETATM   27  C   UNL     1     -11.748  14.539  70.929  1.00  0.00    -0.308 A  
BRANCH  22  28
HETATM   28  C   UNL     1      -8.478  13.782  69.160  1.00  0.00     0.388 A  
HETATM   29  C   UNL     1      -7.296  13.574  69.885  1.00  0.00     0.783 A  
HETATM   30  C   UNL     1      -6.201  12.923  69.301  1.00  0.00    -0.104 A  
HETATM   31  C   UNL     1      -6.282  12.435  67.996  1.00  0.00    -0.082 A  
HETATM   32  C   UNL     1      -7.461  12.601  67.271  1.00  0.00    -0.111 A  
HETATM   33  C   UNL     1      -8.520  13.310  67.835  1.00  0.00    -0.177 A  
HETATM   34  C   UNL     1      -7.564  12.059  65.896  1.00  0.00     1.101 C  
HETATM   35  O   UNL     1      -8.805  11.616  65.582  1.00  0.00    -0.100 OA 
HETATM   36  O   UNL     1      -6.618  11.987  65.140  1.00  0.00     2.174 OA 
ENDBRANCH  22  28
ENDBRANCH  18  20
ENDBRANCH  16  18
ENDBRANCH   7  16
TORSDOF 5
ENDMDL
MODEL      251
REMARK 921   NORMALIZED FREE ENERGY PREDICTED BY IDOCK:   51.61 KCAL/MOL
REMARK 922        TOTAL FREE ENERGY PREDICTED BY IDOCK:   65.39 KCAL/MOL
REMARK 923 INTER-LIGAND FREE ENERGY PREDICTED BY IDOCK:   62.56 KCAL/MOL
REMARK 924 INTRA-LIGAND FREE ENERGY PREDICTED BY IDOCK:    2.84 KCAL/MOL
REMARK 927      BINDING AFFINITY PREDICTED BY RF-SCORE:    0.00 PKD
ROOT
HETATM    1  C   UNL     1      -6.316  13.070  74.150  1.00  0.00     2.025 C  
HETATM    2  C   UNL     1      -7.313  13.504  73.141  1.00  0.00     7.255 C  
HETATM    3  N   UNL     1      -8.395  12.879  72.774  1.00  0.00    16.277 NA 
HETATM    4  N   UNL     1      -9.031  13.685  71.810  1.00  0.00    10.654 N  
HETATM    5  O   UNL     1      -8.582  15.817  70.789  1.00  0.00     1.757 OA 
HETATM    6  C   UNL     1      -8.375  14.874  71.528  1.00  0.00     4.286 C  
HETATM    7  C   UNL     1      -7.170  14.778  72.396  1.00  0.00     3.738 C  
ENDROOT
BRANCH   4   8
HETATM    8  C   UNL     1     -10.217  13.219  71.194  1.00  0.00     6.574 A  
HETATM    9  C   UNL     1     -10.956  14.045  70.345  1.00  0.00     0.455 A  
HETATM   10  C   UNL     1     -12.111  13.585  69.714  1.00  0.00    -0.381 A  
HETATM   11  C   UNL     1     -10.677  11.912  71.405  1.00  0.00     5.771 A  
HETATM   12  C   UNL     1     -12.254  10.007  71.056  1.00  0.00    -0.462 C  
HETATM   13  C   UNL     1     -11.844  11.428  70.778  1.00  0.00    -0.232 A  
HETATM   14  C   UNL     1     -12.566  12.276  69.918  1.00  0.00     0.173 A  
HETATM   15  C   UNL     1     -13.820  11.839  69.215  1.00  0.00     6.242 C  
ENDBRANCH   4   8
BRANCH   7  16
HETATM   16  N   UNL     1      -6.165  15.588  72.505  1.00  0.00     1.733 NA 
HETATM   17  H   UNL     1      -5.962  16.075  73.378  1.00  0.00     0.000 HD 
BRANCH  16  18
HETATM   18  N   UNL     1      -5.392  15.755  71.393  1.00  0.00    -0.002 NA 
HETATM   19  H   UNL     1      -4.381  15.636  71.455  1.00  0.00     0.000 HD 
BRANCH  18  20
HETATM   20  C   UNL     1      -5.984  16.092  70.156  1.00  0.00    -0.134 A  
HETATM   21  C   UNL     1      -6.602  15.126  69.338  1.00  0.00    -0.151 A  
HETATM   22  C   UNL     1      -7.278  15.445  68.145  1.00  0.00    -0.124 A  
HETATM   23  O   UNL     1      -6.538  13.806  69.740  1.00  0.00    -0.243 OA 
HETATM   24  C   UNL     1      -5.971  17.414  69.705  1.00  0.00    -0.245 A  
HETATM   25  C   UNL     1      -7.211  16.779  67.715  1.00  0.00    -0.152 A  
HETATM   26  H   UNL     1      -6.954  13.154  69.189  1.00  0.00     0.000 HD 
HETATM   27  C   UNL     1      -6.560  17.752  68.483  1.00  0.00    -0.213 A  
BRANCH  22  28
HETATM   28  C   UNL     1      -8.129  14.454  67.453  1.00  0.00    -0.217 A  
HETATM   29  C   UNL     1      -7.992  13.068  67.616  1.00  0.00    -0.169 A  
HETATM   30  C   UNL     1      -8.788  12.177  66.885  1.00  0.00    -0.202 A  
HETATM   31  C   UNL     1      -9.762  12.656  66.007  1.00  0.00    -0.232 A  
HETATM   32  C   UNL     1      -9.937  14.031  65.857  1.00  0.00    -0.325 A  
HETATM   33  C   UNL     1      -9.094  14.909  66.535  1.00  0.00    -0.309 A  
HETATM   34  C   UNL     1     -10.989  14.545  64.949  1.00  0.00    -0.410 C  
HETATM   35  O   UNL     1     -11.558  15.696  65.380  1.00  0.00    -0.053 OA 
HETATM   36  O   UNL     1     -11.329  13.970  63.937  1.00  0.00    -0.125 OA 
ENDBRANCH  22  28
ENDBRANCH  18  20
ENDBRANCH  16  18
ENDBRANCH   7  16
TORSDOF 5
ENDMDL
MODEL      252
REMARK 921   NORMALIZED FREE ENERGY PREDICTED BY IDOCK:   61.16 KCAL/MOL
REMARK 922        TOTAL FREE ENERGY PREDICTED BY IDOCK:   77.74 KCAL/MOL
REMARK 923 INTER-LIGAND FREE ENERGY PREDICTED BY IDOCK:   44.56 KCAL/MOL
REMARK 924 INTRA-LIGAND FREE ENERGY PREDICTED BY IDOCK:   33.18 KCAL/MOL
REMARK 927      BINDING AFFINITY PREDICTED BY RF-SCORE:    0.00 PKD
ROOT
HETATM    1  C   UNL     1      -6.882  17.158  66.488  1.00  0.00    -0.295 C  
HETATM    2  C   UNL     1      -7.448  15.818  66.780  1.00  0.00    -0.100 C  
HETATM    3  N   UNL     1      -7.174  15.042  67.788  1.00  0.00    -0.150 NA 
HETATM    4  N   UNL     1      -7.969  13.887  67.651  1.00  0.00    -0.160 N  
HETATM    5  O   UNL     1      -9.612  13.114  66.072  1.00  0.00    -0.244 OA 
HETATM    6  C   UNL     1      -8.797  13.886  66.538  1.00  0.00     0.004 C  
HETATM    7  C   UNL     1      -8.449  15.180  65.890  1.00  0.00     0.954 C  
ENDROOT
BRANCH   4   8
HETATM    8  C   UNL     1      -7.835  12.840  68.592  1.00  0.00    -0.044 A  
HETATM    9  C   UNL     1      -6.970  11.769  68.354  1.00  0.00    -0.080 A  
HETATM   10  C   UNL     1      -6.813  10.746  69.289  1.00  0.00    -0.092 A  
HETATM   11  C   UNL     1      -8.553  12.852  69.796  1.00  0.00     2.348 A  
HETATM   12  C   UNL     1      -9.212  11.930  72.022  1.00  0.00    18.666 C  
HETATM   13  C   UNL     1      -8.409  11.825  70.753  1.00  0.00     6.550 A  
HETATM   14  C   UNL     1      -7.524  10.762  70.496  1.00  0.00     1.159 A  
HETATM   15  C   UNL     1      -7.316   9.630  71.461  1.00  0.00     0.620 C  
ENDBRANCH   4   8
BRANCH   7  16
HETATM   16  N   UNL     1      -8.875  15.687  64.776  1.00  0.00     1.978 NA 
HETATM   17  H   UNL     1      -8.232  15.999  64.049  1.00  0.00     0.000 HD 
BRANCH  16  18
HETATM   18  N   UNL     1     -10.229  15.780  64.627  1.00  0.00    -0.431 NA 
HETATM   19  H   UNL     1     -10.643  16.652  64.299  1.00  0.00     0.000 HD 
BRANCH  18  20
HETATM   20  C   UNL     1     -11.058  14.676  64.923  1.00  0.00    -0.401 A  
HETATM   21  C   UNL     1     -10.533  13.460  65.403  1.00  0.00    -0.302 A  
HETATM   22  C   UNL     1     -11.341  12.373  65.792  1.00  0.00    -0.393 A  
HETATM   23  O   UNL     1      -9.161  13.342  65.497  1.00  0.00    -0.186 OA 
HETATM   24  C   UNL     1     -12.440  14.764  64.745  1.00  0.00    -0.222 A  
HETATM   25  C   UNL     1     -12.720  12.494  65.564  1.00  0.00     0.183 A  
HETATM   26  H   UNL     1      -8.807  12.522  65.820  1.00  0.00     0.000 HD 
HETATM   27  C   UNL     1     -13.263  13.673  65.041  1.00  0.00     0.154 A  
BRANCH  22  28
HETATM   28  C   UNL     1     -10.780  11.221  66.527  1.00  0.00    -0.323 A  
HETATM   29  C   UNL     1      -9.520  11.235  67.143  1.00  0.00    -0.183 A  
HETATM   30  C   UNL     1      -9.016  10.090  67.773  1.00  0.00    -0.133 A  
HETATM   31  C   UNL     1      -9.779   8.922  67.834  1.00  0.00    -0.190 A  
HETATM   32  C   UNL     1     -11.048   8.899  67.258  1.00  0.00     0.338 A  
HETATM   33  C   UNL     1     -11.512  10.020  66.573  1.00  0.00     1.298 A  
HETATM   34  C   UNL     1     -11.875   7.672  67.345  1.00  0.00     2.725 C  
HETATM   35  O   UNL     1     -13.201   7.923  67.451  1.00  0.00    11.815 OA 
HETATM   36  O   UNL     1     -11.402   6.555  67.355  1.00  0.00    -0.304 OA 
ENDBRANCH  22  28
ENDBRANCH  18  20
ENDBRANCH  16  18
ENDBRANCH   7  16
TORSDOF 5
ENDMDL
MODEL      253
REMARK 921   NORMALIZED FREE ENERGY PREDICTED BY IDOCK:   72.64 KCAL/MOL
REMARK 922        TOTAL FREE ENERGY PREDICTED BY IDOCK:   92.58 KCAL/MOL
REMARK 923 INTER-LIGAND FREE ENERGY PREDICTED BY IDOCK:   61.63 KCAL/MOL
REMARK 924 INTRA-LIGAND FREE ENERGY PREDICTED BY IDOCK:   30.95 KCAL/MOL
REMARK 927      BINDING AFFINITY PREDICTED BY RF-SCORE:    0.00 PKD
ROOT
HETATM    1  C   UNL     1      -6.869  17.158  66.425  1.00  0.00    -0.284 C  
HETATM    2  C   UNL     1      -7.606  15.872  66.354  1.00  0.00     0.209 C  
HETATM    3  N   UNL     1      -7.636  14.924  67.246  1.00  0.00    -0.203 NA 
HETATM    4  N   UNL     1      -8.482  13.913  66.747  1.00  0.00    -0.067 N  
HETATM    5  O   UNL     1      -9.794  13.604  64.754  1.00  0.00    -0.187 OA 
HETATM    6  C   UNL     1      -9.037  14.187  65.506  1.00  0.00     0.841 C  
HETATM    7  C   UNL     1      -8.436  15.509  65.180  1.00  0.00     3.580 C  
ENDROOT
BRANCH   4   8
HETATM    8  C   UNL     1      -8.658  12.727  67.497  1.00  0.00    -0.187 A  
HETATM    9  C   UNL     1      -7.885  11.593  67.236  1.00  0.00    -0.157 A  
HETATM   10  C   UNL     1      -8.034  10.428  67.988  1.00  0.00    -0.105 A  
HETATM   11  C   UNL     1      -9.601  12.657  68.532  1.00  0.00    -0.112 A  
HETATM   12  C   UNL     1     -10.797  11.511  70.401  1.00  0.00     1.017 C  
HETATM   13  C   UNL     1      -9.768  11.487  69.302  1.00  0.00     0.258 A  
HETATM   14  C   UNL     1      -8.970  10.362  69.028  1.00  0.00    -0.184 A  
HETATM   15  C   UNL     1      -9.088   9.078  69.800  1.00  0.00    -0.163 C  
ENDBRANCH   4   8
BRANCH   7  16
HETATM   16  N   UNL     1      -8.555  16.228  64.109  1.00  0.00     7.316 NA 
HETATM   17  H   UNL     1      -7.739  16.553  63.589  1.00  0.00     0.000 HD 
BRANCH  16  18
HETATM   18  N   UNL     1      -9.826  16.529  63.714  1.00  0.00     4.510 NA 
HETATM   19  H   UNL     1     -10.064  17.487  63.458  1.00  0.00     0.000 HD 
BRANCH  18  20
HETATM   20  C   UNL     1     -10.813  15.521  63.656  1.00  0.00     2.653 A  
HETATM   21  C   UNL     1     -10.550  14.199  64.063  1.00  0.00     0.749 A  
HETATM   22  C   UNL     1     -11.537  13.194  64.101  1.00  0.00    -0.460 A  
HETATM   23  O   UNL     1      -9.260  13.886  64.444  1.00  0.00     0.722 OA 
HETATM   24  C   UNL     1     -12.095  15.815  63.186  1.00  0.00     3.148 A  
HETATM   25  C   UNL     1     -12.800  13.526  63.589  1.00  0.00     0.370 A  
HETATM   26  H   UNL     1      -9.083  12.994  64.718  1.00  0.00     0.000 HD 
HETATM   27  C   UNL     1     -13.075  14.820  63.131  1.00  0.00     2.932 A  
BRANCH  22  28
HETATM   28  C   UNL     1     -11.293  11.900  64.772  1.00  0.00    -0.344 A  
HETATM   29  C   UNL     1     -11.159  11.762  66.161  1.00  0.00    -0.358 A  
HETATM   30  C   UNL     1     -10.867  10.516  66.734  1.00  0.00    -0.209 A  
HETATM   31  C   UNL     1     -10.743   9.381  65.931  1.00  0.00     0.754 A  
HETATM   32  C   UNL     1     -10.907   9.492  64.552  1.00  0.00     3.971 A  
HETATM   33  C   UNL     1     -11.128  10.745  63.985  1.00  0.00     0.517 A  
HETATM   34  C   UNL     1     -10.806   8.285  63.697  1.00  0.00    12.275 C  
HETATM   35  O   UNL     1     -11.634   8.311  62.627  1.00  0.00    13.815 OA 
HETATM   36  O   UNL     1     -10.076   7.351  63.955  1.00  0.00     5.007 OA 
ENDBRANCH  22  28
ENDBRANCH  18  20
ENDBRANCH  16  18
ENDBRANCH   7  16
TORSDOF 5
ENDMDL
