MODEL        1
REMARK 921   NORMALIZED FREE ENERGY PREDICTED BY IDOCK:   -6.90 KCAL/MOL
REMARK 922        TOTAL FREE ENERGY PREDICTED BY IDOCK:  -13.80 KCAL/MOL
REMARK 923 INTER-LIGAND FREE ENERGY PREDICTED BY IDOCK:  -10.93 KCAL/MOL
REMARK 924 INTRA-LIGAND FREE ENERGY PREDICTED BY IDOCK:   -2.87 KCAL/MOL
REMARK 927      BINDING AFFINITY PREDICTED BY RF-SCORE:    0.00 PKD
ROOT
HETATM    1  C   UNL     1      -5.888  18.766  69.805  1.00  0.00    -0.245 C  
HETATM    2  O   UNL     1      -6.029  18.121  68.538  1.00  0.00    -0.183 OA 
ENDROOT
BRANCH   2   3
HETATM    3  C   UNL     1      -6.494  16.830  68.545  1.00  0.00    -0.155 A  
HETATM    4  C   UNL     1      -5.965  15.818  69.351  1.00  0.00    -0.129 A  
HETATM    5  C   UNL     1      -6.550  14.548  69.382  1.00  0.00    -0.138 A  
HETATM    6  C   UNL     1      -7.655  14.238  68.584  1.00  0.00    -0.126 A  
HETATM    7  C   UNL     1      -8.148  15.236  67.728  1.00  0.00    -0.158 A  
HETATM    8  C   UNL     1      -8.203  17.504  66.771  1.00  0.00    -0.244 C  
HETATM    9  O   UNL     1      -8.142  18.790  67.172  1.00  0.00    -0.244 OA 
HETATM   10  C   UNL     1      -7.586  16.527  67.712  1.00  0.00    -0.162 A  
HETATM   11  O   UNL     1      -8.780  17.154  65.753  1.00  0.00    -0.527 OA 
BRANCH   6  12
HETATM   12  C   UNL     1      -8.343  12.889  68.649  1.00  0.00     0.032 C  
BRANCH  12  13
HETATM   13  N   UNL     1      -8.145  12.008  67.484  1.00  0.00    -0.150 N  
HETATM   14  O   UNL     1      -8.892  11.162  65.463  1.00  0.00    -0.195 OA 
HETATM   15  C   UNL     1      -8.994  12.019  66.351  1.00  0.00    -0.161 C  
BRANCH  13  16
HETATM   16  C   UNL     1      -7.222  10.855  67.649  1.00  0.00    -0.093 C  
HETATM   17  C   UNL     1      -5.750  11.253  67.863  1.00  0.00    -0.043 C  
BRANCH  16  18
HETATM   18  C   UNL     1      -7.637   9.979  68.812  1.00  0.00    -0.083 A  
HETATM   19  C   UNL     1      -7.707   9.311  70.930  1.00  0.00    -0.103 A  
HETATM   20  C   UNL     1      -8.874   8.975  70.277  1.00  0.00    -0.189 A  
HETATM   21  N   UNL     1      -8.792   9.354  68.956  1.00  0.00    -0.137 NA 
HETATM   22  H   UNL     1      -9.487   9.186  68.230  1.00  0.00     0.000 HD 
HETATM   23  N   UNL     1      -6.919   9.917  69.983  1.00  0.00    -0.101 NA 
BRANCH  20  24
HETATM   24  C   UNL     1     -10.086   8.411  70.855  1.00  0.00    -0.234 A  
HETATM   25  C   UNL     1     -11.954   6.852  70.649  1.00  0.00    -0.400 A  
HETATM   26  C   UNL     1     -12.518   7.353  71.818  1.00  0.00    -0.367 A  
HETATM   27  C   UNL     1     -11.866   8.369  72.518  1.00  0.00    -0.427 A  
HETATM   28  C   UNL     1     -10.748   7.375  70.174  1.00  0.00    -0.254 A  
HETATM   29  C   UNL     1     -10.654   8.892  72.043  1.00  0.00    -0.388 A  
ENDBRANCH  20  24
ENDBRANCH  16  18
ENDBRANCH  13  16
BRANCH  15  30
HETATM   30  C   UNL     1     -10.055  13.177  66.236  1.00  0.00    -0.285 C  
HETATM   31  H2  UNL     1     -10.488  12.753  64.230  1.00  0.00     0.000 HD 
HETATM   32  N   UNL     1     -10.242  13.556  64.808  1.00  0.00    -0.574 NA 
HETATM   33  H1  UNL     1     -10.928  14.306  64.735  1.00  0.00     0.000 HD 
BRANCH  30  34
HETATM   34  C   UNL     1     -11.467  12.860  66.776  1.00  0.00    -0.391 C  
BRANCH  34  35
HETATM   35  C   UNL     1     -11.801  13.190  68.218  1.00  0.00    -0.384 A  
HETATM   36  C   UNL     1     -11.460  15.698  67.723  1.00  0.00    -0.209 C  
HETATM   37  C   UNL     1     -12.347  12.542  70.512  1.00  0.00    -0.345 A  
HETATM   38  C   UNL     1     -11.859  10.700  68.951  1.00  0.00    -0.216 C  
HETATM   39  C   UNL     1     -11.808  14.547  68.637  1.00  0.00    -0.355 A  
HETATM   40  C   UNL     1     -12.006  12.181  69.193  1.00  0.00    -0.311 A  
HETATM   41  C   UNL     1     -12.439  13.876  70.897  1.00  0.00    -0.447 A  
HETATM   42  C   UNL     1     -12.148  14.869  69.960  1.00  0.00    -0.387 A  
BRANCH  41  43
HETATM   43  C   UNL     1     -12.790  14.311  72.278  1.00  0.00    -0.340 C  
HETATM   44  H2  UNL     1     -11.328  15.788  72.345  1.00  0.00     0.000 HD 
HETATM   45  H1  UNL     1     -12.326  15.628  73.800  1.00  0.00     0.000 HD 
HETATM   46  N   UNL     1     -12.085  15.331  72.854  1.00  0.00    -0.399 N  
HETATM   47  O   UNL     1     -13.695  13.775  72.909  1.00  0.00    -0.684 OA 
ENDBRANCH  41  43
ENDBRANCH  34  35
ENDBRANCH  30  34
ENDBRANCH  15  30
ENDBRANCH  12  13
ENDBRANCH   6  12
ENDBRANCH   2   3
TORSDOF 10
ENDMDL
MODEL        2
REMARK 921   NORMALIZED FREE ENERGY PREDICTED BY IDOCK:   -6.87 KCAL/MOL
REMARK 922        TOTAL FREE ENERGY PREDICTED BY IDOCK:  -13.76 KCAL/MOL
REMARK 923 INTER-LIGAND FREE ENERGY PREDICTED BY IDOCK:  -11.24 KCAL/MOL
REMARK 924 INTRA-LIGAND FREE ENERGY PREDICTED BY IDOCK:   -2.52 KCAL/MOL
REMARK 927      BINDING AFFINITY PREDICTED BY RF-SCORE:    0.00 PKD
ROOT
HETATM    1  C   UNL     1     -13.203  15.191  73.312  1.00  0.00    -0.451 C  
HETATM    2  O   UNL     1     -13.664  14.722  72.044  1.00  0.00    -0.354 OA 
ENDROOT
BRANCH   2   3
HETATM    3  C   UNL     1     -13.089  13.574  71.558  1.00  0.00    -0.344 A  
HETATM    4  C   UNL     1     -13.307  12.306  72.103  1.00  0.00    -0.473 A  
HETATM    5  C   UNL     1     -12.769  11.165  71.499  1.00  0.00    -0.499 A  
HETATM    6  C   UNL     1     -11.969  11.258  70.357  1.00  0.00    -0.471 A  
HETATM    7  C   UNL     1     -11.700  12.537  69.845  1.00  0.00    -0.327 A  
HETATM    8  C   UNL     1     -11.913  14.989  69.788  1.00  0.00    -0.328 C  
HETATM    9  O   UNL     1     -12.864  15.940  69.887  1.00  0.00    -0.150 OA 
HETATM   10  C   UNL     1     -12.261  13.689  70.428  1.00  0.00    -0.434 A  
HETATM   11  O   UNL     1     -10.876  15.152  69.163  1.00  0.00    -0.231 OA 
BRANCH   6  12
HETATM   12  C   UNL     1     -11.429  10.031  69.649  1.00  0.00    -0.155 C  
BRANCH  12  13
HETATM   13  N   UNL     1     -10.456   9.225  70.409  1.00  0.00    -0.226 N  
HETATM   14  O   UNL     1      -8.264   8.631  70.856  1.00  0.00    -0.114 OA 
HETATM   15  C   UNL     1      -9.056   9.422  70.328  1.00  0.00    -0.245 C  
BRANCH  13  16
HETATM   16  C   UNL     1     -10.945   7.963  71.022  1.00  0.00    -0.244 C  
HETATM   17  C   UNL     1     -12.474   7.791  70.974  1.00  0.00    -0.171 C  
BRANCH  16  18
HETATM   18  C   UNL     1     -10.323   6.751  70.360  1.00  0.00    -0.198 A  
HETATM   19  C   UNL     1      -9.879   4.592  70.079  1.00  0.00    -0.224 A  
HETATM   20  C   UNL     1      -9.841   5.257  68.872  1.00  0.00    -0.164 A  
HETATM   21  N   UNL     1     -10.070   6.599  69.073  1.00  0.00    -0.156 NA 
HETATM   22  H   UNL     1     -10.049   7.333  68.365  1.00  0.00     0.000 HD 
HETATM   23  N   UNL     1     -10.154   5.556  71.018  1.00  0.00    -0.199 NA 
BRANCH  20  24
HETATM   24  C   UNL     1      -9.697   4.678  67.542  1.00  0.00    -0.213 A  
HETATM   25  C   UNL     1     -10.477   4.564  65.232  1.00  0.00    -0.179 A  
HETATM   26  C   UNL     1      -9.596   3.519  64.972  1.00  0.00    -0.160 A  
HETATM   27  C   UNL     1      -8.752   3.061  65.985  1.00  0.00    -0.135 A  
HETATM   28  C   UNL     1     -10.525   5.138  66.505  1.00  0.00    -0.346 A  
HETATM   29  C   UNL     1      -8.797   3.640  67.261  1.00  0.00    -0.142 A  
ENDBRANCH  20  24
ENDBRANCH  16  18
ENDBRANCH  13  16
BRANCH  15  30
HETATM   30  C   UNL     1      -8.535  10.702  69.573  1.00  0.00     0.026 C  
HETATM   31  H2  UNL     1      -6.537  10.359  70.109  1.00  0.00     0.000 HD 
HETATM   32  N   UNL     1      -7.218  11.118  70.128  1.00  0.00    -0.415 NA 
HETATM   33  H1  UNL     1      -6.881  11.948  69.639  1.00  0.00     0.000 HD 
BRANCH  30  34
HETATM   34  C   UNL     1      -8.320  10.551  68.051  1.00  0.00    -0.116 C  
BRANCH  34  35
HETATM   35  C   UNL     1      -9.293  11.217  67.096  1.00  0.00    -0.176 A  
HETATM   36  C   UNL     1     -10.129   8.899  66.332  1.00  0.00    -0.333 C  
HETATM   37  C   UNL     1     -10.251  13.189  66.015  1.00  0.00    -0.287 A  
HETATM   38  C   UNL     1      -8.339  13.594  67.515  1.00  0.00    -0.191 C  
HETATM   39  C   UNL     1     -10.153  10.409  66.305  1.00  0.00    -0.292 A  
HETATM   40  C   UNL     1      -9.303  12.619  66.888  1.00  0.00    -0.228 A  
HETATM   41  C   UNL     1     -11.151  12.400  65.306  1.00  0.00    -0.342 A  
HETATM   42  C   UNL     1     -11.082  11.012  65.442  1.00  0.00     0.001 A  
BRANCH  41  43
HETATM   43  C   UNL     1     -12.168  12.951  64.368  1.00  0.00    -0.417 C  
HETATM   44  H2  UNL     1     -12.344  11.186  63.283  1.00  0.00     0.000 HD 
HETATM   45  H1  UNL     1     -13.361  12.528  62.736  1.00  0.00     0.000 HD 
HETATM   46  N   UNL     1     -12.665  12.150  63.378  1.00  0.00    -0.496 N  
HETATM   47  O   UNL     1     -12.568  14.108  64.462  1.00  0.00    -0.643 OA 
ENDBRANCH  41  43
ENDBRANCH  34  35
ENDBRANCH  30  34
ENDBRANCH  15  30
ENDBRANCH  12  13
ENDBRANCH   6  12
ENDBRANCH   2   3
TORSDOF 10
ENDMDL
MODEL        3
REMARK 921   NORMALIZED FREE ENERGY PREDICTED BY IDOCK:   -6.76 KCAL/MOL
REMARK 922        TOTAL FREE ENERGY PREDICTED BY IDOCK:  -13.58 KCAL/MOL
REMARK 923 INTER-LIGAND FREE ENERGY PREDICTED BY IDOCK:  -11.63 KCAL/MOL
REMARK 924 INTRA-LIGAND FREE ENERGY PREDICTED BY IDOCK:   -1.95 KCAL/MOL
REMARK 927      BINDING AFFINITY PREDICTED BY RF-SCORE:    0.00 PKD
ROOT
HETATM    1  C   UNL     1     -11.293  16.213  68.941  1.00  0.00    -0.350 C  
HETATM    2  O   UNL     1     -12.185  15.450  69.755  1.00  0.00    -0.337 OA 
ENDROOT
BRANCH   2   3
HETATM    3  C   UNL     1     -12.045  14.085  69.720  1.00  0.00    -0.348 A  
HETATM    4  C   UNL     1     -11.456  13.391  68.660  1.00  0.00    -0.345 A  
HETATM    5  C   UNL     1     -11.256  12.009  68.732  1.00  0.00    -0.316 A  
HETATM    6  C   UNL     1     -11.670  11.273  69.846  1.00  0.00    -0.430 A  
HETATM    7  C   UNL     1     -12.318  11.960  70.884  1.00  0.00    -0.400 A  
HETATM    8  C   UNL     1     -13.186  13.975  72.002  1.00  0.00    -0.412 C  
HETATM    9  O   UNL     1     -12.811  15.242  72.273  1.00  0.00    -0.315 OA 
HETATM   10  C   UNL     1     -12.497  13.356  70.835  1.00  0.00    -0.439 A  
HETATM   11  O   UNL     1     -13.975  13.355  72.697  1.00  0.00    -0.755 OA 
BRANCH   6  12
HETATM   12  C   UNL     1     -11.406   9.785  69.973  1.00  0.00    -0.220 C  
BRANCH  12  13
HETATM   13  N   UNL     1     -10.632   9.367  71.156  1.00  0.00    -0.320 N  
HETATM   14  O   UNL     1      -8.597   8.889  72.151  1.00  0.00    -0.381 OA 
HETATM   15  C   UNL     1      -9.217   9.391  71.204  1.00  0.00    -0.030 C  
BRANCH  13  16
HETATM   16  C   UNL     1     -11.349   8.593  72.203  1.00  0.00    -0.364 C  
HETATM   17  C   UNL     1     -12.848   8.388  71.918  1.00  0.00    -0.384 C  
BRANCH  16  18
HETATM   18  C   UNL     1     -10.726   7.228  72.404  1.00  0.00    -0.246 A  
HETATM   19  C   UNL     1     -10.365   5.288  73.426  1.00  0.00    -0.209 A  
HETATM   20  C   UNL     1     -10.172   5.163  72.067  1.00  0.00    -0.202 A  
HETATM   21  N   UNL     1     -10.353   6.385  71.458  1.00  0.00    -0.204 NA 
HETATM   22  H   UNL     1     -10.225   6.597  70.469  1.00  0.00     0.000 HD 
HETATM   23  N   UNL     1     -10.684   6.608  73.631  1.00  0.00    -0.287 NA 
BRANCH  20  24
HETATM   24  C   UNL     1      -9.925   3.942  71.313  1.00  0.00    -0.183 A  
HETATM   25  C   UNL     1      -9.589   1.524  71.327  1.00  0.00    -0.200 A  
HETATM   26  C   UNL     1      -9.310   1.541  69.964  1.00  0.00    -0.165 A  
HETATM   27  C   UNL     1      -9.354   2.749  69.267  1.00  0.00    -0.193 A  
HETATM   28  C   UNL     1      -9.895   2.714  71.993  1.00  0.00    -0.233 A  
HETATM   29  C   UNL     1      -9.665   3.943  69.935  1.00  0.00    -0.235 A  
ENDBRANCH  20  24
ENDBRANCH  16  18
ENDBRANCH  13  16
BRANCH  15  30
HETATM   30  C   UNL     1      -8.453  10.110  70.030  1.00  0.00    -0.004 C  
HETATM   31  H2  UNL     1      -6.562   9.644  70.807  1.00  0.00     0.000 HD 
HETATM   32  N   UNL     1      -7.071  10.457  70.461  1.00  0.00    -0.448 NA 
HETATM   33  H1  UNL     1      -6.576  10.923  69.700  1.00  0.00     0.000 HD 
BRANCH  30  34
HETATM   34  C   UNL     1      -8.295   9.297  68.726  1.00  0.00    -0.117 C  
BRANCH  34  35
HETATM   35  C   UNL     1      -8.736   9.912  67.411  1.00  0.00    -0.129 A  
HETATM   36  C   UNL     1     -10.466   8.024  67.107  1.00  0.00    -0.408 C  
HETATM   37  C   UNL     1      -8.541  11.579  65.633  1.00  0.00     0.120 A  
HETATM   38  C   UNL     1      -6.835  11.681  67.408  1.00  0.00    -0.114 C  
HETATM   39  C   UNL     1      -9.781   9.297  66.672  1.00  0.00    -0.281 A  
HETATM   40  C   UNL     1      -8.069  11.025  66.840  1.00  0.00    -0.142 A  
HETATM   41  C   UNL     1      -9.622  11.025  64.956  1.00  0.00    -0.291 A  
HETATM   42  C   UNL     1     -10.222   9.874  65.471  1.00  0.00    -0.194 A  
BRANCH  41  43
HETATM   43  C   UNL     1     -10.156  11.568  63.675  1.00  0.00    -0.388 C  
HETATM   44  H2  UNL     1     -12.044  11.958  64.455  1.00  0.00     0.000 HD 
HETATM   45  H1  UNL     1     -11.816  12.375  62.749  1.00  0.00     0.000 HD 
HETATM   46  N   UNL     1     -11.451  12.003  63.625  1.00  0.00    -0.445 N  
HETATM   47  O   UNL     1      -9.462  11.631  62.665  1.00  0.00    -0.288 OA 
ENDBRANCH  41  43
ENDBRANCH  34  35
ENDBRANCH  30  34
ENDBRANCH  15  30
ENDBRANCH  12  13
ENDBRANCH   6  12
ENDBRANCH   2   3
TORSDOF 10
ENDMDL
MODEL        4
REMARK 921   NORMALIZED FREE ENERGY PREDICTED BY IDOCK:   -6.64 KCAL/MOL
REMARK 922        TOTAL FREE ENERGY PREDICTED BY IDOCK:  -13.40 KCAL/MOL
REMARK 923 INTER-LIGAND FREE ENERGY PREDICTED BY IDOCK:  -11.68 KCAL/MOL
REMARK 924 INTRA-LIGAND FREE ENERGY PREDICTED BY IDOCK:   -1.71 KCAL/MOL
REMARK 927      BINDING AFFINITY PREDICTED BY RF-SCORE:    0.00 PKD
ROOT
HETATM    1  C   UNL     1     -13.742  14.288  72.579  1.00  0.00    -0.505 C  
HETATM    2  O   UNL     1     -13.180  13.013  72.263  1.00  0.00    -0.471 OA 
ENDROOT
BRANCH   2   3
HETATM    3  C   UNL     1     -12.749  12.826  70.973  1.00  0.00    -0.243 A  
HETATM    4  C   UNL     1     -12.282  13.856  70.153  1.00  0.00    -0.425 A  
HETATM    5  C   UNL     1     -11.764  13.582  68.883  1.00  0.00    -0.379 A  
HETATM    6  C   UNL     1     -11.732  12.279  68.379  1.00  0.00    -0.390 A  
HETATM    7  C   UNL     1     -12.258  11.251  69.178  1.00  0.00    -0.251 A  
HETATM    8  C   UNL     1     -13.273  10.340  71.227  1.00  0.00    -0.356 C  
HETATM    9  O   UNL     1     -13.141  10.428  72.566  1.00  0.00    -0.155 OA 
HETATM   10  C   UNL     1     -12.753  11.513  70.470  1.00  0.00    -0.193 A  
HETATM   11  O   UNL     1     -13.719   9.349  70.670  1.00  0.00     0.040 OA 
BRANCH   6  12
HETATM   12  C   UNL     1     -11.118  11.950  67.032  1.00  0.00    -0.302 C  
BRANCH  12  13
HETATM   13  N   UNL     1     -10.032  10.954  67.045  1.00  0.00    -0.187 N  
HETATM   14  O   UNL     1      -7.789  10.440  67.296  1.00  0.00    -0.105 OA 
HETATM   15  C   UNL     1      -8.708  11.256  67.445  1.00  0.00    -0.139 C  
BRANCH  13  16
HETATM   16  C   UNL     1     -10.262   9.683  66.309  1.00  0.00    -0.216 C  
HETATM   17  C   UNL     1      -9.091   9.261  65.402  1.00  0.00    -0.277 C  
BRANCH  16  18
HETATM   18  C   UNL     1     -10.545   8.539  67.259  1.00  0.00    -0.245 A  
HETATM   19  C   UNL     1     -10.440   6.453  68.018  1.00  0.00    -0.220 A  
HETATM   20  C   UNL     1     -10.595   7.341  69.061  1.00  0.00    -0.201 A  
HETATM   21  N   UNL     1     -10.706   8.621  68.567  1.00  0.00    -0.416 NA 
HETATM   22  H   UNL     1     -10.878   9.469  69.107  1.00  0.00     0.000 HD 
HETATM   23  N   UNL     1     -10.443   7.221  66.880  1.00  0.00    -0.306 NA 
BRANCH  20  24
HETATM   24  C   UNL     1     -10.544   7.054  70.488  1.00  0.00    -0.245 A  
HETATM   25  C   UNL     1     -10.660   5.399  72.279  1.00  0.00    -0.280 A  
HETATM   26  C   UNL     1     -10.602   6.409  73.234  1.00  0.00    -0.291 A  
HETATM   27  C   UNL     1     -10.498   7.740  72.825  1.00  0.00    -0.390 A  
HETATM   28  C   UNL     1     -10.629   5.720  70.919  1.00  0.00    -0.329 A  
HETATM   29  C   UNL     1     -10.464   8.061  71.461  1.00  0.00    -0.265 A  
ENDBRANCH  20  24
ENDBRANCH  16  18
ENDBRANCH  13  16
BRANCH  15  30
HETATM   30  C   UNL     1      -8.443  12.654  68.119  1.00  0.00    -0.177 C  
HETATM   31  H2  UNL     1      -6.554  12.094  68.834  1.00  0.00     0.000 HD 
HETATM   32  N   UNL     1      -7.413  12.518  69.185  1.00  0.00    -0.326 NA 
HETATM   33  H1  UNL     1      -7.242  13.424  69.621  1.00  0.00     0.000 HD 
BRANCH  30  34
HETATM   34  C   UNL     1      -7.934  13.773  67.183  1.00  0.00    -0.065 C  
BRANCH  34  35
HETATM   35  C   UNL     1      -8.474  15.181  67.349  1.00  0.00    -0.202 A  
HETATM   36  C   UNL     1     -10.096  14.793  65.382  1.00  0.00    -0.406 C  
HETATM   37  C   UNL     1      -8.466  17.386  68.405  1.00  0.00    -0.263 A  
HETATM   38  C   UNL     1      -6.689  15.836  69.118  1.00  0.00    -0.154 C  
HETATM   39  C   UNL     1      -9.513  15.633  66.493  1.00  0.00    -0.300 A  
HETATM   40  C   UNL     1      -7.905  16.101  68.265  1.00  0.00    -0.153 A  
HETATM   41  C   UNL     1      -9.542  17.796  67.623  1.00  0.00    -0.266 A  
HETATM   42  C   UNL     1     -10.044  16.922  66.657  1.00  0.00    -0.306 A  
BRANCH  41  43
HETATM   43  C   UNL     1     -10.168  19.143  67.727  1.00  0.00    -0.403 C  
HETATM   44  H2  UNL     1     -10.684  19.224  65.714  1.00  0.00     0.000 HD 
HETATM   45  H1  UNL     1     -11.138  20.637  66.680  1.00  0.00     0.000 HD 
HETATM   46  N   UNL     1     -10.709  19.715  66.609  1.00  0.00    -0.470 N  
HETATM   47  O   UNL     1     -10.208  19.753  68.792  1.00  0.00    -0.449 OA 
ENDBRANCH  41  43
ENDBRANCH  34  35
ENDBRANCH  30  34
ENDBRANCH  15  30
ENDBRANCH  12  13
ENDBRANCH   6  12
ENDBRANCH   2   3
TORSDOF 10
ENDMDL
MODEL        5
REMARK 921   NORMALIZED FREE ENERGY PREDICTED BY IDOCK:   -6.62 KCAL/MOL
REMARK 922        TOTAL FREE ENERGY PREDICTED BY IDOCK:  -13.36 KCAL/MOL
REMARK 923 INTER-LIGAND FREE ENERGY PREDICTED BY IDOCK:  -10.79 KCAL/MOL
REMARK 924 INTRA-LIGAND FREE ENERGY PREDICTED BY IDOCK:   -2.57 KCAL/MOL
REMARK 927      BINDING AFFINITY PREDICTED BY RF-SCORE:    0.00 PKD
ROOT
HETATM    1  C   UNL     1     -10.376  16.565  66.092  1.00  0.00    -0.334 C  
HETATM    2  O   UNL     1     -11.242  15.517  65.653  1.00  0.00    -0.269 OA 
ENDROOT
BRANCH   2   3
HETATM    3  C   UNL     1     -11.239  14.358  66.388  1.00  0.00    -0.345 A  
HETATM    4  C   UNL     1     -10.846  14.289  67.727  1.00  0.00    -0.259 A  
HETATM    5  C   UNL     1     -10.961  13.095  68.446  1.00  0.00    -0.287 A  
HETATM    6  C   UNL     1     -11.437  11.927  67.843  1.00  0.00    -0.385 A  
HETATM    7  C   UNL     1     -11.775  11.981  66.482  1.00  0.00    -0.330 A  
HETATM    8  C   UNL     1     -12.089  13.122  64.322  1.00  0.00    -0.414 C  
HETATM    9  O   UNL     1     -12.612  14.263  63.829  1.00  0.00    -0.821 OA 
HETATM   10  C   UNL     1     -11.691  13.186  65.756  1.00  0.00    -0.415 A  
HETATM   11  O   UNL     1     -12.010  12.093  63.669  1.00  0.00    -0.459 OA 
BRANCH   6  12
HETATM   12  C   UNL     1     -11.630  10.639  68.619  1.00  0.00    -0.227 C  
BRANCH  12  13
HETATM   13  N   UNL     1     -10.819  10.496  69.841  1.00  0.00    -0.281 N  
HETATM   14  O   UNL     1      -8.859   9.829  70.877  1.00  0.00    -0.134 OA 
HETATM   15  C   UNL     1      -9.463  10.089  69.828  1.00  0.00    -0.207 C  
BRANCH  13  16
HETATM   16  C   UNL     1     -11.541  10.463  71.140  1.00  0.00    -0.228 C  
HETATM   17  C   UNL     1     -12.812  11.331  71.176  1.00  0.00    -0.452 C  
BRANCH  16  18
HETATM   18  C   UNL     1     -11.936   9.050  71.515  1.00  0.00    -0.344 A  
HETATM   19  C   UNL     1     -13.121   7.173  71.403  1.00  0.00    -0.352 A  
HETATM   20  C   UNL     1     -11.833   6.910  71.819  1.00  0.00    -0.316 A  
HETATM   21  N   UNL     1     -11.131   8.089  71.928  1.00  0.00    -0.260 NA 
HETATM   22  H   UNL     1     -10.174   8.198  72.263  1.00  0.00     0.000 HD 
HETATM   23  N   UNL     1     -13.183   8.536  71.245  1.00  0.00    -0.199 NA 
BRANCH  20  24
HETATM   24  C   UNL     1     -11.213   5.607  72.022  1.00  0.00    -0.271 A  
HETATM   25  C   UNL     1     -10.865   3.676  73.473  1.00  0.00    -0.322 A  
HETATM   26  C   UNL     1      -9.948   3.147  72.571  1.00  0.00    -0.228 A  
HETATM   27  C   UNL     1      -9.671   3.832  71.387  1.00  0.00    -0.242 A  
HETATM   28  C   UNL     1     -11.493   4.894  73.199  1.00  0.00    -0.362 A  
HETATM   29  C   UNL     1     -10.303   5.052  71.110  1.00  0.00    -0.254 A  
ENDBRANCH  20  24
ENDBRANCH  16  18
ENDBRANCH  13  16
BRANCH  15  30
HETATM   30  C   UNL     1      -8.731  10.010  68.435  1.00  0.00    -0.117 C  
HETATM   31  H2  UNL     1      -7.428  11.588  68.888  1.00  0.00     0.000 HD 
HETATM   32  N   UNL     1      -8.060  11.305  68.140  1.00  0.00    -0.127 NA 
HETATM   33  H1  UNL     1      -7.587  11.254  67.238  1.00  0.00     0.000 HD 
BRANCH  30  34
HETATM   34  C   UNL     1      -7.635   8.929  68.306  1.00  0.00    -0.092 C  
BRANCH  34  35
HETATM   35  C   UNL     1      -8.008   7.555  67.781  1.00  0.00    -0.118 A  
HETATM   36  C   UNL     1      -7.227   6.496  69.999  1.00  0.00    -0.080 C  
HETATM   37  C   UNL     1      -8.808   6.059  66.020  1.00  0.00    -0.159 A  
HETATM   38  C   UNL     1      -8.523   8.424  65.389  1.00  0.00    -0.193 C  
HETATM   39  C   UNL     1      -7.821   6.419  68.613  1.00  0.00    -0.102 A  
HETATM   40  C   UNL     1      -8.441   7.352  66.447  1.00  0.00    -0.129 A  
HETATM   41  C   UNL     1      -8.705   4.961  66.867  1.00  0.00    -0.107 A  
HETATM   42  C   UNL     1      -8.192   5.146  68.153  1.00  0.00    -0.097 A  
BRANCH  41  43
HETATM   43  C   UNL     1      -9.073   3.575  66.465  1.00  0.00    -0.162 C  
HETATM   44  H2  UNL     1      -9.007   3.988  64.428  1.00  0.00     0.000 HD 
HETATM   45  H1  UNL     1      -9.431   2.324  64.860  1.00  0.00     0.000 HD 
HETATM   46  N   UNL     1      -9.178   3.273  65.135  1.00  0.00    -0.146 N  
HETATM   47  O   UNL     1      -9.285   2.699  67.297  1.00  0.00    -0.168 OA 
ENDBRANCH  41  43
ENDBRANCH  34  35
ENDBRANCH  30  34
ENDBRANCH  15  30
ENDBRANCH  12  13
ENDBRANCH   6  12
ENDBRANCH   2   3
TORSDOF 10
ENDMDL
MODEL        6
REMARK 921   NORMALIZED FREE ENERGY PREDICTED BY IDOCK:   -6.60 KCAL/MOL
REMARK 922        TOTAL FREE ENERGY PREDICTED BY IDOCK:  -13.32 KCAL/MOL
REMARK 923 INTER-LIGAND FREE ENERGY PREDICTED BY IDOCK:  -10.71 KCAL/MOL
REMARK 924 INTRA-LIGAND FREE ENERGY PREDICTED BY IDOCK:   -2.61 KCAL/MOL
REMARK 927      BINDING AFFINITY PREDICTED BY RF-SCORE:    0.00 PKD
ROOT
HETATM    1  C   UNL     1     -12.731  11.941  64.273  1.00  0.00    -0.078 C  
HETATM    2  O   UNL     1     -12.811  13.063  65.152  1.00  0.00    -0.656 OA 
ENDROOT
BRANCH   2   3
HETATM    3  C   UNL     1     -11.629  13.547  65.653  1.00  0.00    -0.325 A  
HETATM    4  C   UNL     1     -10.876  12.897  66.634  1.00  0.00    -0.288 A  
HETATM    5  C   UNL     1      -9.630  13.394  67.029  1.00  0.00    -0.244 A  
HETATM    6  C   UNL     1      -9.114  14.574  66.484  1.00  0.00    -0.248 A  
HETATM    7  C   UNL     1      -9.898  15.261  65.544  1.00  0.00    -0.362 A  
HETATM    8  C   UNL     1     -11.873  15.563  64.105  1.00  0.00    -0.084 C  
HETATM    9  O   UNL     1     -12.652  14.851  63.267  1.00  0.00    -0.128 OA 
HETATM   10  C   UNL     1     -11.140  14.752  65.117  1.00  0.00    -0.389 A  
HETATM   11  O   UNL     1     -11.722  16.771  64.003  1.00  0.00    -1.120 OA 
BRANCH   6  12
HETATM   12  C   UNL     1      -7.739  15.097  66.850  1.00  0.00    -0.016 C  
BRANCH  12  13
HETATM   13  N   UNL     1      -7.391  15.048  68.281  1.00  0.00    -0.105 N  
HETATM   14  O   UNL     1      -6.776  13.832  70.152  1.00  0.00     0.017 OA 
HETATM   15  C   UNL     1      -6.910  13.881  68.922  1.00  0.00    -0.109 C  
BRANCH  13  16
HETATM   16  C   UNL     1      -7.869  16.165  69.139  1.00  0.00    -0.232 C  
HETATM   17  C   UNL     1      -7.726  17.557  68.497  1.00  0.00    -0.272 C  
BRANCH  16  18
HETATM   18  C   UNL     1      -9.322  15.980  69.524  1.00  0.00    -0.146 A  
HETATM   19  C   UNL     1     -11.524  16.038  69.236  1.00  0.00    -0.350 A  
HETATM   20  C   UNL     1     -11.177  15.037  70.117  1.00  0.00    -0.260 A  
HETATM   21  N   UNL     1      -9.815  15.049  70.319  1.00  0.00    -0.416 NA 
HETATM   22  H   UNL     1      -9.289  14.453  70.959  1.00  0.00     0.000 HD 
HETATM   23  N   UNL     1     -10.344  16.650  68.893  1.00  0.00    -0.279 NA 
BRANCH  20  24
HETATM   24  C   UNL     1     -12.044  14.019  70.694  1.00  0.00    -0.424 A  
HETATM   25  C   UNL     1     -13.737  13.429  72.351  1.00  0.00    -0.698 A  
HETATM   26  C   UNL     1     -13.660  12.092  71.974  1.00  0.00    -0.263 A  
HETATM   27  C   UNL     1     -12.793  11.714  70.948  1.00  0.00    -0.264 A  
HETATM   28  C   UNL     1     -12.937  14.383  71.715  1.00  0.00    -0.419 A  
HETATM   29  C   UNL     1     -11.993  12.672  70.307  1.00  0.00    -0.363 A  
ENDBRANCH  20  24
ENDBRANCH  16  18
ENDBRANCH  13  16
BRANCH  15  30
HETATM   30  C   UNL     1      -6.515  12.654  68.018  1.00  0.00    -0.093 C  
HETATM   31  H2  UNL     1      -4.465  13.080  68.117  1.00  0.00     0.000 HD 
HETATM   32  N   UNL     1      -5.174  12.880  67.412  1.00  0.00    -0.315 NA 
HETATM   33  H1  UNL     1      -4.919  12.085  66.826  1.00  0.00     0.000 HD 
BRANCH  30  34
HETATM   34  C   UNL     1      -6.429  11.286  68.731  1.00  0.00    -0.058 C  
BRANCH  34  35
HETATM   35  C   UNL     1      -7.505  10.248  68.474  1.00  0.00    -0.084 A  
HETATM   36  C   UNL     1      -7.379   9.507  70.941  1.00  0.00    -0.053 C  
HETATM   37  C   UNL     1      -9.035   9.042  66.996  1.00  0.00    -0.144 A  
HETATM   38  C   UNL     1      -7.518  10.651  65.909  1.00  0.00    -0.131 C  
HETATM   39  C   UNL     1      -7.951   9.429  69.546  1.00  0.00    -0.098 A  
HETATM   40  C   UNL     1      -8.011   9.994  67.174  1.00  0.00    -0.109 A  
HETATM   41  C   UNL     1      -9.530   8.302  68.065  1.00  0.00    -0.153 A  
HETATM   42  C   UNL     1      -8.969   8.488  69.330  1.00  0.00    -0.149 A  
BRANCH  41  43
HETATM   43  C   UNL     1     -10.606   7.281  67.930  1.00  0.00    -0.202 C  
HETATM   44  H2  UNL     1     -10.835   7.034  69.982  1.00  0.00     0.000 HD 
HETATM   45  H1  UNL     1     -11.894   6.042  68.967  1.00  0.00     0.000 HD 
HETATM   46  N   UNL     1     -11.157   6.741  69.059  1.00  0.00    -0.225 N  
HETATM   47  O   UNL     1     -11.008   6.913  66.831  1.00  0.00    -0.377 OA 
ENDBRANCH  41  43
ENDBRANCH  34  35
ENDBRANCH  30  34
ENDBRANCH  15  30
ENDBRANCH  12  13
ENDBRANCH   6  12
ENDBRANCH   2   3
TORSDOF 10
ENDMDL
MODEL        7
REMARK 921   NORMALIZED FREE ENERGY PREDICTED BY IDOCK:   -6.58 KCAL/MOL
REMARK 922        TOTAL FREE ENERGY PREDICTED BY IDOCK:  -13.30 KCAL/MOL
REMARK 923 INTER-LIGAND FREE ENERGY PREDICTED BY IDOCK:  -11.23 KCAL/MOL
REMARK 924 INTRA-LIGAND FREE ENERGY PREDICTED BY IDOCK:   -2.07 KCAL/MOL
REMARK 927      BINDING AFFINITY PREDICTED BY RF-SCORE:    0.00 PKD
ROOT
HETATM    1  C   UNL     1     -10.290  16.459  66.371  1.00  0.00    -0.313 C  
HETATM    2  O   UNL     1     -11.101  15.323  66.065  1.00  0.00    -0.332 OA 
ENDROOT
BRANCH   2   3
HETATM    3  C   UNL     1     -10.576  14.088  66.351  1.00  0.00    -0.280 A  
HETATM    4  C   UNL     1      -9.348  13.895  66.992  1.00  0.00    -0.255 A  
HETATM    5  C   UNL     1      -8.917  12.612  67.343  1.00  0.00    -0.190 A  
HETATM    6  C   UNL     1      -9.679  11.481  67.034  1.00  0.00    -0.202 A  
HETATM    7  C   UNL     1     -10.882  11.669  66.336  1.00  0.00    -0.333 A  
HETATM    8  C   UNL     1     -12.637  13.033  65.276  1.00  0.00    -0.457 C  
HETATM    9  O   UNL     1     -13.357  14.147  65.516  1.00  0.00    -0.656 OA 
HETATM   10  C   UNL     1     -11.340  12.960  66.005  1.00  0.00    -0.354 A  
HETATM   11  O   UNL     1     -13.043  12.120  64.573  1.00  0.00    -0.720 OA 
BRANCH   6  12
HETATM   12  C   UNL     1      -9.262  10.087  67.461  1.00  0.00    -0.137 C  
BRANCH  12  13
HETATM   13  N   UNL     1      -9.441   9.771  68.889  1.00  0.00    -0.155 N  
HETATM   14  O   UNL     1      -8.542   9.471  71.001  1.00  0.00    -0.273 OA 
HETATM   15  C   UNL     1      -8.404   9.892  69.845  1.00  0.00    -0.183 C  
BRANCH  13  16
HETATM   16  C   UNL     1     -10.649   8.993  69.271  1.00  0.00    -0.213 C  
HETATM   17  C   UNL     1     -10.353   7.751  70.131  1.00  0.00    -0.218 C  
BRANCH  16  18
HETATM   18  C   UNL     1     -11.641   9.853  70.027  1.00  0.00    -0.175 A  
HETATM   19  C   UNL     1     -12.863  10.491  71.769  1.00  0.00    -0.454 A  
HETATM   20  C   UNL     1     -12.554  11.572  70.971  1.00  0.00    -0.357 A  
HETATM   21  N   UNL     1     -11.839  11.149  69.873  1.00  0.00    -0.330 NA 
HETATM   22  H   UNL     1     -11.524  11.725  69.093  1.00  0.00     0.000 HD 
HETATM   23  N   UNL     1     -12.306   9.403  71.143  1.00  0.00    -0.312 NA 
BRANCH  20  24
HETATM   24  C   UNL     1     -12.814  12.980  71.241  1.00  0.00    -0.370 A  
HETATM   25  C   UNL     1     -13.849  14.663  72.674  1.00  0.00    -0.490 A  
HETATM   26  C   UNL     1     -13.491  15.665  71.777  1.00  0.00    -0.525 A  
HETATM   27  C   UNL     1     -12.782  15.336  70.622  1.00  0.00    -0.470 A  
HETATM   28  C   UNL     1     -13.511  13.334  72.408  1.00  0.00    -0.670 A  
HETATM   29  C   UNL     1     -12.440  14.002  70.356  1.00  0.00    -0.418 A  
ENDBRANCH  20  24
ENDBRANCH  16  18
ENDBRANCH  13  16
BRANCH  15  30
HETATM   30  C   UNL     1      -7.075  10.613  69.403  1.00  0.00    -0.120 C  
HETATM   31  H2  UNL     1      -6.354  10.762  71.365  1.00  0.00     0.000 HD 
HETATM   32  N   UNL     1      -6.496  11.361  70.552  1.00  0.00    -0.515 NA 
HETATM   33  H1  UNL     1      -5.636  11.827  70.265  1.00  0.00     0.000 HD 
BRANCH  30  34
HETATM   34  C   UNL     1      -5.945   9.694  68.886  1.00  0.00    -0.042 C  
BRANCH  34  35
HETATM   35  C   UNL     1      -6.027   9.141  67.476  1.00  0.00    -0.050 A  
HETATM   36  C   UNL     1      -5.368  11.449  66.532  1.00  0.00    -0.132 C  
HETATM   37  C   UNL     1      -6.513   7.352  65.882  1.00  0.00    -0.045 A  
HETATM   38  C   UNL     1      -7.010   6.864  68.245  1.00  0.00    -0.080 C  
HETATM   39  C   UNL     1      -5.729   9.991  66.377  1.00  0.00    -0.058 A  
HETATM   40  C   UNL     1      -6.490   7.828  67.208  1.00  0.00    -0.056 A  
HETATM   41  C   UNL     1      -6.138   8.162  64.815  1.00  0.00    -0.049 A  
HETATM   42  C   UNL     1      -5.767   9.484  65.070  1.00  0.00    -0.064 A  
BRANCH  41  43
HETATM   43  C   UNL     1      -6.150   7.710  63.395  1.00  0.00    -0.054 C  
HETATM   44  H2  UNL     1      -5.721   9.597  62.634  1.00  0.00     0.000 HD 
HETATM   45  H1  UNL     1      -5.916   8.311  61.433  1.00  0.00     0.000 HD 
HETATM   46  N   UNL     1      -5.908   8.621  62.404  1.00  0.00    -0.087 N  
HETATM   47  O   UNL     1      -6.372   6.541  63.095  1.00  0.00    -0.036 OA 
ENDBRANCH  41  43
ENDBRANCH  34  35
ENDBRANCH  30  34
ENDBRANCH  15  30
ENDBRANCH  12  13
ENDBRANCH   6  12
ENDBRANCH   2   3
TORSDOF 10
ENDMDL
MODEL        8
REMARK 921   NORMALIZED FREE ENERGY PREDICTED BY IDOCK:   -6.54 KCAL/MOL
REMARK 922        TOTAL FREE ENERGY PREDICTED BY IDOCK:  -13.23 KCAL/MOL
REMARK 923 INTER-LIGAND FREE ENERGY PREDICTED BY IDOCK:  -11.29 KCAL/MOL
REMARK 924 INTRA-LIGAND FREE ENERGY PREDICTED BY IDOCK:   -1.94 KCAL/MOL
REMARK 927      BINDING AFFINITY PREDICTED BY RF-SCORE:    0.00 PKD
ROOT
HETATM    1  C   UNL     1     -10.874  16.282  67.441  1.00  0.00    -0.242 C  
HETATM    2  O   UNL     1     -11.039  15.296  66.421  1.00  0.00    -0.329 OA 
ENDROOT
BRANCH   2   3
HETATM    3  C   UNL     1     -10.665  14.012  66.730  1.00  0.00    -0.285 A  
HETATM    4  C   UNL     1      -9.574  13.694  67.543  1.00  0.00    -0.220 A  
HETATM    5  C   UNL     1      -9.308  12.368  67.899  1.00  0.00    -0.195 A  
HETATM    6  C   UNL     1     -10.099  11.317  67.426  1.00  0.00    -0.214 A  
HETATM    7  C   UNL     1     -11.158  11.630  66.559  1.00  0.00    -0.357 A  
HETATM    8  C   UNL     1     -12.609  13.172  65.302  1.00  0.00    -0.472 C  
HETATM    9  O   UNL     1     -13.266  14.336  65.476  1.00  0.00    -0.641 OA 
HETATM   10  C   UNL     1     -11.453  12.965  66.219  1.00  0.00    -0.395 A  
HETATM   11  O   UNL     1     -12.970  12.320  64.505  1.00  0.00    -0.738 OA 
BRANCH   6  12
HETATM   12  C   UNL     1      -9.868   9.880  67.850  1.00  0.00    -0.143 C  
BRANCH  12  13
HETATM   13  N   UNL     1      -9.966   9.611  69.296  1.00  0.00    -0.180 N  
HETATM   14  O   UNL     1      -8.941   9.184  71.327  1.00  0.00    -0.237 OA 
HETATM   15  C   UNL     1      -8.840   9.565  70.153  1.00  0.00    -0.235 C  
BRANCH  13  16
HETATM   16  C   UNL     1     -11.247   9.052  69.801  1.00  0.00    -0.027 C  
HETATM   17  C   UNL     1     -11.077   7.925  70.836  1.00  0.00    -0.268 C  
BRANCH  16  18
HETATM   18  C   UNL     1     -12.109  10.128  70.428  1.00  0.00    -0.246 A  
HETATM   19  C   UNL     1     -13.404  11.045  71.983  1.00  0.00    -0.288 A  
HETATM   20  C   UNL     1     -12.718  12.018  71.287  1.00  0.00    -0.279 A  
HETATM   21  N   UNL     1     -11.960  11.433  70.298  1.00  0.00    -0.352 NA 
HETATM   22  H   UNL     1     -11.392  11.915  69.601  1.00  0.00     0.000 HD 
HETATM   23  N   UNL     1     -13.035   9.854  71.408  1.00  0.00    -0.379 NA 
BRANCH  20  24
HETATM   24  C   UNL     1     -12.668  13.446  71.571  1.00  0.00    -0.386 A  
HETATM   25  C   UNL     1     -11.723  15.635  71.046  1.00  0.00    -0.444 A  
HETATM   26  C   UNL     1     -12.390  16.197  72.130  1.00  0.00    -0.503 A  
HETATM   27  C   UNL     1     -13.209  15.395  72.927  1.00  0.00    -0.622 A  
HETATM   28  C   UNL     1     -11.863  14.272  70.769  1.00  0.00    -0.336 A  
HETATM   29  C   UNL     1     -13.352  14.029  72.647  1.00  0.00    -0.643 A  
ENDBRANCH  20  24
ENDBRANCH  16  18
ENDBRANCH  13  16
BRANCH  15  30
HETATM   30  C   UNL     1      -7.456  10.048  69.578  1.00  0.00    -0.123 C  
HETATM   31  H2  UNL     1      -6.647  10.403  71.479  1.00  0.00     0.000 HD 
HETATM   32  N   UNL     1      -6.751  10.886  70.587  1.00  0.00    -0.462 NA 
HETATM   33  H1  UNL     1      -5.855  11.198  70.213  1.00  0.00     0.000 HD 
BRANCH  30  34
HETATM   34  C   UNL     1      -6.460   8.935  69.186  1.00  0.00    -0.043 C  
BRANCH  34  35
HETATM   35  C   UNL     1      -6.992   7.620  68.646  1.00  0.00    -0.075 A  
HETATM   36  C   UNL     1      -6.711   6.550  70.976  1.00  0.00    -0.055 C  
HETATM   37  C   UNL     1      -7.797   6.200  66.826  1.00  0.00    -0.104 A  
HETATM   38  C   UNL     1      -7.024   8.450  66.186  1.00  0.00    -0.072 C  
HETATM   39  C   UNL     1      -7.118   6.509  69.522  1.00  0.00    -0.073 A  
HETATM   40  C   UNL     1      -7.272   7.430  67.269  1.00  0.00    -0.093 A  
HETATM   41  C   UNL     1      -8.001   5.141  67.705  1.00  0.00    -0.095 A  
HETATM   42  C   UNL     1      -7.641   5.298  69.045  1.00  0.00    -0.078 A  
BRANCH  41  43
HETATM   43  C   UNL     1      -8.548   3.819  67.288  1.00  0.00    -0.103 C  
HETATM   44  H2  UNL     1      -9.858   4.634  65.893  1.00  0.00     0.000 HD 
HETATM   45  H1  UNL     1      -9.889   2.869  66.037  1.00  0.00     0.000 HD 
HETATM   46  N   UNL     1      -9.515   3.774  66.322  1.00  0.00    -0.183 N  
HETATM   47  O   UNL     1      -8.151   2.772  67.790  1.00  0.00    -0.069 OA 
ENDBRANCH  41  43
ENDBRANCH  34  35
ENDBRANCH  30  34
ENDBRANCH  15  30
ENDBRANCH  12  13
ENDBRANCH   6  12
ENDBRANCH   2   3
TORSDOF 10
ENDMDL
MODEL        9
REMARK 921   NORMALIZED FREE ENERGY PREDICTED BY IDOCK:   -6.54 KCAL/MOL
REMARK 922        TOTAL FREE ENERGY PREDICTED BY IDOCK:  -13.23 KCAL/MOL
REMARK 923 INTER-LIGAND FREE ENERGY PREDICTED BY IDOCK:  -11.13 KCAL/MOL
REMARK 924 INTRA-LIGAND FREE ENERGY PREDICTED BY IDOCK:   -2.10 KCAL/MOL
REMARK 927      BINDING AFFINITY PREDICTED BY RF-SCORE:    0.00 PKD
ROOT
HETATM    1  C   UNL     1     -12.809  14.516  73.435  1.00  0.00    -0.304 C  
HETATM    2  O   UNL     1     -13.563  14.093  72.298  1.00  0.00    -0.409 OA 
ENDROOT
BRANCH   2   3
HETATM    3  C   UNL     1     -12.992  13.140  71.492  1.00  0.00    -0.321 A  
HETATM    4  C   UNL     1     -13.094  11.765  71.722  1.00  0.00    -0.480 A  
HETATM    5  C   UNL     1     -12.572  10.845  70.807  1.00  0.00    -0.470 A  
HETATM    6  C   UNL     1     -11.903  11.268  69.655  1.00  0.00    -0.430 A  
HETATM    7  C   UNL     1     -11.746  12.648  69.454  1.00  0.00    -0.387 A  
HETATM    8  C   UNL     1     -12.074  15.020  70.028  1.00  0.00    -0.337 C  
HETATM    9  O   UNL     1     -13.050  15.851  70.447  1.00  0.00    -0.349 OA 
HETATM   10  C   UNL     1     -12.294  13.583  70.354  1.00  0.00    -0.397 A  
HETATM   11  O   UNL     1     -11.117  15.401  69.372  1.00  0.00    -0.247 OA 
BRANCH   6  12
HETATM   12  C   UNL     1     -11.385  10.290  68.618  1.00  0.00    -0.166 C  
BRANCH  12  13
HETATM   13  N   UNL     1     -10.483   9.237  69.119  1.00  0.00    -0.215 N  
HETATM   14  O   UNL     1      -8.340   8.468  69.534  1.00  0.00    -0.114 OA 
HETATM   15  C   UNL     1      -9.086   9.417  69.260  1.00  0.00    -0.152 C  
BRANCH  13  16
HETATM   16  C   UNL     1     -11.013   7.849  69.165  1.00  0.00     0.065 C  
HETATM   17  C   UNL     1     -10.363   6.893  68.148  1.00  0.00    -0.223 C  
BRANCH  16  18
HETATM   18  C   UNL     1     -10.846   7.242  70.543  1.00  0.00    -0.243 A  
HETATM   19  C   UNL     1     -11.505   6.503  72.532  1.00  0.00    -0.239 A  
HETATM   20  C   UNL     1     -10.383   5.823  72.109  1.00  0.00    -0.205 A  
HETATM   21  N   UNL     1      -9.963   6.327  70.899  1.00  0.00    -0.184 NA 
HETATM   22  H   UNL     1      -9.131   6.049  70.379  1.00  0.00     0.000 HD 
HETATM   23  N   UNL     1     -11.770   7.421  71.546  1.00  0.00    -0.272 NA 
BRANCH  20  24
HETATM   24  C   UNL     1      -9.753   4.668  72.737  1.00  0.00    -0.176 A  
HETATM   25  C   UNL     1      -9.734   2.254  73.097  1.00  0.00    -0.144 A  
HETATM   26  C   UNL     1      -8.697   2.386  74.015  1.00  0.00    -0.070 A  
HETATM   27  C   UNL     1      -8.173   3.651  74.286  1.00  0.00    -0.082 A  
HETATM   28  C   UNL     1     -10.255   3.385  72.463  1.00  0.00    -0.217 A  
HETATM   29  C   UNL     1      -8.693   4.786  73.647  1.00  0.00    -0.106 A  
ENDBRANCH  20  24
ENDBRANCH  16  18
ENDBRANCH  13  16
BRANCH  15  30
HETATM   30  C   UNL     1      -8.510  10.873  69.093  1.00  0.00    -0.055 C  
HETATM   31  H2  UNL     1      -6.606  10.336  69.785  1.00  0.00     0.000 HD 
HETATM   32  N   UNL     1      -7.313  11.049  69.960  1.00  0.00    -0.420 NA 
HETATM   33  H1  UNL     1      -6.941  11.992  69.852  1.00  0.00     0.000 HD 
BRANCH  30  34
HETATM   34  C   UNL     1      -8.058  11.264  67.668  1.00  0.00    -0.119 C  
BRANCH  34  35
HETATM   35  C   UNL     1      -9.031  11.984  66.754  1.00  0.00    -0.198 A  
HETATM   36  C   UNL     1      -9.409   9.800  65.434  1.00  0.00    -0.311 C  
HETATM   37  C   UNL     1     -10.187  13.997  65.985  1.00  0.00    -0.313 A  
HETATM   38  C   UNL     1      -8.514  14.319  67.765  1.00  0.00    -0.177 C  
HETATM   39  C   UNL     1      -9.672  11.261  65.713  1.00  0.00    -0.263 A  
HETATM   40  C   UNL     1      -9.246  13.383  66.837  1.00  0.00    -0.251 A  
HETATM   41  C   UNL     1     -10.878  13.268  65.023  1.00  0.00    -0.335 A  
HETATM   42  C   UNL     1     -10.600  11.907  64.881  1.00  0.00    -0.333 A  
BRANCH  41  43
HETATM   43  C   UNL     1     -11.877  13.869  64.096  1.00  0.00    -0.385 C  
HETATM   44  H2  UNL     1     -11.738  15.766  64.937  1.00  0.00     0.000 HD 
HETATM   45  H1  UNL     1     -12.870  15.607  63.584  1.00  0.00     0.000 HD 
HETATM   46  N   UNL     1     -12.186  15.195  64.219  1.00  0.00    -0.375 N  
HETATM   47  O   UNL     1     -12.429  13.202  63.226  1.00  0.00    -0.720 OA 
ENDBRANCH  41  43
ENDBRANCH  34  35
ENDBRANCH  30  34
ENDBRANCH  15  30
ENDBRANCH  12  13
ENDBRANCH   6  12
ENDBRANCH   2   3
TORSDOF 10
ENDMDL
MODEL       10
REMARK 921   NORMALIZED FREE ENERGY PREDICTED BY IDOCK:   -6.53 KCAL/MOL
REMARK 922        TOTAL FREE ENERGY PREDICTED BY IDOCK:  -13.22 KCAL/MOL
REMARK 923 INTER-LIGAND FREE ENERGY PREDICTED BY IDOCK:  -10.08 KCAL/MOL
REMARK 924 INTRA-LIGAND FREE ENERGY PREDICTED BY IDOCK:   -3.14 KCAL/MOL
REMARK 927      BINDING AFFINITY PREDICTED BY RF-SCORE:    0.00 PKD
ROOT
HETATM    1  C   UNL     1     -10.840  16.801  68.191  1.00  0.00    -0.353 C  
HETATM    2  O   UNL     1     -11.904  16.153  68.889  1.00  0.00    -0.338 OA 
ENDROOT
BRANCH   2   3
HETATM    3  C   UNL     1     -11.893  14.780  68.906  1.00  0.00    -0.296 A  
HETATM    4  C   UNL     1     -11.545  13.992  67.806  1.00  0.00    -0.378 A  
HETATM    5  C   UNL     1     -11.457  12.601  67.920  1.00  0.00    -0.360 A  
HETATM    6  C   UNL     1     -11.748  11.952  69.124  1.00  0.00    -0.380 A  
HETATM    7  C   UNL     1     -12.157  12.739  70.212  1.00  0.00    -0.373 A  
HETATM    8  C   UNL     1     -12.654  14.869  71.342  1.00  0.00    -0.332 C  
HETATM    9  O   UNL     1     -12.132  16.104  71.482  1.00  0.00    -0.450 OA 
HETATM   10  C   UNL     1     -12.220  14.142  70.116  1.00  0.00    -0.415 A  
HETATM   11  O   UNL     1     -13.372  14.355  72.185  1.00  0.00    -0.337 OA 
BRANCH   6  12
HETATM   12  C   UNL     1     -11.599  10.453  69.288  1.00  0.00    -0.176 C  
BRANCH  12  13
HETATM   13  N   UNL     1     -10.670  10.010  70.344  1.00  0.00    -0.303 N  
HETATM   14  O   UNL     1      -8.525   9.473  71.028  1.00  0.00    -0.284 OA 
HETATM   15  C   UNL     1      -9.264   9.995  70.183  1.00  0.00    -0.026 C  
BRANCH  13  16
HETATM   16  C   UNL     1     -11.246   9.253  71.486  1.00  0.00    -0.386 C  
HETATM   17  C   UNL     1     -12.733   9.553  71.755  1.00  0.00    -0.492 C  
BRANCH  16  18
HETATM   18  C   UNL     1     -11.106   7.759  71.284  1.00  0.00    -0.246 A  
HETATM   19  C   UNL     1     -11.180   5.844  70.158  1.00  0.00    -0.268 A  
HETATM   20  C   UNL     1     -10.226   5.787  71.152  1.00  0.00    -0.218 A  
HETATM   21  N   UNL     1     -10.229   6.963  71.867  1.00  0.00    -0.189 NA 
HETATM   22  H   UNL     1      -9.664   7.178  72.688  1.00  0.00     0.000 HD 
HETATM   23  N   UNL     1     -11.753   7.087  70.273  1.00  0.00    -0.272 NA 
BRANCH  20  24
HETATM   24  C   UNL     1      -9.256   4.727  71.393  1.00  0.00    -0.188 A  
HETATM   25  C   UNL     1      -8.769   2.336  71.471  1.00  0.00    -0.105 A  
HETATM   26  C   UNL     1      -7.497   2.598  71.971  1.00  0.00    -0.044 A  
HETATM   27  C   UNL     1      -7.092   3.919  72.168  1.00  0.00    -0.050 A  
HETATM   28  C   UNL     1      -9.638   3.392  71.183  1.00  0.00    -0.234 A  
HETATM   29  C   UNL     1      -7.964   4.979  71.876  1.00  0.00    -0.111 A  
ENDBRANCH  20  24
ENDBRANCH  16  18
ENDBRANCH  13  16
BRANCH  15  30
HETATM   30  C   UNL     1      -8.661  10.696  68.908  1.00  0.00    -0.161 C  
HETATM   31  H2  UNL     1      -7.061  11.535  69.970  1.00  0.00     0.000 HD 
HETATM   32  N   UNL     1      -7.786  11.829  69.317  1.00  0.00    -0.343 NA 
HETATM   33  H1  UNL     1      -7.397  12.283  68.491  1.00  0.00     0.000 HD 
BRANCH  30  34
HETATM   34  C   UNL     1      -7.795   9.805  67.990  1.00  0.00    -0.086 C  
BRANCH  34  35
HETATM   35  C   UNL     1      -8.249   8.390  67.689  1.00  0.00    -0.126 A  
HETATM   36  C   UNL     1     -10.146   9.314  66.206  1.00  0.00    -0.322 C  
HETATM   37  C   UNL     1      -8.105   5.967  67.981  1.00  0.00    -0.105 A  
HETATM   38  C   UNL     1      -6.609   7.321  69.394  1.00  0.00    -0.041 C  
HETATM   39  C   UNL     1      -9.357   8.184  66.823  1.00  0.00    -0.233 A  
HETATM   40  C   UNL     1      -7.669   7.262  68.323  1.00  0.00    -0.120 A  
HETATM   41  C   UNL     1      -9.134   5.766  67.066  1.00  0.00    -0.114 A  
HETATM   42  C   UNL     1      -9.766   6.880  66.509  1.00  0.00    -0.185 A  
BRANCH  41  43
HETATM   43  C   UNL     1      -9.635   4.420  66.674  1.00  0.00    -0.198 C  
HETATM   44  H2  UNL     1      -8.738   3.453  68.282  1.00  0.00     0.000 HD 
HETATM   45  H1  UNL     1      -9.658   2.416  67.179  1.00  0.00     0.000 HD 
HETATM   46  N   UNL     1      -9.314   3.338  67.447  1.00  0.00    -0.203 N  
HETATM   47  O   UNL     1     -10.329   4.258  65.675  1.00  0.00    -0.235 OA 
ENDBRANCH  41  43
ENDBRANCH  34  35
ENDBRANCH  30  34
ENDBRANCH  15  30
ENDBRANCH  12  13
ENDBRANCH   6  12
ENDBRANCH   2   3
TORSDOF 10
ENDMDL
MODEL       11
REMARK 921   NORMALIZED FREE ENERGY PREDICTED BY IDOCK:   -6.49 KCAL/MOL
REMARK 922        TOTAL FREE ENERGY PREDICTED BY IDOCK:  -13.15 KCAL/MOL
REMARK 923 INTER-LIGAND FREE ENERGY PREDICTED BY IDOCK:   -9.81 KCAL/MOL
REMARK 924 INTRA-LIGAND FREE ENERGY PREDICTED BY IDOCK:   -3.34 KCAL/MOL
REMARK 927      BINDING AFFINITY PREDICTED BY RF-SCORE:    0.00 PKD
ROOT
HETATM    1  C   UNL     1     -10.120   4.764  69.798  1.00  0.00    -0.219 C  
HETATM    2  O   UNL     1     -10.950   5.927  69.817  1.00  0.00    -0.349 OA 
ENDROOT
BRANCH   2   3
HETATM    3  C   UNL     1     -10.687   6.894  68.880  1.00  0.00    -0.222 A  
HETATM    4  C   UNL     1     -10.371   6.620  67.547  1.00  0.00    -0.262 A  
HETATM    5  C   UNL     1     -10.212   7.655  66.621  1.00  0.00    -0.272 A  
HETATM    6  C   UNL     1     -10.327   8.995  67.003  1.00  0.00    -0.339 A  
HETATM    7  C   UNL     1     -10.583   9.273  68.355  1.00  0.00    -0.234 A  
HETATM    8  C   UNL     1     -11.054   8.656  70.692  1.00  0.00    -0.249 C  
HETATM    9  O   UNL     1     -11.828   7.803  71.393  1.00  0.00    -0.283 OA 
HETATM   10  C   UNL     1     -10.775   8.237  69.289  1.00  0.00    -0.140 A  
HETATM   11  O   UNL     1     -10.669   9.724  71.142  1.00  0.00    -0.324 OA 
BRANCH   6  12
HETATM   12  C   UNL     1     -10.221  10.130  66.004  1.00  0.00    -0.218 C  
BRANCH  12  13
HETATM   13  N   UNL     1      -9.675  11.397  66.524  1.00  0.00    -0.196 N  
HETATM   14  O   UNL     1      -7.903  12.607  67.391  1.00  0.00    -0.161 OA 
HETATM   15  C   UNL     1      -8.302  11.589  66.812  1.00  0.00    -0.165 C  
BRANCH  13  16
HETATM   16  C   UNL     1     -10.643  12.386  67.068  1.00  0.00    -0.225 C  
HETATM   17  C   UNL     1     -10.619  12.512  68.602  1.00  0.00    -0.240 C  
BRANCH  16  18
HETATM   18  C   UNL     1     -10.407  13.765  66.487  1.00  0.00    -0.286 A  
HETATM   19  C   UNL     1     -10.668  15.435  65.045  1.00  0.00    -0.438 A  
HETATM   20  C   UNL     1     -10.343  15.919  66.294  1.00  0.00    -0.314 A  
HETATM   21  N   UNL     1     -10.138  14.868  67.160  1.00  0.00    -0.238 NA 
HETATM   22  H   UNL     1      -9.838  14.930  68.133  1.00  0.00     0.000 HD 
HETATM   23  N   UNL     1     -10.674  14.068  65.173  1.00  0.00    -0.357 NA 
BRANCH  20  24
HETATM   24  C   UNL     1     -10.313  17.309  66.730  1.00  0.00    -0.308 A  
HETATM   25  C   UNL     1     -10.139  18.905  68.568  1.00  0.00    -0.460 A  
HETATM   26  C   UNL     1     -10.383  19.959  67.693  1.00  0.00    -0.557 A  
HETATM   27  C   UNL     1     -10.576  19.698  66.335  1.00  0.00    -0.592 A  
HETATM   28  C   UNL     1     -10.103  17.593  68.089  1.00  0.00    -0.347 A  
HETATM   29  C   UNL     1     -10.535  18.381  65.854  1.00  0.00    -0.346 A  
ENDBRANCH  20  24
ENDBRANCH  16  18
ENDBRANCH  13  16
BRANCH  15  30
HETATM   30  C   UNL     1      -7.289  10.480  66.338  1.00  0.00    -0.129 C  
HETATM   31  H2  UNL     1      -6.064  11.851  65.331  1.00  0.00     0.000 HD 
HETATM   32  N   UNL     1      -6.527  10.961  65.153  1.00  0.00    -0.366 NA 
HETATM   33  H1  UNL     1      -5.871  10.242  64.847  1.00  0.00     0.000 HD 
BRANCH  30  34
HETATM   34  C   UNL     1      -6.227  10.047  67.373  1.00  0.00    -0.059 C  
BRANCH  34  35
HETATM   35  C   UNL     1      -6.628   9.113  68.500  1.00  0.00    -0.055 A  
HETATM   36  C   UNL     1      -6.418  11.056  70.184  1.00  0.00    -0.128 C  
HETATM   37  C   UNL     1      -7.212   6.905  69.372  1.00  0.00    -0.089 A  
HETATM   38  C   UNL     1      -6.564   6.998  66.997  1.00  0.00    -0.055 C  
HETATM   39  C   UNL     1      -6.729   9.623  69.822  1.00  0.00    -0.062 A  
HETATM   40  C   UNL     1      -6.806   7.722  68.297  1.00  0.00    -0.067 A  
HETATM   41  C   UNL     1      -7.395   7.426  70.649  1.00  0.00    -0.070 A  
HETATM   42  C   UNL     1      -7.132   8.780  70.869  1.00  0.00    -0.076 A  
BRANCH  41  43
HETATM   43  C   UNL     1      -7.817   6.606  71.819  1.00  0.00    -0.102 C  
HETATM   44  H2  UNL     1      -6.225   5.279  71.653  1.00  0.00     0.000 HD 
HETATM   45  H1  UNL     1      -7.355   4.961  72.980  1.00  0.00     0.000 HD 
HETATM   46  N   UNL     1      -7.065   5.522  72.179  1.00  0.00    -0.084 N  
HETATM   47  O   UNL     1      -8.824   6.880  72.465  1.00  0.00    -0.126 OA 
ENDBRANCH  41  43
ENDBRANCH  34  35
ENDBRANCH  30  34
ENDBRANCH  15  30
ENDBRANCH  12  13
ENDBRANCH   6  12
ENDBRANCH   2   3
TORSDOF 10
ENDMDL
MODEL       12
REMARK 921   NORMALIZED FREE ENERGY PREDICTED BY IDOCK:   -6.48 KCAL/MOL
REMARK 922        TOTAL FREE ENERGY PREDICTED BY IDOCK:  -13.14 KCAL/MOL
REMARK 923 INTER-LIGAND FREE ENERGY PREDICTED BY IDOCK:  -12.02 KCAL/MOL
REMARK 924 INTRA-LIGAND FREE ENERGY PREDICTED BY IDOCK:   -1.12 KCAL/MOL
REMARK 927      BINDING AFFINITY PREDICTED BY RF-SCORE:    0.00 PKD
ROOT
HETATM    1  C   UNL     1     -10.405   6.350  73.731  1.00  0.00    -0.311 C  
HETATM    2  O   UNL     1     -11.089   7.479  73.186  1.00  0.00    -0.383 OA 
ENDROOT
BRANCH   2   3
HETATM    3  C   UNL     1     -10.395   8.255  72.290  1.00  0.00    -0.316 A  
HETATM    4  C   UNL     1      -9.005   8.223  72.149  1.00  0.00    -0.274 A  
HETATM    5  C   UNL     1      -8.369   8.965  71.149  1.00  0.00    -0.232 A  
HETATM    6  C   UNL     1      -9.096   9.790  70.285  1.00  0.00    -0.208 A  
HETATM    7  C   UNL     1     -10.485   9.869  70.466  1.00  0.00    -0.330 A  
HETATM    8  C   UNL     1     -12.617   9.262  71.538  1.00  0.00    -0.352 C  
HETATM    9  O   UNL     1     -13.280   8.165  71.959  1.00  0.00    -0.319 OA 
HETATM   10  C   UNL     1     -11.138   9.102  71.450  1.00  0.00    -0.415 A  
HETATM   11  O   UNL     1     -13.185  10.285  71.188  1.00  0.00    -0.381 OA 
BRANCH   6  12
HETATM   12  C   UNL     1      -8.436  10.554  69.154  1.00  0.00    -0.147 C  
BRANCH  12  13
HETATM   13  N   UNL     1      -9.085  10.441  67.835  1.00  0.00    -0.131 N  
HETATM   14  O   UNL     1     -10.800  11.018  66.392  1.00  0.00    -0.257 OA 
HETATM   15  C   UNL     1     -10.182  11.244  67.441  1.00  0.00    -0.188 C  
BRANCH  13  16
HETATM   16  C   UNL     1      -8.785   9.229  67.028  1.00  0.00    -0.124 C  
HETATM   17  C   UNL     1      -7.292   8.856  66.984  1.00  0.00    -0.083 C  
BRANCH  16  18
HETATM   18  C   UNL     1      -9.547   8.024  67.540  1.00  0.00    -0.153 A  
HETATM   19  C   UNL     1     -10.961   6.314  67.423  1.00  0.00    -0.356 A  
HETATM   20  C   UNL     1      -9.965   6.059  68.341  1.00  0.00    -0.145 A  
HETATM   21  N   UNL     1      -9.129   7.148  68.434  1.00  0.00    -0.128 NA 
HETATM   22  H   UNL     1      -8.338   7.256  69.069  1.00  0.00     0.000 HD 
HETATM   23  N   UNL     1     -10.703   7.576  66.946  1.00  0.00    -0.328 NA 
BRANCH  20  24
HETATM   24  C   UNL     1      -9.711   4.814  69.054  1.00  0.00    -0.248 A  
HETATM   25  C   UNL     1      -9.252   2.418  68.952  1.00  0.00    -0.214 A  
HETATM   26  C   UNL     1      -9.351   2.327  70.337  1.00  0.00    -0.190 A  
HETATM   27  C   UNL     1      -9.612   3.475  71.087  1.00  0.00    -0.240 A  
HETATM   28  C   UNL     1      -9.429   3.651  68.318  1.00  0.00    -0.214 A  
HETATM   29  C   UNL     1      -9.786   4.712  70.451  1.00  0.00    -0.306 A  
ENDBRANCH  20  24
ENDBRANCH  16  18
ENDBRANCH  13  16
BRANCH  15  30
HETATM   30  C   UNL     1     -10.574  12.460  68.361  1.00  0.00    -0.236 C  
HETATM   31  H2  UNL     1      -8.843  13.541  67.884  1.00  0.00     0.000 HD 
HETATM   32  N   UNL     1      -9.358  13.244  68.712  1.00  0.00    -0.398 NA 
HETATM   33  H1  UNL     1      -9.612  14.031  69.308  1.00  0.00     0.000 HD 
BRANCH  30  34
HETATM   34  C   UNL     1     -11.569  13.475  67.756  1.00  0.00    -0.374 C  
BRANCH  34  35
HETATM   35  C   UNL     1     -11.094  14.882  67.444  1.00  0.00    -0.325 A  
HETATM   36  C   UNL     1     -11.811  15.648  69.800  1.00  0.00    -0.376 C  
HETATM   37  C   UNL     1     -10.175  16.565  65.927  1.00  0.00    -0.368 A  
HETATM   38  C   UNL     1     -10.625  14.350  64.946  1.00  0.00    -0.456 C  
HETATM   39  C   UNL     1     -11.204  15.890  68.439  1.00  0.00    -0.368 A  
HETATM   40  C   UNL     1     -10.637  15.253  66.154  1.00  0.00    -0.318 A  
HETATM   41  C   UNL     1     -10.204  17.527  66.931  1.00  0.00    -0.329 A  
HETATM   42  C   UNL     1     -10.738  17.187  68.175  1.00  0.00    -0.366 A  
BRANCH  41  43
HETATM   43  C   UNL     1      -9.733  18.928  66.741  1.00  0.00    -0.327 C  
HETATM   44  H2  UNL     1     -11.245  19.412  65.397  1.00  0.00     0.000 HD 
HETATM   45  H1  UNL     1     -10.097  20.711  65.764  1.00  0.00     0.000 HD 
HETATM   46  N   UNL     1     -10.420  19.752  65.893  1.00  0.00    -0.519 N  
HETATM   47  O   UNL     1      -8.744  19.358  67.326  1.00  0.00    -0.285 OA 
ENDBRANCH  41  43
ENDBRANCH  34  35
ENDBRANCH  30  34
ENDBRANCH  15  30
ENDBRANCH  12  13
ENDBRANCH   6  12
ENDBRANCH   2   3
TORSDOF 10
ENDMDL
MODEL       13
REMARK 921   NORMALIZED FREE ENERGY PREDICTED BY IDOCK:   -6.46 KCAL/MOL
REMARK 922        TOTAL FREE ENERGY PREDICTED BY IDOCK:  -13.11 KCAL/MOL
REMARK 923 INTER-LIGAND FREE ENERGY PREDICTED BY IDOCK:   -9.73 KCAL/MOL
REMARK 924 INTRA-LIGAND FREE ENERGY PREDICTED BY IDOCK:   -3.38 KCAL/MOL
REMARK 927      BINDING AFFINITY PREDICTED BY RF-SCORE:    0.00 PKD
ROOT
HETATM    1  C   UNL     1     -10.144  19.145  68.872  1.00  0.00    -0.354 C  
HETATM    2  O   UNL     1     -10.307  18.631  67.549  1.00  0.00    -0.367 OA 
ENDROOT
BRANCH   2   3
HETATM    3  C   UNL     1     -10.138  17.279  67.382  1.00  0.00    -0.307 A  
HETATM    4  C   UNL     1     -11.055  16.321  67.821  1.00  0.00    -0.227 A  
HETATM    5  C   UNL     1     -10.870  14.966  67.531  1.00  0.00    -0.292 A  
HETATM    6  C   UNL     1      -9.747  14.522  66.826  1.00  0.00    -0.269 A  
HETATM    7  C   UNL     1      -8.795  15.477  66.438  1.00  0.00    -0.359 A  
HETATM    8  C   UNL     1      -7.913  17.766  66.227  1.00  0.00    -0.247 C  
HETATM    9  O   UNL     1      -8.335  19.003  65.892  1.00  0.00    -0.463 OA 
HETATM   10  C   UNL     1      -8.987  16.847  66.699  1.00  0.00    -0.279 A  
HETATM   11  O   UNL     1      -6.756  17.401  66.090  1.00  0.00    -0.246 OA 
BRANCH   6  12
HETATM   12  C   UNL     1      -9.558  13.067  66.445  1.00  0.00    -0.257 C  
BRANCH  12  13
HETATM   13  N   UNL     1     -10.765  12.223  66.504  1.00  0.00    -0.240 N  
HETATM   14  O   UNL     1     -12.022  10.598  67.572  1.00  0.00    -0.172 OA 
HETATM   15  C   UNL     1     -11.088  11.410  67.618  1.00  0.00    -0.268 C  
BRANCH  13  16
HETATM   16  C   UNL     1     -11.486  11.973  65.229  1.00  0.00    -0.302 C  
HETATM   17  C   UNL     1     -12.074  13.239  64.580  1.00  0.00    -0.461 C  
BRANCH  16  18
HETATM   18  C   UNL     1     -10.587  11.305  64.209  1.00  0.00    -0.358 A  
HETATM   19  C   UNL     1      -9.064  11.213  62.594  1.00  0.00    -0.330 A  
HETATM   20  C   UNL     1      -9.038  10.062  63.351  1.00  0.00    -0.273 A  
HETATM   21  N   UNL     1     -10.020  10.118  64.315  1.00  0.00    -0.423 NA 
HETATM   22  H   UNL     1     -10.262   9.385  64.981  1.00  0.00     0.000 HD 
HETATM   23  N   UNL     1     -10.071  11.979  63.127  1.00  0.00    -0.354 NA 
BRANCH  20  24
HETATM   24  C   UNL     1      -8.080   8.967  63.274  1.00  0.00    -0.170 A  
HETATM   25  C   UNL     1      -5.752   8.237  63.346  1.00  0.00    -0.067 A  
HETATM   26  C   UNL     1      -6.133   6.944  63.000  1.00  0.00    -0.040 A  
HETATM   27  C   UNL     1      -7.484   6.652  62.807  1.00  0.00    -0.078 A  
HETATM   28  C   UNL     1      -6.718   9.237  63.483  1.00  0.00    -0.092 A  
HETATM   29  C   UNL     1      -8.454   7.655  62.948  1.00  0.00     0.171 A  
ENDBRANCH  20  24
ENDBRANCH  16  18
ENDBRANCH  13  16
BRANCH  15  30
HETATM   30  C   UNL     1     -10.243  11.593  68.934  1.00  0.00    -0.125 C  
HETATM   31  H2  UNL     1     -11.826  11.018  70.181  1.00  0.00     0.000 HD 
HETATM   32  N   UNL     1     -11.150  11.777  70.099  1.00  0.00    -0.383 NA 
HETATM   33  H1  UNL     1     -10.603  11.896  70.951  1.00  0.00     0.000 HD 
BRANCH  30  34
HETATM   34  C   UNL     1      -9.309  10.421  69.309  1.00  0.00    -0.202 C  
BRANCH  34  35
HETATM   35  C   UNL     1      -9.353   9.146  68.487  1.00  0.00    -0.137 A  
HETATM   36  C   UNL     1     -10.997   8.110  70.184  1.00  0.00    -0.223 C  
HETATM   37  C   UNL     1      -8.626   7.760  66.609  1.00  0.00    -0.138 A  
HETATM   38  C   UNL     1      -7.467   9.918  66.878  1.00  0.00    -0.092 C  
HETATM   39  C   UNL     1     -10.177   8.071  68.916  1.00  0.00    -0.220 A  
HETATM   40  C   UNL     1      -8.520   8.950  67.358  1.00  0.00    -0.115 A  
HETATM   41  C   UNL     1      -9.499   6.744  66.984  1.00  0.00    -0.175 A  
HETATM   42  C   UNL     1     -10.254   6.899  68.148  1.00  0.00    -0.203 A  
BRANCH  41  43
HETATM   43  C   UNL     1      -9.645   5.466  66.232  1.00  0.00    -0.160 C  
HETATM   44  H2  UNL     1      -7.607   5.277  65.862  1.00  0.00     0.000 HD 
HETATM   45  H1  UNL     1      -8.629   3.985  65.211  1.00  0.00     0.000 HD 
HETATM   46  N   UNL     1      -8.528   4.860  65.726  1.00  0.00    -0.118 N  
HETATM   47  O   UNL     1     -10.742   4.946  66.056  1.00  0.00    -0.316 OA 
ENDBRANCH  41  43
ENDBRANCH  34  35
ENDBRANCH  30  34
ENDBRANCH  15  30
ENDBRANCH  12  13
ENDBRANCH   6  12
ENDBRANCH   2   3
TORSDOF 10
ENDMDL
MODEL       14
REMARK 921   NORMALIZED FREE ENERGY PREDICTED BY IDOCK:   -6.46 KCAL/MOL
REMARK 922        TOTAL FREE ENERGY PREDICTED BY IDOCK:  -13.10 KCAL/MOL
REMARK 923 INTER-LIGAND FREE ENERGY PREDICTED BY IDOCK:  -10.35 KCAL/MOL
REMARK 924 INTRA-LIGAND FREE ENERGY PREDICTED BY IDOCK:   -2.75 KCAL/MOL
REMARK 927      BINDING AFFINITY PREDICTED BY RF-SCORE:    0.00 PKD
ROOT
HETATM    1  C   UNL     1     -14.355   8.567  71.563  1.00  0.00    -0.364 C  
HETATM    2  O   UNL     1     -13.042   9.011  71.908  1.00  0.00    -0.344 OA 
ENDROOT
BRANCH   2   3
HETATM    3  C   UNL     1     -12.564  10.113  71.245  1.00  0.00    -0.404 A  
HETATM    4  C   UNL     1     -13.035  11.412  71.455  1.00  0.00    -0.468 A  
HETATM    5  C   UNL     1     -12.436  12.504  70.819  1.00  0.00    -0.357 A  
HETATM    6  C   UNL     1     -11.374  12.330  69.927  1.00  0.00    -0.084 A  
HETATM    7  C   UNL     1     -10.940  11.020  69.668  1.00  0.00    -0.286 A  
HETATM    8  C   UNL     1     -10.963   8.577  69.980  1.00  0.00    -0.196 C  
HETATM    9  O   UNL     1     -11.016   7.669  70.975  1.00  0.00    -0.240 OA 
HETATM   10  C   UNL     1     -11.517   9.917  70.327  1.00  0.00    -0.349 A  
HETATM   11  O   UNL     1     -10.441   8.347  68.900  1.00  0.00    -0.218 OA 
BRANCH   6  12
HETATM   12  C   UNL     1     -10.668  13.502  69.275  1.00  0.00     0.001 C  
BRANCH  12  13
HETATM   13  N   UNL     1     -11.509  14.375  68.436  1.00  0.00    -0.284 N  
HETATM   14  O   UNL     1     -12.400  14.910  66.368  1.00  0.00    -0.044 OA 
HETATM   15  C   UNL     1     -11.824  14.084  67.087  1.00  0.00    -0.411 C  
BRANCH  13  16
HETATM   16  C   UNL     1     -11.759  15.756  68.925  1.00  0.00    -0.394 C  
HETATM   17  C   UNL     1     -11.824  15.880  70.458  1.00  0.00    -0.374 C  
BRANCH  16  18
HETATM   18  C   UNL     1     -10.698  16.717  68.429  1.00  0.00    -0.362 A  
HETATM   19  C   UNL     1      -9.908  18.622  67.600  1.00  0.00    -0.320 A  
HETATM   20  C   UNL     1      -8.965  18.011  68.398  1.00  0.00    -0.279 A  
HETATM   21  N   UNL     1      -9.455  16.812  68.862  1.00  0.00    -0.256 NA 
HETATM   22  H   UNL     1      -8.955  16.129  69.431  1.00  0.00     0.000 HD 
HETATM   23  N   UNL     1     -10.990  17.776  67.601  1.00  0.00    -0.212 NA 
BRANCH  20  24
HETATM   24  C   UNL     1      -7.676  18.545  68.819  1.00  0.00    -0.305 A  
HETATM   25  C   UNL     1      -5.510  18.152  69.874  1.00  0.00    -0.227 A  
HETATM   26  C   UNL     1      -5.212  19.509  69.798  1.00  0.00    -0.221 A  
HETATM   27  C   UNL     1      -6.132  20.386  69.220  1.00  0.00    -0.367 A  
HETATM   28  C   UNL     1      -6.730  17.676  69.387  1.00  0.00    -0.176 A  
HETATM   29  C   UNL     1      -7.355  19.907  68.729  1.00  0.00    -0.286 A  
ENDBRANCH  20  24
ENDBRANCH  16  18
ENDBRANCH  13  16
BRANCH  15  30
HETATM   30  C   UNL     1     -11.450  12.657  66.535  1.00  0.00    -0.353 C  
HETATM   31  H2  UNL     1     -12.564  12.906  64.777  1.00  0.00     0.000 HD 
HETATM   32  N   UNL     1     -12.455  12.223  65.526  1.00  0.00    -0.508 NA 
HETATM   33  H1  UNL     1     -12.212  11.299  65.169  1.00  0.00     0.000 HD 
BRANCH  30  34
HETATM   34  C   UNL     1     -10.076  12.538  65.839  1.00  0.00    -0.270 C  
BRANCH  34  35
HETATM   35  C   UNL     1      -8.964  11.764  66.522  1.00  0.00    -0.196 A  
HETATM   36  C   UNL     1      -7.914  13.980  67.322  1.00  0.00    -0.157 C  
HETATM   37  C   UNL     1      -7.801   9.685  67.070  1.00  0.00    -0.098 A  
HETATM   38  C   UNL     1      -9.708   9.486  65.524  1.00  0.00    -0.344 C  
HETATM   39  C   UNL     1      -7.960  12.473  67.235  1.00  0.00    -0.173 A  
HETATM   40  C   UNL     1      -8.833  10.359  66.387  1.00  0.00    -0.159 A  
HETATM   41  C   UNL     1      -6.869  10.376  67.839  1.00  0.00    -0.070 A  
HETATM   42  C   UNL     1      -6.945  11.769  67.899  1.00  0.00    -0.085 A  
BRANCH  41  43
HETATM   43  C   UNL     1      -5.758   9.712  68.576  1.00  0.00    -0.039 C  
HETATM   44  H2  UNL     1      -5.443  11.323  69.853  1.00  0.00     0.000 HD 
HETATM   45  H1  UNL     1      -4.382   9.927  70.103  1.00  0.00     0.000 HD 
HETATM   46  N   UNL     1      -5.143  10.382  69.598  1.00  0.00    -0.038 N  
HETATM   47  O   UNL     1      -5.380   8.581  68.287  1.00  0.00    -0.033 OA 
ENDBRANCH  41  43
ENDBRANCH  34  35
ENDBRANCH  30  34
ENDBRANCH  15  30
ENDBRANCH  12  13
ENDBRANCH   6  12
ENDBRANCH   2   3
TORSDOF 10
ENDMDL
MODEL       15
REMARK 921   NORMALIZED FREE ENERGY PREDICTED BY IDOCK:   -6.45 KCAL/MOL
REMARK 922        TOTAL FREE ENERGY PREDICTED BY IDOCK:  -13.09 KCAL/MOL
REMARK 923 INTER-LIGAND FREE ENERGY PREDICTED BY IDOCK:  -11.64 KCAL/MOL
REMARK 924 INTRA-LIGAND FREE ENERGY PREDICTED BY IDOCK:   -1.45 KCAL/MOL
REMARK 927      BINDING AFFINITY PREDICTED BY RF-SCORE:    0.00 PKD
ROOT
HETATM    1  C   UNL     1      -8.006   6.548  62.674  1.00  0.00    -0.098 C  
HETATM    2  O   UNL     1      -7.957   6.530  64.102  1.00  0.00    -0.115 OA 
ENDROOT
BRANCH   2   3
HETATM    3  C   UNL     1      -8.008   7.743  64.741  1.00  0.00    -0.142 A  
HETATM    4  C   UNL     1      -7.517   8.932  64.194  1.00  0.00    -0.111 A  
HETATM    5  C   UNL     1      -7.691  10.151  64.856  1.00  0.00    -0.143 A  
HETATM    6  C   UNL     1      -8.326  10.217  66.099  1.00  0.00    -0.140 A  
HETATM    7  C   UNL     1      -8.764   9.016  66.678  1.00  0.00    -0.140 A  
HETATM    8  C   UNL     1      -9.138   6.582  66.715  1.00  0.00    -0.144 C  
HETATM    9  O   UNL     1      -9.584   5.599  65.907  1.00  0.00    -0.128 OA 
HETATM   10  C   UNL     1      -8.622   7.787  66.006  1.00  0.00    -0.166 A  
HETATM   11  O   UNL     1      -9.213   6.524  67.932  1.00  0.00    -0.114 OA 
BRANCH   6  12
HETATM   12  C   UNL     1      -8.581  11.534  66.806  1.00  0.00    -0.170 C  
BRANCH  12  13
HETATM   13  N   UNL     1      -9.898  12.151  66.562  1.00  0.00    -0.214 N  
HETATM   14  O   UNL     1     -12.107  12.463  67.178  1.00  0.00    -0.532 OA 
HETATM   15  C   UNL     1     -10.973  12.070  67.480  1.00  0.00    -0.253 C  
BRANCH  13  16
HETATM   16  C   UNL     1     -10.202  12.587  65.174  1.00  0.00    -0.279 C  
HETATM   17  C   UNL     1     -11.490  11.978  64.591  1.00  0.00    -0.371 C  
BRANCH  16  18
HETATM   18  C   UNL     1     -10.321  14.094  65.084  1.00  0.00    -0.405 A  
HETATM   19  C   UNL     1     -11.354  16.036  64.769  1.00  0.00    -0.280 A  
HETATM   20  C   UNL     1     -10.298  16.184  65.643  1.00  0.00    -0.382 A  
HETATM   21  N   UNL     1      -9.643  14.982  65.787  1.00  0.00    -0.419 NA 
HETATM   22  H   UNL     1      -8.797  14.811  66.331  1.00  0.00     0.000 HD 
HETATM   23  N   UNL     1     -11.338  14.714  64.397  1.00  0.00    -0.282 NA 
BRANCH  20  24
HETATM   24  C   UNL     1      -9.941  17.367  66.414  1.00  0.00    -0.322 A  
HETATM   25  C   UNL     1     -10.076  19.790  66.682  1.00  0.00    -0.578 A  
HETATM   26  C   UNL     1      -9.192  19.734  67.755  1.00  0.00    -0.427 A  
HETATM   27  C   UNL     1      -8.693  18.499  68.173  1.00  0.00    -0.330 A  
HETATM   28  C   UNL     1     -10.448  18.617  66.020  1.00  0.00    -0.456 A  
HETATM   29  C   UNL     1      -9.069  17.321  67.511  1.00  0.00    -0.223 A  
ENDBRANCH  20  24
ENDBRANCH  16  18
ENDBRANCH  13  16
BRANCH  15  30
HETATM   30  C   UNL     1     -10.674  11.495  68.916  1.00  0.00    -0.207 C  
HETATM   31  H2  UNL     1     -12.386  12.362  69.758  1.00  0.00     0.000 HD 
HETATM   32  N   UNL     1     -11.386  12.302  69.945  1.00  0.00    -0.507 NA 
HETATM   33  H1  UNL     1     -11.192  11.929  70.874  1.00  0.00     0.000 HD 
BRANCH  30  34
HETATM   34  C   UNL     1     -11.099  10.030  69.162  1.00  0.00    -0.232 C  
BRANCH  34  35
HETATM   35  C   UNL     1     -10.618   9.319  70.413  1.00  0.00    -0.298 A  
HETATM   36  C   UNL     1     -13.056   9.098  71.224  1.00  0.00    -0.297 C  
HETATM   37  C   UNL     1      -8.848   8.477  71.873  1.00  0.00    -0.284 A  
HETATM   38  C   UNL     1      -8.110   9.750  69.897  1.00  0.00    -0.192 C  
HETATM   39  C   UNL     1     -11.570   8.871  71.367  1.00  0.00    -0.382 A  
HETATM   40  C   UNL     1      -9.240   9.177  70.714  1.00  0.00    -0.321 A  
HETATM   41  C   UNL     1      -9.786   7.963  72.762  1.00  0.00    -0.335 A  
HETATM   42  C   UNL     1     -11.142   8.182  72.512  1.00  0.00    -0.446 A  
BRANCH  41  43
HETATM   43  C   UNL     1      -9.424   7.222  74.002  1.00  0.00    -0.251 C  
HETATM   44  H2  UNL     1      -7.531   8.071  74.137  1.00  0.00     0.000 HD 
HETATM   45  H1  UNL     1      -7.945   6.914  75.412  1.00  0.00     0.000 HD 
HETATM   46  N   UNL     1      -8.193   7.422  74.563  1.00  0.00    -0.184 N  
HETATM   47  O   UNL     1     -10.204   6.435  74.532  1.00  0.00    -0.342 OA 
ENDBRANCH  41  43
ENDBRANCH  34  35
ENDBRANCH  30  34
ENDBRANCH  15  30
ENDBRANCH  12  13
ENDBRANCH   6  12
ENDBRANCH   2   3
TORSDOF 10
ENDMDL
MODEL       16
REMARK 921   NORMALIZED FREE ENERGY PREDICTED BY IDOCK:   -6.44 KCAL/MOL
REMARK 922        TOTAL FREE ENERGY PREDICTED BY IDOCK:  -13.07 KCAL/MOL
REMARK 923 INTER-LIGAND FREE ENERGY PREDICTED BY IDOCK:  -10.03 KCAL/MOL
REMARK 924 INTRA-LIGAND FREE ENERGY PREDICTED BY IDOCK:   -3.04 KCAL/MOL
REMARK 927      BINDING AFFINITY PREDICTED BY RF-SCORE:    0.00 PKD
ROOT
HETATM    1  C   UNL     1      -8.360   6.198  64.776  1.00  0.00    -0.070 C  
HETATM    2  O   UNL     1      -8.291   5.961  66.184  1.00  0.00    -0.115 OA 
ENDROOT
BRANCH   2   3
HETATM    3  C   UNL     1      -8.655   6.997  67.007  1.00  0.00    -0.122 A  
HETATM    4  C   UNL     1      -9.962   7.478  67.119  1.00  0.00    -0.288 A  
HETATM    5  C   UNL     1     -10.283   8.470  68.051  1.00  0.00    -0.264 A  
HETATM    6  C   UNL     1      -9.304   9.038  68.873  1.00  0.00    -0.143 A  
HETATM    7  C   UNL     1      -7.980   8.598  68.718  1.00  0.00    -0.114 A  
HETATM    8  C   UNL     1      -6.215   7.188  67.738  1.00  0.00    -0.042 C  
HETATM    9  O   UNL     1      -5.995   5.899  67.409  1.00  0.00    -0.016 OA 
HETATM   10  C   UNL     1      -7.652   7.578  67.803  1.00  0.00    -0.106 A  
HETATM   11  O   UNL     1      -5.316   7.960  68.029  1.00  0.00    -0.030 OA 
BRANCH   6  12
HETATM   12  C   UNL     1      -9.640  10.068  69.933  1.00  0.00    -0.192 C  
BRANCH  12  13
HETATM   13  N   UNL     1     -10.714   9.700  70.872  1.00  0.00    -0.324 N  
HETATM   14  O   UNL     1     -11.560   8.274  72.488  1.00  0.00    -0.383 OA 
HETATM   15  C   UNL     1     -10.589   8.659  71.823  1.00  0.00    -0.325 C  
BRANCH  13  16
HETATM   16  C   UNL     1     -12.077  10.220  70.588  1.00  0.00    -0.338 C  
HETATM   17  C   UNL     1     -12.778  10.848  71.807  1.00  0.00    -0.435 C  
BRANCH  16  18
HETATM   18  C   UNL     1     -12.053  11.257  69.485  1.00  0.00    -0.317 A  
HETATM   19  C   UNL     1     -11.438  13.141  68.480  1.00  0.00    -0.303 A  
HETATM   20  C   UNL     1     -11.757  12.176  67.548  1.00  0.00    -0.315 A  
HETATM   21  N   UNL     1     -12.181  11.034  68.190  1.00  0.00    -0.662 NA 
HETATM   22  H   UNL     1     -12.526  10.181  67.750  1.00  0.00     0.000 HD 
HETATM   23  N   UNL     1     -11.661  12.557  69.702  1.00  0.00    -0.277 NA 
BRANCH  20  24
HETATM   24  C   UNL     1     -11.589  12.245  66.103  1.00  0.00    -0.450 A  
HETATM   25  C   UNL     1     -10.403  11.481  64.111  1.00  0.00    -0.386 A  
HETATM   26  C   UNL     1     -11.088  12.407  63.331  1.00  0.00    -0.465 A  
HETATM   27  C   UNL     1     -12.036  13.242  63.926  1.00  0.00    -0.541 A  
HETATM   28  C   UNL     1     -10.654  11.400  65.483  1.00  0.00    -0.328 A  
HETATM   29  C   UNL     1     -12.289  13.159  65.302  1.00  0.00    -0.532 A  
ENDBRANCH  20  24
ENDBRANCH  16  18
ENDBRANCH  13  16
BRANCH  15  30
HETATM   30  C   UNL     1      -9.163   8.026  72.038  1.00  0.00    -0.171 C  
HETATM   31  H2  UNL     1      -9.091   8.563  74.063  1.00  0.00     0.000 HD 
HETATM   32  N   UNL     1      -8.510   8.636  73.229  1.00  0.00    -0.374 NA 
HETATM   33  H1  UNL     1      -7.586   8.226  73.367  1.00  0.00     0.000 HD 
BRANCH  30  34
HETATM   34  C   UNL     1      -9.128   6.499  72.276  1.00  0.00    -0.138 C  
BRANCH  34  35
HETATM   35  C   UNL     1      -8.923   5.570  71.095  1.00  0.00    -0.153 A  
HETATM   36  C   UNL     1      -6.406   5.431  71.640  1.00  0.00    -0.039 C  
HETATM   37  C   UNL     1      -9.733   4.372  69.123  1.00  0.00    -0.240 A  
HETATM   38  C   UNL     1     -11.352   5.865  70.227  1.00  0.00    -0.232 C  
HETATM   39  C   UNL     1      -7.624   5.062  70.827  1.00  0.00    -0.074 A  
HETATM   40  C   UNL     1      -9.967   5.269  70.185  1.00  0.00    -0.313 A  
HETATM   41  C   UNL     1      -8.478   3.809  68.915  1.00  0.00    -0.101 A  
HETATM   42  C   UNL     1      -7.426   4.175  69.758  1.00  0.00    -0.049 A  
BRANCH  41  43
HETATM   43  C   UNL     1      -8.176   2.861  67.806  1.00  0.00    -0.079 C  
HETATM   44  H2  UNL     1      -6.241   2.473  68.465  1.00  0.00     0.000 HD 
HETATM   45  H1  UNL     1      -6.738   1.619  66.995  1.00  0.00     0.000 HD 
HETATM   46  N   UNL     1      -6.944   2.269  67.754  1.00  0.00    -0.046 N  
HETATM   47  O   UNL     1      -9.005   2.600  66.940  1.00  0.00    -0.133 OA 
ENDBRANCH  41  43
ENDBRANCH  34  35
ENDBRANCH  30  34
ENDBRANCH  15  30
ENDBRANCH  12  13
ENDBRANCH   6  12
ENDBRANCH   2   3
TORSDOF 10
ENDMDL
MODEL       17
REMARK 921   NORMALIZED FREE ENERGY PREDICTED BY IDOCK:   -6.37 KCAL/MOL
REMARK 922        TOTAL FREE ENERGY PREDICTED BY IDOCK:  -12.96 KCAL/MOL
REMARK 923 INTER-LIGAND FREE ENERGY PREDICTED BY IDOCK:   -9.22 KCAL/MOL
REMARK 924 INTRA-LIGAND FREE ENERGY PREDICTED BY IDOCK:   -3.74 KCAL/MOL
REMARK 927      BINDING AFFINITY PREDICTED BY RF-SCORE:    0.00 PKD
ROOT
HETATM    1  C   UNL     1     -11.225   5.308  72.848  1.00  0.00    -0.312 C  
HETATM    2  O   UNL     1     -10.272   6.290  72.437  1.00  0.00    -0.184 OA 
ENDROOT
BRANCH   2   3
HETATM    3  C   UNL     1     -10.309   6.681  71.122  1.00  0.00    -0.206 A  
HETATM    4  C   UNL     1     -11.038   6.014  70.133  1.00  0.00    -0.432 A  
HETATM    5  C   UNL     1     -11.112   6.522  68.833  1.00  0.00    -0.371 A  
HETATM    6  C   UNL     1     -10.434   7.689  68.470  1.00  0.00    -0.206 A  
HETATM    7  C   UNL     1      -9.652   8.326  69.447  1.00  0.00    -0.171 A  
HETATM    8  C   UNL     1      -8.742   8.607  71.718  1.00  0.00    -0.197 C  
HETATM    9  O   UNL     1      -9.154   8.572  73.001  1.00  0.00    -0.270 OA 
HETATM   10  C   UNL     1      -9.595   7.839  70.767  1.00  0.00    -0.167 A  
HETATM   11  O   UNL     1      -7.787   9.271  71.346  1.00  0.00    -0.335 OA 
BRANCH   6  12
HETATM   12  C   UNL     1     -10.551   8.293  67.084  1.00  0.00    -0.270 C  
BRANCH  12  13
HETATM   13  N   UNL     1      -9.280   8.542  66.381  1.00  0.00    -0.185 N  
HETATM   14  O   UNL     1      -7.216   7.793  65.649  1.00  0.00    -0.065 OA 
HETATM   15  C   UNL     1      -8.337   7.524  66.100  1.00  0.00    -0.138 C  
BRANCH  13  16
HETATM   16  C   UNL     1      -8.835   9.955  66.255  1.00  0.00    -0.143 C  
HETATM   17  C   UNL     1      -8.580  10.408  64.806  1.00  0.00    -0.190 C  
BRANCH  16  18
HETATM   18  C   UNL     1      -9.842  10.907  66.866  1.00  0.00    -0.189 A  
HETATM   19  C   UNL     1     -11.776  11.989  67.030  1.00  0.00    -0.267 A  
HETATM   20  C   UNL     1     -11.221  11.797  68.277  1.00  0.00    -0.255 A  
HETATM   21  N   UNL     1     -10.003  11.168  68.150  1.00  0.00    -0.172 NA 
HETATM   22  H   UNL     1      -9.350  10.947  68.902  1.00  0.00     0.000 HD 
HETATM   23  N   UNL     1     -10.878  11.450  66.142  1.00  0.00    -0.273 NA 
BRANCH  20  24
HETATM   24  C   UNL     1     -11.822  12.085  69.572  1.00  0.00    -0.390 A  
HETATM   25  C   UNL     1     -12.837  11.238  71.624  1.00  0.00    -0.510 A  
HETATM   26  C   UNL     1     -13.125  12.537  72.033  1.00  0.00    -0.472 A  
HETATM   27  C   UNL     1     -12.750  13.612  71.227  1.00  0.00    -0.443 A  
HETATM   28  C   UNL     1     -12.190  11.016  70.406  1.00  0.00    -0.461 A  
HETATM   29  C   UNL     1     -12.097  13.389  70.006  1.00  0.00    -0.404 A  
ENDBRANCH  20  24
ENDBRANCH  16  18
ENDBRANCH  13  16
BRANCH  15  30
HETATM   30  C   UNL     1      -8.771   6.031  66.346  1.00  0.00    -0.133 C  
HETATM   31  H2  UNL     1      -8.483   5.484  64.343  1.00  0.00     0.000 HD 
HETATM   32  N   UNL     1      -9.200   5.408  65.064  1.00  0.00    -0.360 NA 
HETATM   33  H1  UNL     1      -9.481   4.440  65.225  1.00  0.00     0.000 HD 
BRANCH  30  34
HETATM   34  C   UNL     1      -7.685   5.096  66.925  1.00  0.00    -0.092 C  
BRANCH  34  35
HETATM   35  C   UNL     1      -7.663   4.821  68.417  1.00  0.00    -0.081 A  
HETATM   36  C   UNL     1      -9.366   2.912  68.089  1.00  0.00    -0.258 C  
HETATM   37  C   UNL     1      -6.939   5.327  70.697  1.00  0.00    -0.052 A  
HETATM   38  C   UNL     1      -6.211   6.905  68.951  1.00  0.00    -0.027 C  
HETATM   39  C   UNL     1      -8.457   3.765  68.941  1.00  0.00    -0.101 A  
HETATM   40  C   UNL     1      -6.955   5.648  69.324  1.00  0.00    -0.063 A  
HETATM   41  C   UNL     1      -7.650   4.239  71.194  1.00  0.00    -0.066 A  
HETATM   42  C   UNL     1      -8.420   3.477  70.314  1.00  0.00    -0.093 A  
BRANCH  41  43
HETATM   43  C   UNL     1      -7.671   3.860  72.635  1.00  0.00    -0.073 C  
HETATM   44  H2  UNL     1      -6.781   5.630  73.268  1.00  0.00     0.000 HD 
HETATM   45  H1  UNL     1      -7.181   4.472  74.546  1.00  0.00     0.000 HD 
HETATM   46  N   UNL     1      -7.167   4.732  73.560  1.00  0.00    -0.079 N  
HETATM   47  O   UNL     1      -8.129   2.785  73.010  1.00  0.00    -0.064 OA 
ENDBRANCH  41  43
ENDBRANCH  34  35
ENDBRANCH  30  34
ENDBRANCH  15  30
ENDBRANCH  12  13
ENDBRANCH   6  12
ENDBRANCH   2   3
TORSDOF 10
ENDMDL
MODEL       18
REMARK 921   NORMALIZED FREE ENERGY PREDICTED BY IDOCK:   -6.34 KCAL/MOL
REMARK 922        TOTAL FREE ENERGY PREDICTED BY IDOCK:  -12.92 KCAL/MOL
REMARK 923 INTER-LIGAND FREE ENERGY PREDICTED BY IDOCK:  -10.89 KCAL/MOL
REMARK 924 INTRA-LIGAND FREE ENERGY PREDICTED BY IDOCK:   -2.04 KCAL/MOL
REMARK 927      BINDING AFFINITY PREDICTED BY RF-SCORE:    0.00 PKD
ROOT
HETATM    1  C   UNL     1     -13.487   8.965  71.774  1.00  0.00    -0.397 C  
HETATM    2  O   UNL     1     -12.172   9.396  72.131  1.00  0.00    -0.343 OA 
ENDROOT
BRANCH   2   3
HETATM    3  C   UNL     1     -11.250   9.483  71.118  1.00  0.00    -0.376 A  
HETATM    4  C   UNL     1     -11.292  10.450  70.110  1.00  0.00    -0.397 A  
HETATM    5  C   UNL     1     -10.266  10.544  69.164  1.00  0.00    -0.241 A  
HETATM    6  C   UNL     1      -9.187   9.655  69.173  1.00  0.00    -0.168 A  
HETATM    7  C   UNL     1      -9.176   8.645  70.148  1.00  0.00    -0.165 A  
HETATM    8  C   UNL     1     -10.061   7.454  72.113  1.00  0.00    -0.190 C  
HETATM    9  O   UNL     1     -10.580   7.721  73.329  1.00  0.00    -0.364 OA 
HETATM   10  C   UNL     1     -10.189   8.560  71.123  1.00  0.00    -0.272 A  
HETATM   11  O   UNL     1      -9.470   6.416  71.858  1.00  0.00    -0.153 OA 
BRANCH   6  12
HETATM   12  C   UNL     1      -8.033   9.777  68.198  1.00  0.00    -0.100 C  
BRANCH  12  13
HETATM   13  N   UNL     1      -8.400  10.014  66.791  1.00  0.00    -0.125 N  
HETATM   14  O   UNL     1      -9.123  11.450  65.125  1.00  0.00    -0.163 OA 
HETATM   15  C   UNL     1      -8.667  11.302  66.266  1.00  0.00    -0.184 C  
BRANCH  13  16
HETATM   16  C   UNL     1      -8.819   8.837  65.987  1.00  0.00    -0.175 C  
HETATM   17  C   UNL     1      -7.686   8.207  65.156  1.00  0.00    -0.107 C  
BRANCH  16  18
HETATM   18  C   UNL     1      -9.406   7.751  66.864  1.00  0.00    -0.169 A  
HETATM   19  C   UNL     1     -11.002   6.435  67.676  1.00  0.00    -0.349 A  
HETATM   20  C   UNL     1      -9.776   5.808  67.742  1.00  0.00    -0.119 A  
HETATM   21  N   UNL     1      -8.796   6.657  67.280  1.00  0.00    -0.116 NA 
HETATM   22  H   UNL     1      -7.792   6.475  67.263  1.00  0.00     0.000 HD 
HETATM   23  N   UNL     1     -10.750   7.677  67.147  1.00  0.00    -0.331 NA 
BRANCH  20  24
HETATM   24  C   UNL     1      -9.501   4.429  68.124  1.00  0.00    -0.207 A  
HETATM   25  C   UNL     1      -9.023   2.138  67.430  1.00  0.00    -0.178 A  
HETATM   26  C   UNL     1      -9.101   1.708  68.750  1.00  0.00    -0.177 A  
HETATM   27  C   UNL     1      -9.361   2.632  69.763  1.00  0.00    -0.185 A  
HETATM   28  C   UNL     1      -9.220   3.487  67.121  1.00  0.00    -0.217 A  
HETATM   29  C   UNL     1      -9.555   3.986  69.454  1.00  0.00    -0.257 A  
ENDBRANCH  20  24
ENDBRANCH  16  18
ENDBRANCH  13  16
BRANCH  15  30
HETATM   30  C   UNL     1      -8.333  12.549  67.168  1.00  0.00    -0.179 C  
HETATM   31  H2  UNL     1      -6.749  13.169  65.943  1.00  0.00     0.000 HD 
HETATM   32  N   UNL     1      -6.930  12.987  66.930  1.00  0.00    -0.375 NA 
HETATM   33  H1  UNL     1      -6.714  13.794  67.515  1.00  0.00     0.000 HD 
BRANCH  30  34
HETATM   34  C   UNL     1      -9.208  13.802  66.944  1.00  0.00    -0.263 C  
BRANCH  34  35
HETATM   35  C   UNL     1     -10.084  14.306  68.076  1.00  0.00    -0.227 A  
HETATM   36  C   UNL     1     -12.135  13.180  66.991  1.00  0.00    -0.366 C  
HETATM   37  C   UNL     1     -10.438  15.591  70.125  1.00  0.00    -0.317 A  
HETATM   38  C   UNL     1      -8.199  15.759  69.112  1.00  0.00    -0.247 C  
HETATM   39  C   UNL     1     -11.467  13.980  68.083  1.00  0.00    -0.341 A  
HETATM   40  C   UNL     1      -9.591  15.180  69.077  1.00  0.00    -0.229 A  
HETATM   41  C   UNL     1     -11.772  15.198  70.175  1.00  0.00    -0.343 A  
HETATM   42  C   UNL     1     -12.282  14.411  69.141  1.00  0.00    -0.255 A  
BRANCH  41  43
HETATM   43  C   UNL     1     -12.710  15.609  71.257  1.00  0.00    -0.475 C  
HETATM   44  H2  UNL     1     -11.197  15.976  72.635  1.00  0.00     0.000 HD 
HETATM   45  H1  UNL     1     -12.847  16.261  73.212  1.00  0.00     0.000 HD 
HETATM   46  N   UNL     1     -12.204  15.980  72.472  1.00  0.00    -0.480 N  
HETATM   47  O   UNL     1     -13.925  15.621  71.084  1.00  0.00    -0.564 OA 
ENDBRANCH  41  43
ENDBRANCH  34  35
ENDBRANCH  30  34
ENDBRANCH  15  30
ENDBRANCH  12  13
ENDBRANCH   6  12
ENDBRANCH   2   3
TORSDOF 10
ENDMDL
MODEL       19
REMARK 921   NORMALIZED FREE ENERGY PREDICTED BY IDOCK:   -6.20 KCAL/MOL
REMARK 922        TOTAL FREE ENERGY PREDICTED BY IDOCK:  -12.69 KCAL/MOL
REMARK 923 INTER-LIGAND FREE ENERGY PREDICTED BY IDOCK:   -9.05 KCAL/MOL
REMARK 924 INTRA-LIGAND FREE ENERGY PREDICTED BY IDOCK:   -3.64 KCAL/MOL
REMARK 927      BINDING AFFINITY PREDICTED BY RF-SCORE:    0.00 PKD
ROOT
HETATM    1  C   UNL     1      -6.569   4.376  74.203  1.00  0.00    -0.054 C  
HETATM    2  O   UNL     1      -7.970   4.641  74.121  1.00  0.00    -0.098 OA 
ENDROOT
BRANCH   2   3
HETATM    3  C   UNL     1      -8.348   5.818  73.525  1.00  0.00    -0.111 A  
HETATM    4  C   UNL     1      -7.499   6.917  73.369  1.00  0.00    -0.083 A  
HETATM    5  C   UNL     1      -7.916   8.050  72.664  1.00  0.00    -0.181 A  
HETATM    6  C   UNL     1      -9.203   8.136  72.125  1.00  0.00    -0.258 A  
HETATM    7  C   UNL     1     -10.077   7.057  72.334  1.00  0.00    -0.193 A  
HETATM    8  C   UNL     1     -10.669   4.816  73.164  1.00  0.00    -0.243 C  
HETATM    9  O   UNL     1     -10.159   3.568  73.207  1.00  0.00    -0.123 OA 
HETATM   10  C   UNL     1      -9.656   5.899  73.016  1.00  0.00    -0.158 A  
HETATM   11  O   UNL     1     -11.869   5.041  73.175  1.00  0.00    -0.279 OA 
BRANCH   6  12
HETATM   12  C   UNL     1      -9.656   9.326  71.302  1.00  0.00    -0.202 C  
BRANCH  12  13
HETATM   13  N   UNL     1     -10.563   9.027  70.180  1.00  0.00    -0.216 N  
HETATM   14  O   UNL     1     -10.883   8.508  67.947  1.00  0.00    -0.125 OA 
HETATM   15  C   UNL     1     -10.109   8.600  68.909  1.00  0.00    -0.202 C  
BRANCH  13  16
HETATM   16  C   UNL     1     -11.968   9.500  70.293  1.00  0.00     0.014 C  
HETATM   17  C   UNL     1     -12.503   9.548  71.736  1.00  0.00    -0.484 C  
BRANCH  16  18
HETATM   18  C   UNL     1     -12.133  10.881  69.693  1.00  0.00    -0.329 A  
HETATM   19  C   UNL     1     -11.847  13.080  69.544  1.00  0.00    -0.323 A  
HETATM   20  C   UNL     1     -12.033  12.529  68.294  1.00  0.00    -0.221 A  
HETATM   21  N   UNL     1     -12.257  11.176  68.412  1.00  0.00    -0.726 NA 
HETATM   22  H   UNL     1     -12.475  10.526  67.657  1.00  0.00     0.000 HD 
HETATM   23  N   UNL     1     -11.944  12.031  70.424  1.00  0.00    -0.337 NA 
BRANCH  20  24
HETATM   24  C   UNL     1     -11.915  13.193  67.003  1.00  0.00    -0.412 A  
HETATM   25  C   UNL     1     -11.786  12.999  64.573  1.00  0.00    -0.419 A  
HETATM   26  C   UNL     1     -11.548  14.366  64.463  1.00  0.00    -0.393 A  
HETATM   27  C   UNL     1     -11.510  15.153  65.615  1.00  0.00    -0.192 A  
HETATM   28  C   UNL     1     -11.969  12.420  65.831  1.00  0.00    -0.434 A  
HETATM   29  C   UNL     1     -11.697  14.572  66.878  1.00  0.00    -0.399 A  
ENDBRANCH  20  24
ENDBRANCH  16  18
ENDBRANCH  13  16
BRANCH  15  30
HETATM   30  C   UNL     1      -8.590   8.211  68.762  1.00  0.00    -0.127 C  
HETATM   31  H2  UNL     1      -8.987   6.669  67.398  1.00  0.00     0.000 HD 
HETATM   32  N   UNL     1      -8.470   6.813  68.265  1.00  0.00    -0.125 NA 
HETATM   33  H1  UNL     1      -7.486   6.561  68.171  1.00  0.00     0.000 HD 
BRANCH  30  34
HETATM   34  C   UNL     1      -7.760   9.076  67.789  1.00  0.00    -0.097 C  
BRANCH  34  35
HETATM   35  C   UNL     1      -7.842  10.588  67.887  1.00  0.00    -0.105 A  
HETATM   36  C   UNL     1      -8.964  10.677  65.566  1.00  0.00    -0.209 C  
HETATM   37  C   UNL     1      -7.389  12.707  69.018  1.00  0.00     0.055 A  
HETATM   38  C   UNL     1      -6.437  10.692  70.068  1.00  0.00    -0.138 C  
HETATM   39  C   UNL     1      -8.435  11.322  66.825  1.00  0.00    -0.161 A  
HETATM   40  C   UNL     1      -7.253  11.306  68.958  1.00  0.00    -0.119 A  
HETATM   41  C   UNL     1      -8.047  13.415  68.018  1.00  0.00    -0.160 A  
HETATM   42  C   UNL     1      -8.549  12.717  66.917  1.00  0.00    -0.140 A  
BRANCH  41  43
HETATM   43  C   UNL     1      -8.213  14.895  68.031  1.00  0.00    -0.139 C  
HETATM   44  H2  UNL     1      -7.038  15.192  66.341  1.00  0.00     0.000 HD 
HETATM   45  H1  UNL     1      -7.714  16.656  67.072  1.00  0.00     0.000 HD 
HETATM   46  N   UNL     1      -7.601  15.643  67.063  1.00  0.00    -0.221 N  
HETATM   47  O   UNL     1      -8.884  15.459  68.889  1.00  0.00    -0.181 OA 
ENDBRANCH  41  43
ENDBRANCH  34  35
ENDBRANCH  30  34
ENDBRANCH  15  30
ENDBRANCH  12  13
ENDBRANCH   6  12
ENDBRANCH   2   3
TORSDOF 10
ENDMDL
MODEL       20
REMARK 921   NORMALIZED FREE ENERGY PREDICTED BY IDOCK:   -6.16 KCAL/MOL
REMARK 922        TOTAL FREE ENERGY PREDICTED BY IDOCK:  -12.63 KCAL/MOL
REMARK 923 INTER-LIGAND FREE ENERGY PREDICTED BY IDOCK:  -11.05 KCAL/MOL
REMARK 924 INTRA-LIGAND FREE ENERGY PREDICTED BY IDOCK:   -1.57 KCAL/MOL
REMARK 927      BINDING AFFINITY PREDICTED BY RF-SCORE:    0.00 PKD
ROOT
HETATM    1  C   UNL     1     -11.776  16.130  71.759  1.00  0.00    -0.488 C  
HETATM    2  O   UNL     1     -10.688  15.483  71.098  1.00  0.00    -0.232 OA 
ENDROOT
BRANCH   2   3
HETATM    3  C   UNL     1     -11.004  14.632  70.068  1.00  0.00    -0.112 A  
HETATM    4  C   UNL     1     -12.219  13.950  69.969  1.00  0.00    -0.408 A  
HETATM    5  C   UNL     1     -12.516  13.176  68.843  1.00  0.00     0.313 A  
HETATM    6  C   UNL     1     -11.596  13.028  67.801  1.00  0.00    -0.385 A  
HETATM    7  C   UNL     1     -10.351  13.663  67.928  1.00  0.00    -0.249 A  
HETATM    8  C   UNL     1      -8.705  15.102  69.061  1.00  0.00    -0.215 C  
HETATM    9  O   UNL     1      -8.644  16.287  69.700  1.00  0.00    -0.006 OA 
HETATM   10  C   UNL     1     -10.054  14.470  69.044  1.00  0.00    -0.187 A  
HETATM   11  O   UNL     1      -7.748  14.614  68.479  1.00  0.00    -0.113 OA 
BRANCH   6  12
HETATM   12  C   UNL     1     -11.921  12.246  66.543  1.00  0.00    -0.197 C  
BRANCH  12  13
HETATM   13  N   UNL     1     -10.795  11.519  65.929  1.00  0.00    -0.275 N  
HETATM   14  O   UNL     1      -9.094   9.958  66.089  1.00  0.00    -0.148 OA 
HETATM   15  C   UNL     1     -10.130  10.442  66.563  1.00  0.00    -0.228 C  
BRANCH  13  16
HETATM   16  C   UNL     1     -10.136  12.147  64.754  1.00  0.00    -0.251 C  
HETATM   17  C   UNL     1     -10.600  11.586  63.397  1.00  0.00    -0.460 C  
BRANCH  16  18
HETATM   18  C   UNL     1     -10.357  13.646  64.734  1.00  0.00    -0.392 A  
HETATM   19  C   UNL     1     -11.541  15.525  64.678  1.00  0.00    -0.281 A  
HETATM   20  C   UNL     1     -10.349  15.722  65.342  1.00  0.00    -0.389 A  
HETATM   21  N   UNL     1      -9.610  14.561  65.324  1.00  0.00    -0.480 NA 
HETATM   22  H   UNL     1      -8.669  14.432  65.694  1.00  0.00     0.000 HD 
HETATM   23  N   UNL     1     -11.520  14.214  64.270  1.00  0.00    -0.319 NA 
BRANCH  20  24
HETATM   24  C   UNL     1      -9.922  16.910  66.069  1.00  0.00    -0.313 A  
HETATM   25  C   UNL     1     -10.539  18.889  67.359  1.00  0.00    -0.534 A  
HETATM   26  C   UNL     1      -9.212  19.306  67.377  1.00  0.00    -0.356 A  
HETATM   27  C   UNL     1      -8.234  18.524  66.761  1.00  0.00    -0.268 A  
HETATM   28  C   UNL     1     -10.889  17.701  66.712  1.00  0.00    -0.002 A  
HETATM   29  C   UNL     1      -8.585  17.330  66.114  1.00  0.00    -0.207 A  
ENDBRANCH  20  24
ENDBRANCH  16  18
ENDBRANCH  13  16
BRANCH  15  30
HETATM   30  C   UNL     1     -10.768   9.854  67.877  1.00  0.00    -0.265 C  
HETATM   31  H2  UNL     1      -9.830   7.993  67.650  1.00  0.00     0.000 HD 
HETATM   32  N   UNL     1     -10.763   8.366  67.822  1.00  0.00    -0.465 NA 
HETATM   33  H1  UNL     1     -11.177   7.985  68.673  1.00  0.00     0.000 HD 
BRANCH  30  34
HETATM   34  C   UNL     1     -10.063  10.228  69.200  1.00  0.00    -0.232 C  
BRANCH  34  35
HETATM   35  C   UNL     1     -10.049   9.228  70.341  1.00  0.00    -0.287 A  
HETATM   36  C   UNL     1     -12.332  10.117  71.147  1.00  0.00    -0.488 C  
HETATM   37  C   UNL     1      -8.980   7.466  71.656  1.00  0.00    -0.133 A  
HETATM   38  C   UNL     1      -7.620   8.452  69.855  1.00  0.00    -0.076 C  
HETATM   39  C   UNL     1     -11.148   9.185  71.240  1.00  0.00    -0.405 A  
HETATM   40  C   UNL     1      -8.927   8.403  70.604  1.00  0.00    -0.168 A  
HETATM   41  C   UNL     1     -10.095   7.367  72.482  1.00  0.00    -0.237 A  
HETATM   42  C   UNL     1     -11.164   8.242  72.280  1.00  0.00    -0.443 A  
BRANCH  41  43
HETATM   43  C   UNL     1     -10.200   6.400  73.610  1.00  0.00    -0.269 C  
HETATM   44  H2  UNL     1      -8.428   7.021  74.504  1.00  0.00     0.000 HD 
HETATM   45  H1  UNL     1      -9.292   5.718  75.336  1.00  0.00     0.000 HD 
HETATM   46  N   UNL     1      -9.220   6.381  74.564  1.00  0.00    -0.181 N  
HETATM   47  O   UNL     1     -11.143   5.620  73.703  1.00  0.00    -0.224 OA 
ENDBRANCH  41  43
ENDBRANCH  34  35
ENDBRANCH  30  34
ENDBRANCH  15  30
ENDBRANCH  12  13
ENDBRANCH   6  12
ENDBRANCH   2   3
TORSDOF 10
ENDMDL
MODEL       21
REMARK 921   NORMALIZED FREE ENERGY PREDICTED BY IDOCK:   -6.11 KCAL/MOL
REMARK 922        TOTAL FREE ENERGY PREDICTED BY IDOCK:  -12.56 KCAL/MOL
REMARK 923 INTER-LIGAND FREE ENERGY PREDICTED BY IDOCK:  -10.36 KCAL/MOL
REMARK 924 INTRA-LIGAND FREE ENERGY PREDICTED BY IDOCK:   -2.20 KCAL/MOL
REMARK 927      BINDING AFFINITY PREDICTED BY RF-SCORE:    0.00 PKD
ROOT
HETATM    1  C   UNL     1      -9.764  11.259  63.211  1.00  0.00    -0.382 C  
HETATM    2  O   UNL     1      -9.544  11.592  64.582  1.00  0.00    -0.216 OA 
ENDROOT
BRANCH   2   3
HETATM    3  C   UNL     1      -9.741  10.595  65.504  1.00  0.00    -0.237 A  
HETATM    4  C   UNL     1      -9.172   9.322  65.406  1.00  0.00    -0.284 A  
HETATM    5  C   UNL     1      -9.333   8.385  66.431  1.00  0.00    -0.274 A  
HETATM    6  C   UNL     1     -10.095   8.675  67.567  1.00  0.00    -0.277 A  
HETATM    7  C   UNL     1     -10.717   9.931  67.638  1.00  0.00    -0.339 A  
HETATM    8  C   UNL     1     -11.236  12.194  66.818  1.00  0.00    -0.322 C  
HETATM    9  O   UNL     1     -10.612  13.258  66.273  1.00  0.00    -0.283 OA 
HETATM   10  C   UNL     1     -10.537  10.893  66.625  1.00  0.00    -0.305 A  
HETATM   11  O   UNL     1     -12.259  12.293  67.479  1.00  0.00    -0.457 OA 
BRANCH   6  12
HETATM   12  C   UNL     1     -10.231   7.698  68.718  1.00  0.00    -0.199 C  
BRANCH  12  13
HETATM   13  N   UNL     1     -10.325   8.296  70.062  1.00  0.00    -0.207 N  
HETATM   14  O   UNL     1      -9.306   9.292  71.886  1.00  0.00    -0.299 OA 
HETATM   15  C   UNL     1      -9.238   8.940  70.701  1.00  0.00    -0.213 C  
BRANCH  13  16
HETATM   16  C   UNL     1     -11.498   7.922  70.895  1.00  0.00    -0.281 C  
HETATM   17  C   UNL     1     -11.132   7.279  72.245  1.00  0.00    -0.298 C  
BRANCH  16  18
HETATM   18  C   UNL     1     -12.377   9.123  71.178  1.00  0.00    -0.267 A  
HETATM   19  C   UNL     1     -13.785  10.379  72.351  1.00  0.00     0.239 A  
HETATM   20  C   UNL     1     -12.996  11.164  71.538  1.00  0.00    -0.437 A  
HETATM   21  N   UNL     1     -12.165  10.365  70.786  1.00  0.00    -0.328 NA 
HETATM   22  H   UNL     1     -11.513  10.674  70.065  1.00  0.00     0.000 HD 
HETATM   23  N   UNL     1     -13.406   9.085  72.090  1.00  0.00    -0.421 NA 
BRANCH  20  24
HETATM   24  C   UNL     1     -12.920  12.619  71.509  1.00  0.00    -0.380 A  
HETATM   25  C   UNL     1     -13.745  14.758  72.346  1.00  0.00    -0.576 A  
HETATM   26  C   UNL     1     -12.952  15.439  71.428  1.00  0.00    -0.532 A  
HETATM   27  C   UNL     1     -12.130  14.718  70.560  1.00  0.00    -0.378 A  
HETATM   28  C   UNL     1     -13.727  13.362  72.387  1.00  0.00    -0.698 A  
HETATM   29  C   UNL     1     -12.109  13.317  70.603  1.00  0.00    -0.361 A  
ENDBRANCH  20  24
ENDBRANCH  16  18
ENDBRANCH  13  16
BRANCH  15  30
HETATM   30  C   UNL     1      -7.947   9.229  69.847  1.00  0.00    -0.113 C  
HETATM   31  H2  UNL     1      -7.132  10.519  71.283  1.00  0.00     0.000 HD 
HETATM   32  N   UNL     1      -7.326  10.510  70.282  1.00  0.00    -0.455 NA 
HETATM   33  H1  UNL     1      -6.490  10.697  69.728  1.00  0.00     0.000 HD 
BRANCH  30  34
HETATM   34  C   UNL     1      -6.827   8.168  69.930  1.00  0.00    -0.044 C  
BRANCH  34  35
HETATM   35  C   UNL     1      -6.918   6.926  69.065  1.00  0.00    -0.082 A  
HETATM   36  C   UNL     1      -7.856   5.599  71.068  1.00  0.00    -0.105 C  
HETATM   37  C   UNL     1      -6.555   5.723  66.967  1.00  0.00    -0.056 A  
HETATM   38  C   UNL     1      -5.688   8.027  67.061  1.00  0.00    -0.037 C  
HETATM   39  C   UNL     1      -7.427   5.724  69.625  1.00  0.00    -0.075 A  
HETATM   40  C   UNL     1      -6.415   6.893  67.740  1.00  0.00    -0.050 A  
HETATM   41  C   UNL     1      -7.134   4.572  67.493  1.00  0.00    -0.065 A  
HETATM   42  C   UNL     1      -7.548   4.576  68.827  1.00  0.00    -0.064 A  
BRANCH  41  43
HETATM   43  C   UNL     1      -7.302   3.309  66.722  1.00  0.00    -0.074 C  
HETATM   44  H2  UNL     1      -7.032   4.225  64.875  1.00  0.00     0.000 HD 
HETATM   45  H1  UNL     1      -7.326   2.479  64.830  1.00  0.00     0.000 HD 
HETATM   46  N   UNL     1      -7.212   3.345  65.358  1.00  0.00    -0.065 N  
HETATM   47  O   UNL     1      -7.519   2.239  67.282  1.00  0.00    -0.059 OA 
ENDBRANCH  41  43
ENDBRANCH  34  35
ENDBRANCH  30  34
ENDBRANCH  15  30
ENDBRANCH  12  13
ENDBRANCH   6  12
ENDBRANCH   2   3
TORSDOF 10
ENDMDL
MODEL       22
REMARK 921   NORMALIZED FREE ENERGY PREDICTED BY IDOCK:   -6.11 KCAL/MOL
REMARK 922        TOTAL FREE ENERGY PREDICTED BY IDOCK:  -12.55 KCAL/MOL
REMARK 923 INTER-LIGAND FREE ENERGY PREDICTED BY IDOCK:  -10.29 KCAL/MOL
REMARK 924 INTRA-LIGAND FREE ENERGY PREDICTED BY IDOCK:   -2.26 KCAL/MOL
REMARK 927      BINDING AFFINITY PREDICTED BY RF-SCORE:    0.00 PKD
ROOT
HETATM    1  C   UNL     1      -9.421  10.655  62.828  1.00  0.00    -0.328 C  
HETATM    2  O   UNL     1      -9.096  11.074  64.154  1.00  0.00    -0.176 OA 
ENDROOT
BRANCH   2   3
HETATM    3  C   UNL     1      -9.455  10.234  65.178  1.00  0.00    -0.252 A  
HETATM    4  C   UNL     1      -8.921   8.955  65.357  1.00  0.00    -0.232 A  
HETATM    5  C   UNL     1      -9.257   8.189  66.478  1.00  0.00    -0.237 A  
HETATM    6  C   UNL     1     -10.162   8.659  67.433  1.00  0.00    -0.329 A  
HETATM    7  C   UNL     1     -10.746   9.919  67.222  1.00  0.00    -0.304 A  
HETATM    8  C   UNL     1     -11.068  12.034  66.003  1.00  0.00    -0.320 C  
HETATM    9  O   UNL     1     -10.337  12.993  65.400  1.00  0.00    -0.291 OA 
HETATM   10  C   UNL     1     -10.391  10.710  66.113  1.00  0.00    -0.291 A  
HETATM   11  O   UNL     1     -12.169  12.245  66.486  1.00  0.00    -0.588 OA 
BRANCH   6  12
HETATM   12  C   UNL     1     -10.492   7.874  68.687  1.00  0.00    -0.167 C  
BRANCH  12  13
HETATM   13  N   UNL     1     -10.729   8.672  69.903  1.00  0.00    -0.229 N  
HETATM   14  O   UNL     1      -9.918   9.712  71.806  1.00  0.00     0.064 OA 
HETATM   15  C   UNL     1      -9.685   9.181  70.712  1.00  0.00    -0.273 C  
BRANCH  13  16
HETATM   16  C   UNL     1     -12.104   8.662  70.470  1.00  0.00     0.130 C  
HETATM   17  C   UNL     1     -12.247   7.832  71.758  1.00  0.00    -0.338 C  
BRANCH  16  18
HETATM   18  C   UNL     1     -12.587  10.066  70.769  1.00  0.00    -0.285 A  
HETATM   19  C   UNL     1     -13.331  11.732  72.037  1.00  0.00    -0.312 A  
HETATM   20  C   UNL     1     -12.614  12.221  70.966  1.00  0.00    -0.257 A  
HETATM   21  N   UNL     1     -12.203  11.177  70.168  1.00  0.00    -0.329 NA 
HETATM   22  H   UNL     1     -11.700  11.249  69.284  1.00  0.00     0.000 HD 
HETATM   23  N   UNL     1     -13.334  10.368  71.883  1.00  0.00    -0.402 NA 
BRANCH  20  24
HETATM   24  C   UNL     1     -12.219  13.600  70.715  1.00  0.00    -0.424 A  
HETATM   25  C   UNL     1     -11.355  15.261  69.148  1.00  0.00    -0.307 A  
HETATM   26  C   UNL     1     -11.297  16.209  70.165  1.00  0.00    -0.347 A  
HETATM   27  C   UNL     1     -11.713  15.866  71.452  1.00  0.00    -0.530 A  
HETATM   28  C   UNL     1     -11.814  13.970  69.422  1.00  0.00    -0.381 A  
HETATM   29  C   UNL     1     -12.176  14.572  71.726  1.00  0.00    -0.385 A  
ENDBRANCH  20  24
ENDBRANCH  16  18
ENDBRANCH  13  16
BRANCH  15  30
HETATM   30  C   UNL     1      -8.213   9.084  70.161  1.00  0.00    -0.136 C  
HETATM   31  H2  UNL     1      -7.475  10.497  71.522  1.00  0.00     0.000 HD 
HETATM   32  N   UNL     1      -7.453  10.313  70.519  1.00  0.00    -0.442 NA 
HETATM   33  H1  UNL     1      -6.500  10.249  70.162  1.00  0.00     0.000 HD 
BRANCH  30  34
HETATM   34  C   UNL     1      -7.369   7.901  70.687  1.00  0.00    -0.061 C  
BRANCH  34  35
HETATM   35  C   UNL     1      -8.071   6.712  71.316  1.00  0.00    -0.112 A  
HETATM   36  C   UNL     1      -7.823   7.797  73.643  1.00  0.00    -0.198 C  
HETATM   37  C   UNL     1      -9.108   4.502  71.192  1.00  0.00    -0.183 A  
HETATM   38  C   UNL     1      -8.106   5.349  69.107  1.00  0.00    -0.094 C  
HETATM   39  C   UNL     1      -8.290   6.697  72.720  1.00  0.00    -0.120 A  
HETATM   40  C   UNL     1      -8.427   5.564  70.565  1.00  0.00    -0.123 A  
HETATM   41  C   UNL     1      -9.398   4.529  72.552  1.00  0.00    -0.160 A  
HETATM   42  C   UNL     1      -8.968   5.620  73.311  1.00  0.00    -0.127 A  
BRANCH  41  43
HETATM   43  C   UNL     1     -10.110   3.432  73.264  1.00  0.00    -0.136 C  
HETATM   44  H2  UNL     1     -11.869   4.518  73.491  1.00  0.00     0.000 HD 
HETATM   45  H1  UNL     1     -11.888   2.878  74.160  1.00  0.00     0.000 HD 
HETATM   46  N   UNL     1     -11.400   3.630  73.672  1.00  0.00    -0.191 N  
HETATM   47  O   UNL     1      -9.566   2.356  73.494  1.00  0.00    -0.085 OA 
ENDBRANCH  41  43
ENDBRANCH  34  35
ENDBRANCH  30  34
ENDBRANCH  15  30
ENDBRANCH  12  13
ENDBRANCH   6  12
ENDBRANCH   2   3
TORSDOF 10
ENDMDL
MODEL       23
REMARK 921   NORMALIZED FREE ENERGY PREDICTED BY IDOCK:   -6.01 KCAL/MOL
REMARK 922        TOTAL FREE ENERGY PREDICTED BY IDOCK:  -12.40 KCAL/MOL
REMARK 923 INTER-LIGAND FREE ENERGY PREDICTED BY IDOCK:   -9.71 KCAL/MOL
REMARK 924 INTRA-LIGAND FREE ENERGY PREDICTED BY IDOCK:   -2.69 KCAL/MOL
REMARK 927      BINDING AFFINITY PREDICTED BY RF-SCORE:    0.00 PKD
ROOT
HETATM    1  C   UNL     1      -8.453   8.931  63.046  1.00  0.00    -0.169 C  
HETATM    2  O   UNL     1      -8.002   8.376  64.283  1.00  0.00    -0.136 OA 
ENDROOT
BRANCH   2   3
HETATM    3  C   UNL     1      -8.417   9.001  65.432  1.00  0.00    -0.160 A  
HETATM    4  C   UNL     1      -9.674   8.805  66.013  1.00  0.00    -0.276 A  
HETATM    5  C   UNL     1      -9.996   9.396  67.239  1.00  0.00    -0.252 A  
HETATM    6  C   UNL     1      -9.091  10.228  67.903  1.00  0.00    -0.133 A  
HETATM    7  C   UNL     1      -7.852  10.474  67.291  1.00  0.00    -0.107 A  
HETATM    8  C   UNL     1      -6.159  10.188  65.526  1.00  0.00    -0.099 C  
HETATM    9  O   UNL     1      -5.590   9.206  64.798  1.00  0.00    -0.059 OA 
HETATM   10  C   UNL     1      -7.506   9.860  66.072  1.00  0.00    -0.106 A  
HETATM   11  O   UNL     1      -5.590  11.239  65.781  1.00  0.00    -0.183 OA 
BRANCH   6  12
HETATM   12  C   UNL     1      -9.395  10.828  69.262  1.00  0.00    -0.067 C  
BRANCH  12  13
HETATM   13  N   UNL     1     -10.323  10.060  70.112  1.00  0.00    -0.274 N  
HETATM   14  O   UNL     1     -10.793   8.172  71.367  1.00  0.00    -0.225 OA 
HETATM   15  C   UNL     1      -9.951   8.874  70.790  1.00  0.00    -0.226 C  
BRANCH  13  16
HETATM   16  C   UNL     1     -11.772  10.364  69.989  1.00  0.00    -0.286 C  
HETATM   17  C   UNL     1     -12.555  10.249  71.310  1.00  0.00    -0.522 C  
BRANCH  16  18
HETATM   18  C   UNL     1     -11.998  11.757  69.438  1.00  0.00    -0.298 A  
HETATM   19  C   UNL     1     -11.897  13.977  69.420  1.00  0.00    -0.333 A  
HETATM   20  C   UNL     1     -11.902  13.481  68.134  1.00  0.00    -0.365 A  
HETATM   21  N   UNL     1     -12.014  12.109  68.166  1.00  0.00    -0.462 NA 
HETATM   22  H   UNL     1     -12.093  11.486  67.362  1.00  0.00     0.000 HD 
HETATM   23  N   UNL     1     -11.991  12.876  70.237  1.00  0.00    -0.327 NA 
BRANCH  20  24
HETATM   24  C   UNL     1     -11.710  14.222  66.894  1.00  0.00    -0.430 A  
HETATM   25  C   UNL     1     -12.273  14.504  64.536  1.00  0.00    -0.483 A  
HETATM   26  C   UNL     1     -11.308  15.499  64.411  1.00  0.00    -0.260 A  
HETATM   27  C   UNL     1     -10.553  15.871  65.525  1.00  0.00    -0.419 A  
HETATM   28  C   UNL     1     -12.473  13.874  65.767  1.00  0.00    -0.530 A  
HETATM   29  C   UNL     1     -10.756  15.241  66.761  1.00  0.00    -0.313 A  
ENDBRANCH  20  24
ENDBRANCH  16  18
ENDBRANCH  13  16
BRANCH  15  30
HETATM   30  C   UNL     1      -8.424   8.490  70.819  1.00  0.00    -0.149 C  
HETATM   31  H2  UNL     1      -8.362   8.377  72.911  1.00  0.00     0.000 HD 
HETATM   32  N   UNL     1      -7.844   8.815  72.150  1.00  0.00    -0.355 NA 
HETATM   33  H1  UNL     1      -6.855   8.566  72.169  1.00  0.00     0.000 HD 
BRANCH  30  34
HETATM   34  C   UNL     1      -8.095   7.001  70.569  1.00  0.00    -0.114 C  
BRANCH  34  35
HETATM   35  C   UNL     1      -8.333   6.410  69.192  1.00  0.00    -0.122 A  
HETATM   36  C   UNL     1     -10.431   5.198  70.074  1.00  0.00    -0.305 C  
HETATM   37  C   UNL     1      -7.696   6.042  66.860  1.00  0.00    -0.100 A  
HETATM   38  C   UNL     1      -6.084   7.293  68.241  1.00  0.00    -0.031 C  
HETATM   39  C   UNL     1      -9.460   5.572  68.980  1.00  0.00    -0.167 A  
HETATM   40  C   UNL     1      -7.410   6.583  68.130  1.00  0.00    -0.090 A  
HETATM   41  C   UNL     1      -8.847   5.293  66.635  1.00  0.00    -0.113 A  
HETATM   42  C   UNL     1      -9.711   5.047  67.703  1.00  0.00    -0.188 A  
BRANCH  41  43
HETATM   43  C   UNL     1      -9.193   4.695  65.315  1.00  0.00    -0.156 C  
HETATM   44  H2  UNL     1      -7.707   5.726  64.289  1.00  0.00     0.000 HD 
HETATM   45  H1  UNL     1      -8.710   4.646  63.307  1.00  0.00     0.000 HD 
HETATM   46  N   UNL     1      -8.472   5.056  64.211  1.00  0.00    -0.136 N  
HETATM   47  O   UNL     1     -10.110   3.888  65.196  1.00  0.00    -0.187 OA 
ENDBRANCH  41  43
ENDBRANCH  34  35
ENDBRANCH  30  34
ENDBRANCH  15  30
ENDBRANCH  12  13
ENDBRANCH   6  12
ENDBRANCH   2   3
TORSDOF 10
ENDMDL
MODEL       24
REMARK 921   NORMALIZED FREE ENERGY PREDICTED BY IDOCK:   -6.01 KCAL/MOL
REMARK 922        TOTAL FREE ENERGY PREDICTED BY IDOCK:  -12.40 KCAL/MOL
REMARK 923 INTER-LIGAND FREE ENERGY PREDICTED BY IDOCK:   -9.46 KCAL/MOL
REMARK 924 INTRA-LIGAND FREE ENERGY PREDICTED BY IDOCK:   -2.94 KCAL/MOL
REMARK 927      BINDING AFFINITY PREDICTED BY RF-SCORE:    0.00 PKD
ROOT
HETATM    1  C   UNL     1      -7.340   6.107  68.092  1.00  0.00    -0.085 C  
HETATM    2  O   UNL     1      -7.238   7.531  68.149  1.00  0.00    -0.085 OA 
ENDROOT
BRANCH   2   3
HETATM    3  C   UNL     1      -8.414   8.237  68.202  1.00  0.00    -0.132 A  
HETATM    4  C   UNL     1      -9.523   7.960  67.398  1.00  0.00    -0.179 A  
HETATM    5  C   UNL     1     -10.724   8.654  67.571  1.00  0.00    -0.209 A  
HETATM    6  C   UNL     1     -10.845   9.669  68.525  1.00  0.00    -0.202 A  
HETATM    7  C   UNL     1      -9.712   9.989  69.291  1.00  0.00    -0.227 A  
HETATM    8  C   UNL     1      -7.379   9.699  70.022  1.00  0.00    -0.130 C  
HETATM    9  O   UNL     1      -6.522   8.712  70.355  1.00  0.00    -0.034 OA 
HETATM   10  C   UNL     1      -8.507   9.276  69.145  1.00  0.00    -0.133 A  
HETATM   11  O   UNL     1      -7.283  10.835  70.458  1.00  0.00    -0.064 OA 
BRANCH   6  12
HETATM   12  C   UNL     1     -12.154  10.391  68.774  1.00  0.00     0.387 C  
BRANCH  12  13
HETATM   13  N   UNL     1     -12.072  11.606  69.604  1.00  0.00    -0.299 N  
HETATM   14  O   UNL     1     -11.508  13.839  69.833  1.00  0.00    -0.237 OA 
HETATM   15  C   UNL     1     -11.719  12.876  69.086  1.00  0.00    -0.324 C  
BRANCH  13  16
HETATM   16  C   UNL     1     -12.042  11.425  71.079  1.00  0.00    -0.198 C  
HETATM   17  C   UNL     1     -13.050  12.306  71.841  1.00  0.00    -0.469 C  
BRANCH  16  18
HETATM   18  C   UNL     1     -12.305   9.984  71.463  1.00  0.00    -0.419 A  
HETATM   19  C   UNL     1     -13.383   8.041  71.450  1.00  0.00    -0.224 A  
HETATM   20  C   UNL     1     -12.041   7.849  71.696  1.00  0.00    -0.299 A  
HETATM   21  N   UNL     1     -11.400   9.066  71.748  1.00  0.00    -0.357 NA 
HETATM   22  H   UNL     1     -10.416   9.228  71.965  1.00  0.00     0.000 HD 
HETATM   23  N   UNL     1     -13.544   9.400  71.336  1.00  0.00    -0.349 NA 
BRANCH  20  24
HETATM   24  C   UNL     1     -11.325   6.584  71.786  1.00  0.00    -0.325 A  
HETATM   25  C   UNL     1     -10.158   4.772  70.639  1.00  0.00    -0.288 A  
HETATM   26  C   UNL     1     -10.051   4.067  71.834  1.00  0.00    -0.214 A  
HETATM   27  C   UNL     1     -10.562   4.620  73.009  1.00  0.00    -0.278 A  
HETATM   28  C   UNL     1     -10.788   6.019  70.618  1.00  0.00    -0.364 A  
HETATM   29  C   UNL     1     -11.191   5.873  72.988  1.00  0.00    -0.258 A  
ENDBRANCH  20  24
ENDBRANCH  16  18
ENDBRANCH  13  16
BRANCH  15  30
HETATM   30  C   UNL     1     -11.635  13.035  67.521  1.00  0.00    -0.356 C  
HETATM   31  H2  UNL     1     -12.002  15.098  67.585  1.00  0.00     0.000 HD 
HETATM   32  N   UNL     1     -12.347  14.272  67.098  1.00  0.00    -0.586 NA 
HETATM   33  H1  UNL     1     -12.293  14.375  66.084  1.00  0.00     0.000 HD 
BRANCH  30  34
HETATM   34  C   UNL     1     -10.213  13.144  66.926  1.00  0.00    -0.245 C  
BRANCH  34  35
HETATM   35  C   UNL     1      -9.685  12.016  66.060  1.00  0.00    -0.256 A  
HETATM   36  C   UNL     1      -7.396  12.184  67.238  1.00  0.00    -0.149 C  
HETATM   37  C   UNL     1      -9.920  10.391  64.248  1.00  0.00    -0.368 A  
HETATM   38  C   UNL     1     -11.807  11.944  64.565  1.00  0.00    -0.305 C  
HETATM   39  C   UNL     1      -8.349  11.568  66.241  1.00  0.00    -0.076 A  
HETATM   40  C   UNL     1     -10.446  11.461  65.001  1.00  0.00    -0.361 A  
HETATM   41  C   UNL     1      -8.642   9.897  64.487  1.00  0.00    -0.198 A  
HETATM   42  C   UNL     1      -7.857  10.503  65.470  1.00  0.00    -0.138 A  
BRANCH  41  43
HETATM   43  C   UNL     1      -8.037   8.773  63.718  1.00  0.00    -0.165 C  
HETATM   44  H2  UNL     1      -8.694   9.483  61.877  1.00  0.00     0.000 HD 
HETATM   45  H1  UNL     1      -7.766   7.975  61.832  1.00  0.00     0.000 HD 
HETATM   46  N   UNL     1      -8.180   8.745  62.358  1.00  0.00    -0.165 N  
HETATM   47  O   UNL     1      -7.417   7.874  64.276  1.00  0.00    -0.089 OA 
ENDBRANCH  41  43
ENDBRANCH  34  35
ENDBRANCH  30  34
ENDBRANCH  15  30
ENDBRANCH  12  13
ENDBRANCH   6  12
ENDBRANCH   2   3
TORSDOF 10
ENDMDL
MODEL       25
REMARK 921   NORMALIZED FREE ENERGY PREDICTED BY IDOCK:   -5.99 KCAL/MOL
REMARK 922        TOTAL FREE ENERGY PREDICTED BY IDOCK:  -12.36 KCAL/MOL
REMARK 923 INTER-LIGAND FREE ENERGY PREDICTED BY IDOCK:  -10.53 KCAL/MOL
REMARK 924 INTRA-LIGAND FREE ENERGY PREDICTED BY IDOCK:   -1.83 KCAL/MOL
REMARK 927      BINDING AFFINITY PREDICTED BY RF-SCORE:    0.00 PKD
ROOT
HETATM    1  C   UNL     1     -12.209  14.215  64.144  1.00  0.00    -0.390 C  
HETATM    2  O   UNL     1     -12.149  13.406  65.319  1.00  0.00    -0.367 OA 
ENDROOT
BRANCH   2   3
HETATM    3  C   UNL     1     -11.395  12.261  65.249  1.00  0.00    -0.338 A  
HETATM    4  C   UNL     1     -10.776  11.809  64.080  1.00  0.00    -0.410 A  
HETATM    5  C   UNL     1      -9.940  10.688  64.100  1.00  0.00    -0.406 A  
HETATM    6  C   UNL     1      -9.726   9.963  65.276  1.00  0.00    -0.383 A  
HETATM    7  C   UNL     1     -10.397  10.381  66.437  1.00  0.00    -0.278 A  
HETATM    8  C   UNL     1     -11.864  11.877  67.729  1.00  0.00    -0.219 C  
HETATM    9  O   UNL     1     -12.082  13.195  67.913  1.00  0.00    -0.321 OA 
HETATM   10  C   UNL     1     -11.216  11.526  66.434  1.00  0.00    -0.307 A  
HETATM   11  O   UNL     1     -12.111  11.039  68.583  1.00  0.00    -0.551 OA 
BRANCH   6  12
HETATM   12  C   UNL     1      -8.775   8.784  65.335  1.00  0.00    -0.183 C  
BRANCH  12  13
HETATM   13  N   UNL     1      -7.562   8.975  66.149  1.00  0.00    -0.094 N  
HETATM   14  O   UNL     1      -6.444   8.743  68.163  1.00  0.00    -0.058 OA 
HETATM   15  C   UNL     1      -7.407   8.435  67.449  1.00  0.00    -0.089 C  
BRANCH  13  16
HETATM   16  C   UNL     1      -6.612  10.036  65.721  1.00  0.00    -0.101 C  
HETATM   17  C   UNL     1      -6.738  10.432  64.239  1.00  0.00     0.003 C  
BRANCH  16  18
HETATM   18  C   UNL     1      -6.779  11.293  66.551  1.00  0.00    -0.105 A  
HETATM   19  C   UNL     1      -6.193  13.261  67.399  1.00  0.00     0.006 A  
HETATM   20  C   UNL     1      -7.563  13.173  67.278  1.00  0.00    -0.080 A  
HETATM   21  N   UNL     1      -7.908  11.931  66.797  1.00  0.00    -0.321 NA 
HETATM   22  H   UNL     1      -8.853  11.573  66.657  1.00  0.00     0.000 HD 
HETATM   23  N   UNL     1      -5.710  12.051  66.965  1.00  0.00    -0.202 NA 
BRANCH  20  24
HETATM   24  C   UNL     1      -8.545  14.227  67.499  1.00  0.00    -0.203 A  
HETATM   25  C   UNL     1     -10.035  15.909  66.546  1.00  0.00    -0.286 A  
HETATM   26  C   UNL     1     -10.345  16.375  67.820  1.00  0.00    -0.287 A  
HETATM   27  C   UNL     1      -9.774  15.762  68.936  1.00  0.00    -0.225 A  
HETATM   28  C   UNL     1      -9.145  14.844  66.389  1.00  0.00    -0.293 A  
HETATM   29  C   UNL     1      -8.883  14.691  68.778  1.00  0.00    -0.166 A  
ENDBRANCH  20  24
ENDBRANCH  16  18
ENDBRANCH  13  16
BRANCH  15  30
HETATM   30  C   UNL     1      -8.482   7.398  67.947  1.00  0.00    -0.122 C  
HETATM   31  H2  UNL     1      -7.221   5.752  67.639  1.00  0.00     0.000 HD 
HETATM   32  N   UNL     1      -8.171   6.045  67.410  1.00  0.00    -0.106 NA 
HETATM   33  H1  UNL     1      -8.867   5.373  67.733  1.00  0.00     0.000 HD 
BRANCH  30  34
HETATM   34  C   UNL     1      -8.598   7.225  69.478  1.00  0.00    -0.134 C  
BRANCH  34  35
HETATM   35  C   UNL     1      -9.799   7.807  70.200  1.00  0.00    -0.184 A  
HETATM   36  C   UNL     1      -8.788  10.170  69.978  1.00  0.00    -0.008 C  
HETATM   37  C   UNL     1     -11.917   7.580  71.399  1.00  0.00    -0.336 A  
HETATM   38  C   UNL     1     -10.784   5.479  70.791  1.00  0.00    -0.294 C  
HETATM   39  C   UNL     1      -9.872   9.211  70.408  1.00  0.00    -0.263 A  
HETATM   40  C   UNL     1     -10.805   6.987  70.769  1.00  0.00    -0.272 A  
HETATM   41  C   UNL     1     -12.028   8.961  71.524  1.00  0.00    -0.401 A  
HETATM   42  C   UNL     1     -10.992   9.766  71.044  1.00  0.00    -0.402 A  
BRANCH  41  43
HETATM   43  C   UNL     1     -13.178   9.638  72.185  1.00  0.00    -0.444 C  
HETATM   44  H2  UNL     1     -12.528  11.552  71.694  1.00  0.00     0.000 HD 
HETATM   45  H1  UNL     1     -14.040  11.466  72.613  1.00  0.00     0.000 HD 
HETATM   46  N   UNL     1     -13.252  11.003  72.160  1.00  0.00    -0.390 N  
HETATM   47  O   UNL     1     -14.059   9.000  72.753  1.00  0.00    -0.524 OA 
ENDBRANCH  41  43
ENDBRANCH  34  35
ENDBRANCH  30  34
ENDBRANCH  15  30
ENDBRANCH  12  13
ENDBRANCH   6  12
ENDBRANCH   2   3
TORSDOF 10
ENDMDL
MODEL       26
REMARK 921   NORMALIZED FREE ENERGY PREDICTED BY IDOCK:   -5.98 KCAL/MOL
REMARK 922        TOTAL FREE ENERGY PREDICTED BY IDOCK:  -12.35 KCAL/MOL
REMARK 923 INTER-LIGAND FREE ENERGY PREDICTED BY IDOCK:  -11.22 KCAL/MOL
REMARK 924 INTRA-LIGAND FREE ENERGY PREDICTED BY IDOCK:   -1.13 KCAL/MOL
REMARK 927      BINDING AFFINITY PREDICTED BY RF-SCORE:    0.00 PKD
ROOT
HETATM    1  C   UNL     1     -14.030  13.270  72.442  1.00  0.00    -0.456 C  
HETATM    2  O   UNL     1     -12.704  13.538  71.982  1.00  0.00    -0.256 OA 
ENDROOT
BRANCH   2   3
HETATM    3  C   UNL     1     -12.363  13.047  70.747  1.00  0.00    -0.310 A  
HETATM    4  C   UNL     1     -12.158  11.691  70.479  1.00  0.00    -0.458 A  
HETATM    5  C   UNL     1     -11.910  11.247  69.177  1.00  0.00    -0.423 A  
HETATM    6  C   UNL     1     -11.821  12.144  68.109  1.00  0.00    -0.362 A  
HETATM    7  C   UNL     1     -11.965  13.513  68.387  1.00  0.00    -0.378 A  
HETATM    8  C   UNL     1     -12.390  15.441  69.859  1.00  0.00    -0.293 C  
HETATM    9  O   UNL     1     -13.233  15.817  70.841  1.00  0.00    -0.560 OA 
HETATM   10  C   UNL     1     -12.246  13.967  69.690  1.00  0.00    -0.383 A  
HETATM   11  O   UNL     1     -11.839  16.239  69.116  1.00  0.00    -0.249 OA 
BRANCH   6  12
HETATM   12  C   UNL     1     -11.616  11.681  66.680  1.00  0.00    -0.115 C  
BRANCH  12  13
HETATM   13  N   UNL     1     -10.218  11.625  66.215  1.00  0.00    -0.220 N  
HETATM   14  O   UNL     1      -8.084  10.746  66.390  1.00  0.00    -0.141 OA 
HETATM   15  C   UNL     1      -9.285  10.668  66.682  1.00  0.00    -0.164 C  
BRANCH  13  16
HETATM   16  C   UNL     1      -9.694  12.808  65.484  1.00  0.00    -0.076 C  
HETATM   17  C   UNL     1     -10.638  13.342  64.392  1.00  0.00    -0.423 C  
BRANCH  16  18
HETATM   18  C   UNL     1      -9.390  13.951  66.431  1.00  0.00    -0.205 A  
HETATM   19  C   UNL     1      -8.113  15.258  67.694  1.00  0.00    -0.158 A  
HETATM   20  C   UNL     1      -9.205  15.955  67.224  1.00  0.00    -0.206 A  
HETATM   21  N   UNL     1     -10.007  15.116  66.484  1.00  0.00    -0.255 NA 
HETATM   22  H   UNL     1     -10.905  15.350  66.059  1.00  0.00     0.000 HD 
HETATM   23  N   UNL     1      -8.258  13.981  67.212  1.00  0.00    -0.186 NA 
BRANCH  20  24
HETATM   24  C   UNL     1      -9.474  17.381  67.354  1.00  0.00    -0.246 A  
HETATM   25  C   UNL     1      -9.152  19.448  68.613  1.00  0.00    -0.423 A  
HETATM   26  C   UNL     1     -10.046  20.111  67.777  1.00  0.00    -0.540 A  
HETATM   27  C   UNL     1     -10.643  19.422  66.721  1.00  0.00    -0.574 A  
HETATM   28  C   UNL     1      -8.868  18.097  68.400  1.00  0.00    -0.305 A  
HETATM   29  C   UNL     1     -10.356  18.066  66.506  1.00  0.00    -0.376 A  
ENDBRANCH  20  24
ENDBRANCH  16  18
ENDBRANCH  13  16
BRANCH  15  30
HETATM   30  C   UNL     1      -9.826   9.477  67.558  1.00  0.00    -0.167 C  
HETATM   31  H2  UNL     1      -9.577   8.070  66.024  1.00  0.00     0.000 HD 
HETATM   32  N   UNL     1     -10.298   8.373  66.678  1.00  0.00    -0.358 NA 
HETATM   33  H1  UNL     1     -10.649   7.601  67.246  1.00  0.00     0.000 HD 
BRANCH  30  34
HETATM   34  C   UNL     1      -8.812   8.835  68.530  1.00  0.00    -0.138 C  
BRANCH  34  35
HETATM   35  C   UNL     1      -9.041   7.414  69.009  1.00  0.00    -0.133 A  
HETATM   36  C   UNL     1      -7.298   6.560  67.310  1.00  0.00    -0.087 C  
HETATM   37  C   UNL     1     -10.199   5.759  70.387  1.00  0.00    -0.288 A  
HETATM   38  C   UNL     1     -11.040   8.070  70.530  1.00  0.00    -0.251 C  
HETATM   39  C   UNL     1      -8.296   6.355  68.425  1.00  0.00    -0.116 A  
HETATM   40  C   UNL     1     -10.051   7.091  69.950  1.00  0.00    -0.202 A  
HETATM   41  C   UNL     1      -9.407   4.736  69.875  1.00  0.00    -0.207 A  
HETATM   42  C   UNL     1      -8.473   5.040  68.882  1.00  0.00    -0.088 A  
BRANCH  41  43
HETATM   43  C   UNL     1      -9.527   3.313  70.298  1.00  0.00    -0.164 C  
HETATM   44  H2  UNL     1      -8.890   2.559  68.467  1.00  0.00     0.000 HD 
HETATM   45  H1  UNL     1      -9.289   1.350  69.699  1.00  0.00     0.000 HD 
HETATM   46  N   UNL     1      -9.207   2.325  69.409  1.00  0.00    -0.119 N  
HETATM   47  O   UNL     1      -9.906   3.007  71.424  1.00  0.00    -0.163 OA 
ENDBRANCH  41  43
ENDBRANCH  34  35
ENDBRANCH  30  34
ENDBRANCH  15  30
ENDBRANCH  12  13
ENDBRANCH   6  12
ENDBRANCH   2   3
TORSDOF 10
ENDMDL
MODEL       27
REMARK 921   NORMALIZED FREE ENERGY PREDICTED BY IDOCK:   -5.94 KCAL/MOL
REMARK 922        TOTAL FREE ENERGY PREDICTED BY IDOCK:  -12.29 KCAL/MOL
REMARK 923 INTER-LIGAND FREE ENERGY PREDICTED BY IDOCK:  -11.71 KCAL/MOL
REMARK 924 INTRA-LIGAND FREE ENERGY PREDICTED BY IDOCK:   -0.58 KCAL/MOL
REMARK 927      BINDING AFFINITY PREDICTED BY RF-SCORE:    0.00 PKD
ROOT
HETATM    1  C   UNL     1     -13.390  14.224  72.699  1.00  0.00    -0.525 C  
HETATM    2  O   UNL     1     -13.055  12.909  72.252  1.00  0.00    -0.402 OA 
ENDROOT
BRANCH   2   3
HETATM    3  C   UNL     1     -12.575  12.790  70.972  1.00  0.00    -0.271 A  
HETATM    4  C   UNL     1     -12.115  13.868  70.211  1.00  0.00    -0.423 A  
HETATM    5  C   UNL     1     -11.547  13.665  68.950  1.00  0.00    -0.362 A  
HETATM    6  C   UNL     1     -11.455  12.385  68.394  1.00  0.00    -0.356 A  
HETATM    7  C   UNL     1     -11.973  11.309  69.131  1.00  0.00    -0.405 A  
HETATM    8  C   UNL     1     -13.026  10.280  71.105  1.00  0.00    -0.409 C  
HETATM    9  O   UNL     1     -12.941  10.316  72.450  1.00  0.00    -0.295 OA 
HETATM   10  C   UNL     1     -12.520  11.500  70.415  1.00  0.00    -0.324 A  
HETATM   11  O   UNL     1     -13.420   9.300  70.492  1.00  0.00     0.245 OA 
BRANCH   6  12
HETATM   12  C   UNL     1     -10.786  12.133  67.057  1.00  0.00    -0.238 C  
BRANCH  12  13
HETATM   13  N   UNL     1      -9.314  12.065  67.076  1.00  0.00    -0.186 N  
HETATM   14  O   UNL     1      -7.367  10.813  67.132  1.00  0.00    -0.093 OA 
HETATM   15  C   UNL     1      -8.592  10.853  66.957  1.00  0.00    -0.136 C  
BRANCH  13  16
HETATM   16  C   UNL     1      -8.581  13.265  67.560  1.00  0.00    -0.200 C  
HETATM   17  C   UNL     1      -7.048  13.147  67.462  1.00  0.00    -0.156 C  
BRANCH  16  18
HETATM   18  C   UNL     1      -8.998  14.508  66.802  1.00  0.00    -0.246 A  
HETATM   19  C   UNL     1     -10.312  15.766  65.527  1.00  0.00    -0.404 A  
HETATM   20  C   UNL     1      -9.573  16.552  66.385  1.00  0.00    -0.285 A  
HETATM   21  N   UNL     1      -8.731  15.759  67.132  1.00  0.00    -0.192 NA 
HETATM   22  H   UNL     1      -8.037  16.075  67.808  1.00  0.00     0.000 HD 
HETATM   23  N   UNL     1      -9.915  14.476  65.778  1.00  0.00    -0.325 NA 
BRANCH  20  24
HETATM   24  C   UNL     1      -9.692  17.988  66.602  1.00  0.00    -0.332 A  
HETATM   25  C   UNL     1      -8.633  20.187  66.569  1.00  0.00    -0.327 A  
HETATM   26  C   UNL     1      -9.773  20.759  67.125  1.00  0.00    -0.457 A  
HETATM   27  C   UNL     1     -10.880  19.956  67.406  1.00  0.00    -0.365 A  
HETATM   28  C   UNL     1      -8.595  18.815  66.309  1.00  0.00    -0.247 A  
HETATM   29  C   UNL     1     -10.843  18.579  67.142  1.00  0.00    -0.304 A  
ENDBRANCH  20  24
ENDBRANCH  16  18
ENDBRANCH  13  16
BRANCH  15  30
HETATM   30  C   UNL     1      -9.392   9.556  66.558  1.00  0.00    -0.171 C  
HETATM   31  H2  UNL     1      -8.290   9.264  64.800  1.00  0.00     0.000 HD 
HETATM   32  N   UNL     1      -9.265   9.310  65.096  1.00  0.00    -0.360 NA 
HETATM   33  H1  UNL     1      -9.783   8.470  64.838  1.00  0.00     0.000 HD 
BRANCH  30  34
HETATM   34  C   UNL     1      -8.946   8.247  67.246  1.00  0.00    -0.149 C  
BRANCH  34  35
HETATM   35  C   UNL     1      -9.671   7.782  68.496  1.00  0.00    -0.165 A  
HETATM   36  C   UNL     1     -11.005   6.081  67.089  1.00  0.00    -0.360 C  
HETATM   37  C   UNL     1     -10.170   7.930  70.884  1.00  0.00    -0.213 A  
HETATM   38  C   UNL     1      -8.655   9.651  69.984  1.00  0.00    -0.237 C  
HETATM   39  C   UNL     1     -10.631   6.739  68.395  1.00  0.00    -0.270 A  
HETATM   40  C   UNL     1      -9.499   8.424  69.748  1.00  0.00    -0.162 A  
HETATM   41  C   UNL     1     -11.045   6.851  70.797  1.00  0.00    -0.317 A  
HETATM   42  C   UNL     1     -11.284   6.276  69.548  1.00  0.00    -0.500 A  
BRANCH  41  43
HETATM   43  C   UNL     1     -11.783   6.295  71.966  1.00  0.00    -0.322 C  
HETATM   44  H2  UNL     1     -10.154   5.209  72.668  1.00  0.00     0.000 HD 
HETATM   45  H1  UNL     1     -11.638   5.072  73.624  1.00  0.00     0.000 HD 
HETATM   46  N   UNL     1     -11.132   5.453  72.825  1.00  0.00    -0.276 N  
HETATM   47  O   UNL     1     -12.960   6.573  72.174  1.00  0.00    -0.187 OA 
ENDBRANCH  41  43
ENDBRANCH  34  35
ENDBRANCH  30  34
ENDBRANCH  15  30
ENDBRANCH  12  13
ENDBRANCH   6  12
ENDBRANCH   2   3
TORSDOF 10
ENDMDL
MODEL       28
REMARK 921   NORMALIZED FREE ENERGY PREDICTED BY IDOCK:   -5.94 KCAL/MOL
REMARK 922        TOTAL FREE ENERGY PREDICTED BY IDOCK:  -12.29 KCAL/MOL
REMARK 923 INTER-LIGAND FREE ENERGY PREDICTED BY IDOCK:  -11.47 KCAL/MOL
REMARK 924 INTRA-LIGAND FREE ENERGY PREDICTED BY IDOCK:   -0.81 KCAL/MOL
REMARK 927      BINDING AFFINITY PREDICTED BY RF-SCORE:    0.00 PKD
ROOT
HETATM    1  C   UNL     1     -12.664  14.491  73.557  1.00  0.00    -0.204 C  
HETATM    2  O   UNL     1     -13.576  13.786  72.713  1.00  0.00    -0.666 OA 
ENDROOT
BRANCH   2   3
HETATM    3  C   UNL     1     -13.047  13.153  71.617  1.00  0.00    -0.353 A  
HETATM    4  C   UNL     1     -12.842  11.772  71.541  1.00  0.00    -0.450 A  
HETATM    5  C   UNL     1     -12.392  11.179  70.357  1.00  0.00    -0.430 A  
HETATM    6  C   UNL     1     -12.097  11.947  69.227  1.00  0.00    -0.270 A  
HETATM    7  C   UNL     1     -12.244  13.340  69.322  1.00  0.00    -0.194 A  
HETATM    8  C   UNL     1     -12.852  15.429  70.476  1.00  0.00    -0.376 C  
HETATM    9  O   UNL     1     -13.837  15.925  71.252  1.00  0.00    -0.423 OA 
HETATM   10  C   UNL     1     -12.726  13.944  70.500  1.00  0.00    -0.318 A  
HETATM   11  O   UNL     1     -12.160  16.131  69.754  1.00  0.00    -0.206 OA 
BRANCH   6  12
HETATM   12  C   UNL     1     -11.669  11.320  67.915  1.00  0.00    -0.214 C  
BRANCH  12  13
HETATM   13  N   UNL     1     -10.217  11.152  67.725  1.00  0.00    -0.176 N  
HETATM   14  O   UNL     1      -8.191  10.293  68.442  1.00  0.00    -0.108 OA 
HETATM   15  C   UNL     1      -9.426  10.293  68.526  1.00  0.00    -0.158 C  
BRANCH  13  16
HETATM   16  C   UNL     1      -9.517  12.158  66.884  1.00  0.00    -0.210 C  
HETATM   17  C   UNL     1     -10.153  12.372  65.498  1.00  0.00    -0.287 C  
BRANCH  16  18
HETATM   18  C   UNL     1      -9.451  13.504  67.575  1.00  0.00    -0.222 A  
HETATM   19  C   UNL     1      -8.567  15.091  68.853  1.00  0.00    -0.189 A  
HETATM   20  C   UNL     1      -9.368  15.645  67.878  1.00  0.00    -0.195 A  
HETATM   21  N   UNL     1      -9.944  14.644  67.128  1.00  0.00    -0.238 NA 
HETATM   22  H   UNL     1     -10.620  14.761  66.373  1.00  0.00     0.000 HD 
HETATM   23  N   UNL     1      -8.653  13.733  68.671  1.00  0.00    -0.111 NA 
BRANCH  20  24
HETATM   24  C   UNL     1      -9.538  17.057  67.561  1.00  0.00    -0.249 A  
HETATM   25  C   UNL     1      -9.361  19.382  68.282  1.00  0.00    -0.414 A  
HETATM   26  C   UNL     1      -9.961  19.807  67.100  1.00  0.00    -0.536 A  
HETATM   27  C   UNL     1     -10.336  18.867  66.140  1.00  0.00    -0.517 A  
HETATM   28  C   UNL     1      -9.150  18.019  68.507  1.00  0.00    -0.293 A  
HETATM   29  C   UNL     1     -10.121  17.500  66.365  1.00  0.00    -0.346 A  
ENDBRANCH  20  24
ENDBRANCH  16  18
ENDBRANCH  13  16
BRANCH  15  30
HETATM   30  C   UNL     1     -10.168   9.308  69.505  1.00  0.00    -0.207 C  
HETATM   31  H2  UNL     1      -9.880   7.649  68.257  1.00  0.00     0.000 HD 
HETATM   32  N   UNL     1     -10.639   8.109  68.760  1.00  0.00    -0.361 NA 
HETATM   33  H1  UNL     1     -11.119   7.472  69.395  1.00  0.00     0.000 HD 
BRANCH  30  34
HETATM   34  C   UNL     1      -9.330   8.768  70.686  1.00  0.00    -0.234 C  
BRANCH  34  35
HETATM   35  C   UNL     1      -9.563   7.350  71.172  1.00  0.00    -0.162 A  
HETATM   36  C   UNL     1     -11.695   8.121  72.401  1.00  0.00    -0.461 C  
HETATM   37  C   UNL     1      -8.906   5.005  71.386  1.00  0.00    -0.151 A  
HETATM   38  C   UNL     1      -7.286   6.487  70.270  1.00  0.00    -0.089 C  
HETATM   39  C   UNL     1     -10.704   7.067  71.969  1.00  0.00    -0.243 A  
HETATM   40  C   UNL     1      -8.624   6.312  70.943  1.00  0.00    -0.135 A  
HETATM   41  C   UNL     1     -10.069   4.714  72.094  1.00  0.00    -0.256 A  
HETATM   42  C   UNL     1     -10.950   5.753  72.397  1.00  0.00    -0.308 A  
BRANCH  41  43
HETATM   43  C   UNL     1     -10.411   3.351  72.589  1.00  0.00    -0.140 C  
HETATM   44  H2  UNL     1      -9.443   2.377  71.027  1.00  0.00     0.000 HD 
HETATM   45  H1  UNL     1     -10.222   1.327  72.222  1.00  0.00     0.000 HD 
HETATM   46  N   UNL     1      -9.987   2.260  71.882  1.00  0.00    -0.155 N  
HETATM   47  O   UNL     1     -11.065   3.186  73.614  1.00  0.00    -0.218 OA 
ENDBRANCH  41  43
ENDBRANCH  34  35
ENDBRANCH  30  34
ENDBRANCH  15  30
ENDBRANCH  12  13
ENDBRANCH   6  12
ENDBRANCH   2   3
TORSDOF 10
ENDMDL
MODEL       29
REMARK 921   NORMALIZED FREE ENERGY PREDICTED BY IDOCK:   -5.91 KCAL/MOL
REMARK 922        TOTAL FREE ENERGY PREDICTED BY IDOCK:  -12.23 KCAL/MOL
REMARK 923 INTER-LIGAND FREE ENERGY PREDICTED BY IDOCK:  -11.51 KCAL/MOL
REMARK 924 INTRA-LIGAND FREE ENERGY PREDICTED BY IDOCK:   -0.72 KCAL/MOL
REMARK 927      BINDING AFFINITY PREDICTED BY RF-SCORE:    0.00 PKD
ROOT
HETATM    1  C   UNL     1     -13.922  14.969  72.269  1.00  0.00    -0.509 C  
HETATM    2  O   UNL     1     -13.614  13.622  71.907  1.00  0.00    -0.392 OA 
ENDROOT
BRANCH   2   3
HETATM    3  C   UNL     1     -12.762  13.442  70.846  1.00  0.00    -0.272 A  
HETATM    4  C   UNL     1     -12.174  14.492  70.135  1.00  0.00    -0.399 A  
HETATM    5  C   UNL     1     -11.237  14.239  69.128  1.00  0.00    -0.302 A  
HETATM    6  C   UNL     1     -10.886  12.933  68.775  1.00  0.00    -0.277 A  
HETATM    7  C   UNL     1     -11.522  11.877  69.446  1.00  0.00    -0.366 A  
HETATM    8  C   UNL     1     -13.044  10.920  71.130  1.00  0.00    -0.257 C  
HETATM    9  O   UNL     1     -13.373  11.083  72.427  1.00  0.00    -0.257 OA 
HETATM   10  C   UNL     1     -12.444  12.121  70.483  1.00  0.00    -0.282 A  
HETATM   11  O   UNL     1     -13.160   9.854  70.545  1.00  0.00    -0.167 OA 
BRANCH   6  12
HETATM   12  C   UNL     1      -9.828  12.636  67.731  1.00  0.00    -0.212 C  
BRANCH  12  13
HETATM   13  N   UNL     1     -10.299  11.958  66.510  1.00  0.00    -0.212 N  
HETATM   14  O   UNL     1     -10.323  10.095  65.137  1.00  0.00    -0.257 OA 
HETATM   15  C   UNL     1     -10.049  10.591  66.238  1.00  0.00    -0.232 C  
BRANCH  13  16
HETATM   16  C   UNL     1     -10.765  12.816  65.389  1.00  0.00    -0.284 C  
HETATM   17  C   UNL     1     -12.293  12.827  65.199  1.00  0.00    -0.555 C  
BRANCH  16  18
HETATM   18  C   UNL     1     -10.311  14.250  65.567  1.00  0.00    -0.355 A  
HETATM   19  C   UNL     1     -10.505  16.386  66.147  1.00  0.00    -0.314 A  
HETATM   20  C   UNL     1      -9.195  15.971  66.255  1.00  0.00    -0.333 A  
HETATM   21  N   UNL     1      -9.088  14.661  65.845  1.00  0.00    -0.476 NA 
HETATM   22  H   UNL     1      -8.230  14.115  65.772  1.00  0.00     0.000 HD 
HETATM   23  N   UNL     1     -11.197  15.296  65.680  1.00  0.00    -0.297 NA 
BRANCH  20  24
HETATM   24  C   UNL     1      -8.071  16.712  66.811  1.00  0.00    -0.281 A  
HETATM   25  C   UNL     1      -6.331  18.394  66.493  1.00  0.00    -0.215 A  
HETATM   26  C   UNL     1      -5.797  18.098  67.743  1.00  0.00    -0.154 A  
HETATM   27  C   UNL     1      -6.403  17.124  68.538  1.00  0.00    -0.157 A  
HETATM   28  C   UNL     1      -7.458  17.708  66.034  1.00  0.00    -0.282 A  
HETATM   29  C   UNL     1      -7.536  16.438  68.078  1.00  0.00    -0.158 A  
ENDBRANCH  20  24
ENDBRANCH  16  18
ENDBRANCH  13  16
BRANCH  15  30
HETATM   30  C   UNL     1      -9.444   9.709  67.393  1.00  0.00    -0.142 C  
HETATM   31  H2  UNL     1      -8.624  11.358  68.394  1.00  0.00     0.000 HD 
HETATM   32  N   UNL     1      -8.332  10.440  68.061  1.00  0.00    -0.117 NA 
HETATM   33  H1  UNL     1      -7.940   9.867  68.809  1.00  0.00     0.000 HD 
BRANCH  30  34
HETATM   34  C   UNL     1     -10.420   9.305  68.520  1.00  0.00    -0.240 C  
BRANCH  34  35
HETATM   35  C   UNL     1     -10.261   7.952  69.189  1.00  0.00    -0.219 A  
HETATM   36  C   UNL     1     -11.029   6.790  67.018  1.00  0.00    -0.439 C  
HETATM   37  C   UNL     1      -9.774   6.544  71.127  1.00  0.00    -0.188 A  
HETATM   38  C   UNL     1      -9.791   8.975  71.528  1.00  0.00    -0.381 C  
HETATM   39  C   UNL     1     -10.540   6.774  68.446  1.00  0.00    -0.270 A  
HETATM   40  C   UNL     1      -9.943   7.825  70.564  1.00  0.00    -0.187 A  
HETATM   41  C   UNL     1      -9.963   5.391  70.372  1.00  0.00    -0.291 A  
HETATM   42  C   UNL     1     -10.365   5.515  69.041  1.00  0.00    -0.304 A  
BRANCH  41  43
HETATM   43  C   UNL     1      -9.803   4.015  70.920  1.00  0.00    -0.159 C  
HETATM   44  H2  UNL     1     -10.075   4.607  72.895  1.00  0.00     0.000 HD 
HETATM   45  H1  UNL     1      -9.787   2.877  72.644  1.00  0.00     0.000 HD 
HETATM   46  N   UNL     1      -9.897   3.820  72.270  1.00  0.00    -0.156 N  
HETATM   47  O   UNL     1      -9.587   3.053  70.188  1.00  0.00    -0.161 OA 
ENDBRANCH  41  43
ENDBRANCH  34  35
ENDBRANCH  30  34
ENDBRANCH  15  30
ENDBRANCH  12  13
ENDBRANCH   6  12
ENDBRANCH   2   3
TORSDOF 10
ENDMDL
MODEL       30
REMARK 921   NORMALIZED FREE ENERGY PREDICTED BY IDOCK:   -5.90 KCAL/MOL
REMARK 922        TOTAL FREE ENERGY PREDICTED BY IDOCK:  -12.22 KCAL/MOL
REMARK 923 INTER-LIGAND FREE ENERGY PREDICTED BY IDOCK:  -11.11 KCAL/MOL
REMARK 924 INTRA-LIGAND FREE ENERGY PREDICTED BY IDOCK:   -1.11 KCAL/MOL
REMARK 927      BINDING AFFINITY PREDICTED BY RF-SCORE:    0.00 PKD
ROOT
HETATM    1  C   UNL     1     -14.194  13.861  72.380  1.00  0.00    -0.408 C  
HETATM    2  O   UNL     1     -13.710  12.551  72.081  1.00  0.00    -0.435 OA 
ENDROOT
BRANCH   2   3
HETATM    3  C   UNL     1     -12.831  12.437  71.033  1.00  0.00    -0.155 A  
HETATM    4  C   UNL     1     -12.354  13.524  70.296  1.00  0.00    -0.370 A  
HETATM    5  C   UNL     1     -11.383  13.348  69.306  1.00  0.00    -0.314 A  
HETATM    6  C   UNL     1     -10.885  12.080  68.995  1.00  0.00    -0.223 A  
HETATM    7  C   UNL     1     -11.408  10.979  69.693  1.00  0.00    -0.363 A  
HETATM    8  C   UNL     1     -12.834   9.908  71.391  1.00  0.00    -0.405 C  
HETATM    9  O   UNL     1     -13.195  10.071  72.679  1.00  0.00    -0.132 OA 
HETATM   10  C   UNL     1     -12.364  11.149  70.713  1.00  0.00    -0.504 A  
HETATM   11  O   UNL     1     -12.824   8.819  70.838  1.00  0.00    -0.079 OA 
BRANCH   6  12
HETATM   12  C   UNL     1      -9.787  11.872  67.971  1.00  0.00    -0.190 C  
BRANCH  12  13
HETATM   13  N   UNL     1     -10.226  11.773  66.567  1.00  0.00    -0.204 N  
HETATM   14  O   UNL     1     -10.392  10.561  64.602  1.00  0.00    -0.344 OA 
HETATM   15  C   UNL     1     -10.163  10.573  65.818  1.00  0.00    -0.243 C  
BRANCH  13  16
HETATM   16  C   UNL     1     -10.435  13.044  65.825  1.00  0.00    -0.280 C  
HETATM   17  C   UNL     1     -11.915  13.430  65.642  1.00  0.00    -0.439 C  
BRANCH  16  18
HETATM   18  C   UNL     1      -9.737  14.202  66.508  1.00  0.00    -0.295 A  
HETATM   19  C   UNL     1      -8.010  15.460  67.117  1.00  0.00    -0.217 A  
HETATM   20  C   UNL     1      -9.156  16.220  67.027  1.00  0.00    -0.207 A  
HETATM   21  N   UNL     1     -10.222  15.415  66.696  1.00  0.00    -0.269 NA 
HETATM   22  H   UNL     1     -11.198  15.700  66.613  1.00  0.00     0.000 HD 
HETATM   23  N   UNL     1      -8.397  14.177  66.817  1.00  0.00    -0.025 NA 
BRANCH  20  24
HETATM   24  C   UNL     1      -9.274  17.668  67.141  1.00  0.00    -0.245 A  
HETATM   25  C   UNL     1     -10.718  19.636  67.194  1.00  0.00    -0.587 A  
HETATM   26  C   UNL     1      -9.604  20.469  67.211  1.00  0.00    -0.580 A  
HETATM   27  C   UNL     1      -8.325  19.910  67.210  1.00  0.00    -0.366 A  
HETATM   28  C   UNL     1     -10.553  18.248  67.161  1.00  0.00    -0.392 A  
HETATM   29  C   UNL     1      -8.160  18.518  67.181  1.00  0.00    -0.248 A  
ENDBRANCH  20  24
ENDBRANCH  16  18
ENDBRANCH  13  16
BRANCH  15  30
HETATM   30  C   UNL     1      -9.824   9.242  66.588  1.00  0.00    -0.245 C  
HETATM   31  H2  UNL     1      -9.128   8.273  64.865  1.00  0.00     0.000 HD 
HETATM   32  N   UNL     1      -9.775   8.101  65.633  1.00  0.00    -0.310 NA 
HETATM   33  H1  UNL     1      -9.556   7.239  66.133  1.00  0.00     0.000 HD 
BRANCH  30  34
HETATM   34  C   UNL     1      -8.474   9.219  67.341  1.00  0.00    -0.122 C  
BRANCH  34  35
HETATM   35  C   UNL     1      -8.461   8.925  68.829  1.00  0.00    -0.131 A  
HETATM   36  C   UNL     1      -6.251  10.235  69.067  1.00  0.00    -0.040 C  
HETATM   37  C   UNL     1      -9.377   7.857  70.828  1.00  0.00    -0.161 A  
HETATM   38  C   UNL     1     -10.490   7.311  68.700  1.00  0.00    -0.214 C  
HETATM   39  C   UNL     1      -7.403   9.435  69.628  1.00  0.00    -0.077 A  
HETATM   40  C   UNL     1      -9.414   8.069  69.435  1.00  0.00    -0.159 A  
HETATM   41  C   UNL     1      -8.388   8.430  71.622  1.00  0.00    -0.202 A  
HETATM   42  C   UNL     1      -7.396   9.199  71.012  1.00  0.00    -0.116 A  
BRANCH  41  43
HETATM   43  C   UNL     1      -8.300   8.233  73.096  1.00  0.00    -0.187 C  
HETATM   44  H2  UNL     1     -10.146   7.284  73.230  1.00  0.00     0.000 HD 
HETATM   45  H1  UNL     1      -9.268   7.476  74.756  1.00  0.00     0.000 HD 
HETATM   46  N   UNL     1      -9.329   7.610  73.747  1.00  0.00    -0.279 N  
HETATM   47  O   UNL     1      -7.328   8.618  73.739  1.00  0.00    -0.349 OA 
ENDBRANCH  41  43
ENDBRANCH  34  35
ENDBRANCH  30  34
ENDBRANCH  15  30
ENDBRANCH  12  13
ENDBRANCH   6  12
ENDBRANCH   2   3
TORSDOF 10
ENDMDL
MODEL       31
REMARK 921   NORMALIZED FREE ENERGY PREDICTED BY IDOCK:   -5.88 KCAL/MOL
REMARK 922        TOTAL FREE ENERGY PREDICTED BY IDOCK:  -12.19 KCAL/MOL
REMARK 923 INTER-LIGAND FREE ENERGY PREDICTED BY IDOCK:   -8.59 KCAL/MOL
REMARK 924 INTRA-LIGAND FREE ENERGY PREDICTED BY IDOCK:   -3.60 KCAL/MOL
REMARK 927      BINDING AFFINITY PREDICTED BY RF-SCORE:    0.00 PKD
ROOT
HETATM    1  C   UNL     1     -12.767   6.600  71.799  1.00  0.00    -0.231 C  
HETATM    2  O   UNL     1     -11.367   6.787  71.589  1.00  0.00    -0.244 OA 
ENDROOT
BRANCH   2   3
HETATM    3  C   UNL     1     -10.954   6.995  70.297  1.00  0.00    -0.271 A  
HETATM    4  C   UNL     1     -11.384   6.228  69.211  1.00  0.00    -0.411 A  
HETATM    5  C   UNL     1     -11.002   6.555  67.906  1.00  0.00    -0.382 A  
HETATM    6  C   UNL     1     -10.150   7.633  67.649  1.00  0.00    -0.249 A  
HETATM    7  C   UNL     1      -9.668   8.367  68.745  1.00  0.00    -0.168 A  
HETATM    8  C   UNL     1      -9.504   8.921  71.138  1.00  0.00    -0.265 C  
HETATM    9  O   UNL     1     -10.302   9.079  72.213  1.00  0.00    -0.265 OA 
HETATM   10  C   UNL     1     -10.072   8.064  70.060  1.00  0.00    -0.196 A  
HETATM   11  O   UNL     1      -8.429   9.489  71.022  1.00  0.00    -0.284 OA 
BRANCH   6  12
HETATM   12  C   UNL     1      -9.774   8.045  66.239  1.00  0.00    -0.126 C  
BRANCH  12  13
HETATM   13  N   UNL     1      -8.331   8.179  65.971  1.00  0.00    -0.123 N  
HETATM   14  O   UNL     1      -6.181   7.332  66.110  1.00  0.00    -0.039 OA 
HETATM   15  C   UNL     1      -7.400   7.136  66.197  1.00  0.00    -0.075 C  
BRANCH  13  16
HETATM   16  C   UNL     1      -7.798   9.552  65.768  1.00  0.00    -0.104 C  
HETATM   17  C   UNL     1      -7.225   9.803  64.361  1.00  0.00    -0.129 C  
BRANCH  16  18
HETATM   18  C   UNL     1      -8.862  10.599  66.027  1.00  0.00    -0.175 A  
HETATM   19  C   UNL     1     -10.806  11.636  65.740  1.00  0.00    -0.281 A  
HETATM   20  C   UNL     1     -10.369  11.777  67.040  1.00  0.00    -0.214 A  
HETATM   21  N   UNL     1      -9.142  11.170  67.185  1.00  0.00    -0.146 NA 
HETATM   22  H   UNL     1      -8.562  11.161  68.024  1.00  0.00     0.000 HD 
HETATM   23  N   UNL     1      -9.827  10.916  65.100  1.00  0.00    -0.254 NA 
BRANCH  20  24
HETATM   24  C   UNL     1     -11.089  12.364  68.162  1.00  0.00    -0.288 A  
HETATM   25  C   UNL     1     -12.008  14.361  69.223  1.00  0.00    -0.362 A  
HETATM   26  C   UNL     1     -12.349  13.620  70.351  1.00  0.00    -0.415 A  
HETATM   27  C   UNL     1     -12.079  12.252  70.384  1.00  0.00    -0.385 A  
HETATM   28  C   UNL     1     -11.386  13.736  68.139  1.00  0.00    -0.315 A  
HETATM   29  C   UNL     1     -11.457  11.624  69.295  1.00  0.00    -0.364 A  
ENDBRANCH  20  24
ENDBRANCH  16  18
ENDBRANCH  13  16
BRANCH  15  30
HETATM   30  C   UNL     1      -7.966   5.705  66.530  1.00  0.00    -0.101 C  
HETATM   31  H2  UNL     1      -6.981   4.802  64.915  1.00  0.00     0.000 HD 
HETATM   32  N   UNL     1      -7.917   4.844  65.316  1.00  0.00    -0.095 NA 
HETATM   33  H1  UNL     1      -8.284   3.917  65.532  1.00  0.00     0.000 HD 
BRANCH  30  34
HETATM   34  C   UNL     1      -7.219   4.920  67.632  1.00  0.00    -0.070 C  
BRANCH  34  35
HETATM   35  C   UNL     1      -7.972   4.491  68.877  1.00  0.00    -0.074 A  
HETATM   36  C   UNL     1      -6.736   6.294  70.246  1.00  0.00    -0.053 C  
HETATM   37  C   UNL     1      -9.533   3.029  70.061  1.00  0.00    -0.195 A  
HETATM   38  C   UNL     1      -9.049   2.431  67.720  1.00  0.00    -0.222 C  
HETATM   39  C   UNL     1      -7.737   5.173  70.101  1.00  0.00    -0.071 A  
HETATM   40  C   UNL     1      -8.830   3.363  68.886  1.00  0.00    -0.164 A  
HETATM   41  C   UNL     1      -9.365   3.754  71.236  1.00  0.00    -0.215 A  
HETATM   42  C   UNL     1      -8.452   4.810  71.252  1.00  0.00    -0.113 A  
BRANCH  41  43
HETATM   43  C   UNL     1     -10.079   3.439  72.505  1.00  0.00    -0.162 C  
HETATM   44  H2  UNL     1      -9.726   5.310  73.343  1.00  0.00     0.000 HD 
HETATM   45  H1  UNL     1     -10.642   4.178  74.351  1.00  0.00     0.000 HD 
HETATM   46  N   UNL     1     -10.153   4.393  73.482  1.00  0.00    -0.142 N  
HETATM   47  O   UNL     1     -10.599   2.344  72.695  1.00  0.00    -0.153 OA 
ENDBRANCH  41  43
ENDBRANCH  34  35
ENDBRANCH  30  34
ENDBRANCH  15  30
ENDBRANCH  12  13
ENDBRANCH   6  12
ENDBRANCH   2   3
TORSDOF 10
ENDMDL
MODEL       32
REMARK 921   NORMALIZED FREE ENERGY PREDICTED BY IDOCK:   -5.88 KCAL/MOL
REMARK 922        TOTAL FREE ENERGY PREDICTED BY IDOCK:  -12.19 KCAL/MOL
REMARK 923 INTER-LIGAND FREE ENERGY PREDICTED BY IDOCK:   -9.84 KCAL/MOL
REMARK 924 INTRA-LIGAND FREE ENERGY PREDICTED BY IDOCK:   -2.35 KCAL/MOL
REMARK 927      BINDING AFFINITY PREDICTED BY RF-SCORE:    0.00 PKD
ROOT
HETATM    1  C   UNL     1     -12.105  14.427  64.778  1.00  0.00    -0.452 C  
HETATM    2  O   UNL     1     -12.157  14.623  66.192  1.00  0.00    -0.318 OA 
ENDROOT
BRANCH   2   3
HETATM    3  C   UNL     1     -11.912  13.527  66.982  1.00  0.00    -0.394 A  
HETATM    4  C   UNL     1     -11.747  12.232  66.483  1.00  0.00    -0.420 A  
HETATM    5  C   UNL     1     -11.401  11.177  67.333  1.00  0.00    -0.329 A  
HETATM    6  C   UNL     1     -11.246  11.373  68.708  1.00  0.00    -0.308 A  
HETATM    7  C   UNL     1     -11.473  12.661  69.218  1.00  0.00    -0.354 A  
HETATM    8  C   UNL     1     -11.997  15.060  69.023  1.00  0.00    -0.264 C  
HETATM    9  O   UNL     1     -11.670  16.124  68.263  1.00  0.00    -0.281 OA 
HETATM   10  C   UNL     1     -11.792  13.737  68.367  1.00  0.00    -0.411 A  
HETATM   11  O   UNL     1     -12.366  15.162  70.182  1.00  0.00    -0.331 OA 
BRANCH   6  12
HETATM   12  C   UNL     1     -10.810  10.258  69.639  1.00  0.00    -0.271 C  
BRANCH  12  13
HETATM   13  N   UNL     1      -9.973   9.207  69.035  1.00  0.00    -0.178 N  
HETATM   14  O   UNL     1      -7.903   8.466  68.309  1.00  0.00    -0.107 OA 
HETATM   15  C   UNL     1      -8.561   9.289  68.958  1.00  0.00    -0.134 C  
BRANCH  13  16
HETATM   16  C   UNL     1     -10.655   8.188  68.195  1.00  0.00    -0.110 C  
HETATM   17  C   UNL     1     -10.076   8.053  66.774  1.00  0.00    -0.357 C  
BRANCH  16  18
HETATM   18  C   UNL     1     -10.611   6.820  68.843  1.00  0.00    -0.228 A  
HETATM   19  C   UNL     1      -9.857   4.759  69.191  1.00  0.00    -0.184 A  
HETATM   20  C   UNL     1     -10.412   5.273  70.343  1.00  0.00    -0.251 A  
HETATM   21  N   UNL     1     -10.916   6.530  70.094  1.00  0.00    -0.287 NA 
HETATM   22  H   UNL     1     -11.425   7.122  70.750  1.00  0.00     0.000 HD 
HETATM   23  N   UNL     1     -10.018   5.736  68.239  1.00  0.00    -0.139 NA 
BRANCH  20  24
HETATM   24  C   UNL     1     -10.403   4.683  71.675  1.00  0.00    -0.189 A  
HETATM   25  C   UNL     1     -10.763   4.964  74.073  1.00  0.00    -0.354 A  
HETATM   26  C   UNL     1     -10.282   3.680  74.309  1.00  0.00    -0.234 A  
HETATM   27  C   UNL     1      -9.876   2.887  73.234  1.00  0.00    -0.166 A  
HETATM   28  C   UNL     1     -10.824   5.458  72.767  1.00  0.00    -0.310 A  
HETATM   29  C   UNL     1      -9.941   3.383  71.924  1.00  0.00    -0.210 A  
ENDBRANCH  20  24
ENDBRANCH  16  18
ENDBRANCH  13  16
BRANCH  15  30
HETATM   30  C   UNL     1      -7.847  10.444  69.755  1.00  0.00    -0.095 C  
HETATM   31  H2  UNL     1      -6.376   9.168  70.533  1.00  0.00     0.000 HD 
HETATM   32  N   UNL     1      -7.037   9.870  70.865  1.00  0.00    -0.331 NA 
HETATM   33  H1  UNL     1      -6.575  10.618  71.381  1.00  0.00     0.000 HD 
BRANCH  30  34
HETATM   34  C   UNL     1      -6.877  11.329  68.942  1.00  0.00    -0.086 C  
BRANCH  34  35
HETATM   35  C   UNL     1      -7.276  12.755  68.611  1.00  0.00    -0.104 A  
HETATM   36  C   UNL     1      -8.289  11.952  66.379  1.00  0.00     0.005 C  
HETATM   37  C   UNL     1      -7.324  15.152  69.090  1.00  0.00    -0.167 A  
HETATM   38  C   UNL     1      -6.021  13.759  70.649  1.00  0.00    -0.159 C  
HETATM   39  C   UNL     1      -7.962  13.020  67.395  1.00  0.00    -0.173 A  
HETATM   40  C   UNL     1      -6.897  13.851  69.425  1.00  0.00    -0.065 A  
HETATM   41  C   UNL     1      -8.071  15.396  67.942  1.00  0.00    -0.148 A  
HETATM   42  C   UNL     1      -8.368  14.329  67.092  1.00  0.00    -0.202 A  
BRANCH  41  43
HETATM   43  C   UNL     1      -8.542  16.750  67.539  1.00  0.00    -0.194 C  
HETATM   44  H2  UNL     1      -8.204  17.588  69.413  1.00  0.00     0.000 HD 
HETATM   45  H1  UNL     1      -8.853  18.688  68.185  1.00  0.00     0.000 HD 
HETATM   46  N   UNL     1      -8.531  17.760  68.461  1.00  0.00    -0.297 N  
HETATM   47  O   UNL     1      -8.940  16.981  66.401  1.00  0.00    -0.256 OA 
ENDBRANCH  41  43
ENDBRANCH  34  35
ENDBRANCH  30  34
ENDBRANCH  15  30
ENDBRANCH  12  13
ENDBRANCH   6  12
ENDBRANCH   2   3
TORSDOF 10
ENDMDL
MODEL       33
REMARK 921   NORMALIZED FREE ENERGY PREDICTED BY IDOCK:   -5.87 KCAL/MOL
REMARK 922        TOTAL FREE ENERGY PREDICTED BY IDOCK:  -12.18 KCAL/MOL
REMARK 923 INTER-LIGAND FREE ENERGY PREDICTED BY IDOCK:  -11.17 KCAL/MOL
REMARK 924 INTRA-LIGAND FREE ENERGY PREDICTED BY IDOCK:   -1.01 KCAL/MOL
REMARK 927      BINDING AFFINITY PREDICTED BY RF-SCORE:    0.00 PKD
ROOT
HETATM    1  C   UNL     1      -8.991   9.466  62.368  1.00  0.00    -0.246 C  
HETATM    2  O   UNL     1      -8.501   9.061  63.647  1.00  0.00    -0.190 OA 
ENDROOT
BRANCH   2   3
HETATM    3  C   UNL     1      -8.772   9.888  64.708  1.00  0.00    -0.189 A  
HETATM    4  C   UNL     1     -10.064  10.218  65.125  1.00  0.00    -0.355 A  
HETATM    5  C   UNL     1     -10.272  10.986  66.275  1.00  0.00    -0.295 A  
HETATM    6  C   UNL     1      -9.198  11.478  67.022  1.00  0.00    -0.180 A  
HETATM    7  C   UNL     1      -7.899  11.199  66.569  1.00  0.00    -0.151 A  
HETATM    8  C   UNL     1      -6.257  10.162  65.054  1.00  0.00    -0.123 C  
HETATM    9  O   UNL     1      -6.024   8.983  64.444  1.00  0.00    -0.068 OA 
HETATM   10  C   UNL     1      -7.679  10.401  65.429  1.00  0.00    -0.136 A  
HETATM   11  O   UNL     1      -5.367  10.947  65.342  1.00  0.00    -0.140 OA 
BRANCH   6  12
HETATM   12  C   UNL     1      -9.398  12.259  68.306  1.00  0.00    -0.199 C  
BRANCH  12  13
HETATM   13  N   UNL     1     -10.712  12.101  68.957  1.00  0.00    -0.169 N  
HETATM   14  O   UNL     1     -12.315  10.744  69.929  1.00  0.00    -0.329 OA 
HETATM   15  C   UNL     1     -11.151  10.884  69.532  1.00  0.00    -0.268 C  
BRANCH  13  16
HETATM   16  C   UNL     1     -11.727  13.159  68.712  1.00  0.00    -0.324 C  
HETATM   17  C   UNL     1     -12.291  13.800  69.993  1.00  0.00    -0.364 C  
BRANCH  16  18
HETATM   18  C   UNL     1     -11.167  14.271  67.848  1.00  0.00    -0.285 A  
HETATM   19  C   UNL     1     -10.963  15.519  66.021  1.00  0.00    -0.251 A  
HETATM   20  C   UNL     1     -10.647  16.250  67.146  1.00  0.00    -0.291 A  
HETATM   21  N   UNL     1     -10.733  15.447  68.261  1.00  0.00    -0.252 NA 
HETATM   22  H   UNL     1     -10.506  15.711  69.220  1.00  0.00     0.000 HD 
HETATM   23  N   UNL     1     -11.259  14.257  66.476  1.00  0.00    -0.323 NA 
BRANCH  20  24
HETATM   24  C   UNL     1     -10.368  17.678  67.229  1.00  0.00    -0.354 A  
HETATM   25  C   UNL     1     -10.176  19.826  66.086  1.00  0.00    -0.618 A  
HETATM   26  C   UNL     1      -9.710  20.421  67.254  1.00  0.00    -0.602 A  
HETATM   27  C   UNL     1      -9.587  19.657  68.415  1.00  0.00    -0.468 A  
HETATM   28  C   UNL     1     -10.503  18.468  66.076  1.00  0.00    -0.433 A  
HETATM   29  C   UNL     1      -9.919  18.294  68.406  1.00  0.00    -0.401 A  
ENDBRANCH  20  24
ENDBRANCH  16  18
ENDBRANCH  13  16
BRANCH  15  30
HETATM   30  C   UNL     1     -10.101   9.720  69.683  1.00  0.00    -0.229 C  
HETATM   31  H2  UNL     1     -10.331   9.612  71.763  1.00  0.00     0.000 HD 
HETATM   32  N   UNL     1      -9.580   9.683  71.077  1.00  0.00    -0.300 NA 
HETATM   33  H1  UNL     1      -8.900   8.929  71.174  1.00  0.00     0.000 HD 
BRANCH  30  34
HETATM   34  C   UNL     1     -10.621   8.295  69.390  1.00  0.00    -0.203 C  
BRANCH  34  35
HETATM   35  C   UNL     1     -10.555   7.244  70.481  1.00  0.00    -0.237 A  
HETATM   36  C   UNL     1      -8.324   6.383  69.516  1.00  0.00    -0.126 C  
HETATM   37  C   UNL     1     -11.491   6.075  72.414  1.00  0.00    -0.357 A  
HETATM   38  C   UNL     1     -12.936   7.775  71.371  1.00  0.00    -0.322 C  
HETATM   39  C   UNL     1      -9.444   6.360  70.529  1.00  0.00    -0.173 A  
HETATM   40  C   UNL     1     -11.618   7.043  71.398  1.00  0.00    -0.329 A  
HETATM   41  C   UNL     1     -10.361   5.269  72.510  1.00  0.00    -0.249 A  
HETATM   42  C   UNL     1      -9.353   5.405  71.552  1.00  0.00    -0.177 A  
BRANCH  41  43
HETATM   43  C   UNL     1     -10.179   4.228  73.560  1.00  0.00    -0.160 C  
HETATM   44  H2  UNL     1     -11.464   2.870  72.648  1.00  0.00     0.000 HD 
HETATM   45  H1  UNL     1     -10.724   2.329  74.163  1.00  0.00     0.000 HD 
HETATM   46  N   UNL     1     -10.848   3.041  73.444  1.00  0.00    -0.196 N  
HETATM   47  O   UNL     1      -9.445   4.411  74.526  1.00  0.00    -0.109 OA 
ENDBRANCH  41  43
ENDBRANCH  34  35
ENDBRANCH  30  34
ENDBRANCH  15  30
ENDBRANCH  12  13
ENDBRANCH   6  12
ENDBRANCH   2   3
TORSDOF 10
ENDMDL
MODEL       34
REMARK 921   NORMALIZED FREE ENERGY PREDICTED BY IDOCK:   -5.87 KCAL/MOL
REMARK 922        TOTAL FREE ENERGY PREDICTED BY IDOCK:  -12.18 KCAL/MOL
REMARK 923 INTER-LIGAND FREE ENERGY PREDICTED BY IDOCK:  -10.86 KCAL/MOL
REMARK 924 INTRA-LIGAND FREE ENERGY PREDICTED BY IDOCK:   -1.31 KCAL/MOL
REMARK 927      BINDING AFFINITY PREDICTED BY RF-SCORE:    0.00 PKD
ROOT
HETATM    1  C   UNL     1     -13.736  13.242  72.333  1.00  0.00    -0.578 C  
HETATM    2  O   UNL     1     -13.286  11.887  72.300  1.00  0.00    -0.451 OA 
ENDROOT
BRANCH   2   3
HETATM    3  C   UNL     1     -12.714  11.448  71.132  1.00  0.00    -0.377 A  
HETATM    4  C   UNL     1     -12.088  12.291  70.209  1.00  0.00    -0.376 A  
HETATM    5  C   UNL     1     -11.439  11.767  69.087  1.00  0.00    -0.358 A  
HETATM    6  C   UNL     1     -11.426  10.393  68.831  1.00  0.00    -0.251 A  
HETATM    7  C   UNL     1     -12.108   9.552  69.725  1.00  0.00     0.437 A  
HETATM    8  C   UNL     1     -13.418   9.074  71.754  1.00  0.00    -0.411 C  
HETATM    9  O   UNL     1     -13.443   9.402  73.062  1.00  0.00    -0.138 OA 
HETATM   10  C   UNL     1     -12.739  10.066  70.874  1.00  0.00    -0.414 A  
HETATM   11  O   UNL     1     -13.853   8.015  71.329  1.00  0.00    -0.267 OA 
BRANCH   6  12
HETATM   12  C   UNL     1     -10.676   9.798  67.656  1.00  0.00    -0.274 C  
BRANCH  12  13
HETATM   13  N   UNL     1      -9.221  10.034  67.634  1.00  0.00    -0.137 N  
HETATM   14  O   UNL     1      -7.332  10.793  66.533  1.00  0.00    -0.125 OA 
HETATM   15  C   UNL     1      -8.567  10.748  66.601  1.00  0.00    -0.143 C  
BRANCH  13  16
HETATM   16  C   UNL     1      -8.384   9.220  68.554  1.00  0.00    -0.119 C  
HETATM   17  C   UNL     1      -8.123   9.881  69.920  1.00  0.00    -0.200 C  
BRANCH  16  18
HETATM   18  C   UNL     1      -9.005   7.863  68.809  1.00  0.00    -0.141 A  
HETATM   19  C   UNL     1      -9.302   5.678  68.531  1.00  0.00    -0.123 A  
HETATM   20  C   UNL     1      -9.612   6.049  69.822  1.00  0.00    -0.150 A  
HETATM   21  N   UNL     1      -9.468   7.411  69.960  1.00  0.00    -0.161 NA 
HETATM   22  H   UNL     1      -9.677   7.964  70.791  1.00  0.00     0.000 HD 
HETATM   23  N   UNL     1      -8.951   6.841  67.890  1.00  0.00    -0.115 NA 
BRANCH  20  24
HETATM   24  C   UNL     1      -9.938   5.179  70.943  1.00  0.00    -0.280 A  
HETATM   25  C   UNL     1     -10.011   2.920  71.865  1.00  0.00    -0.213 A  
HETATM   26  C   UNL     1     -10.664   3.390  73.000  1.00  0.00    -0.229 A  
HETATM   27  C   UNL     1     -10.941   4.752  73.122  1.00  0.00    -0.374 A  
HETATM   28  C   UNL     1      -9.651   3.807  70.848  1.00  0.00    -0.256 A  
HETATM   29  C   UNL     1     -10.576   5.644  72.102  1.00  0.00    -0.274 A  
ENDBRANCH  20  24
ENDBRANCH  16  18
ENDBRANCH  13  16
BRANCH  15  30
HETATM   30  C   UNL     1      -9.461  11.514  65.556  1.00  0.00    -0.212 C  
HETATM   31  H2  UNL     1     -10.747   9.884  65.270  1.00  0.00     0.000 HD 
HETATM   32  N   UNL     1     -10.203  10.540  64.710  1.00  0.00    -0.341 NA 
HETATM   33  H1  UNL     1     -10.782  11.037  64.033  1.00  0.00     0.000 HD 
BRANCH  30  34
HETATM   34  C   UNL     1     -10.531  12.461  66.144  1.00  0.00    -0.274 C  
BRANCH  34  35
HETATM   35  C   UNL     1     -10.293  13.959  66.112  1.00  0.00    -0.303 A  
HETATM   36  C   UNL     1      -8.812  13.768  68.215  1.00  0.00    -0.185 C  
HETATM   37  C   UNL     1     -10.677  16.188  65.184  1.00  0.00    -0.391 A  
HETATM   38  C   UNL     1     -12.008  14.360  64.204  1.00  0.00    -0.373 C  
HETATM   39  C   UNL     1      -9.458  14.551  67.097  1.00  0.00    -0.236 A  
HETATM   40  C   UNL     1     -10.960  14.807  65.193  1.00  0.00    -0.403 A  
HETATM   41  C   UNL     1      -9.790  16.752  66.095  1.00  0.00    -0.330 A  
HETATM   42  C   UNL     1      -9.202  15.930  67.059  1.00  0.00    -0.231 A  
BRANCH  41  43
HETATM   43  C   UNL     1      -9.461  18.204  66.132  1.00  0.00    -0.153 C  
HETATM   44  H2  UNL     1     -11.416  18.791  66.527  1.00  0.00     0.000 HD 
HETATM   45  H1  UNL     1     -10.232  20.102  66.398  1.00  0.00     0.000 HD 
HETATM   46  N   UNL     1     -10.458  19.107  66.373  1.00  0.00    -0.443 N  
HETATM   47  O   UNL     1      -8.316  18.608  65.949  1.00  0.00    -0.494 OA 
ENDBRANCH  41  43
ENDBRANCH  34  35
ENDBRANCH  30  34
ENDBRANCH  15  30
ENDBRANCH  12  13
ENDBRANCH   6  12
ENDBRANCH   2   3
TORSDOF 10
ENDMDL
MODEL       35
REMARK 921   NORMALIZED FREE ENERGY PREDICTED BY IDOCK:   -5.84 KCAL/MOL
REMARK 922        TOTAL FREE ENERGY PREDICTED BY IDOCK:  -12.13 KCAL/MOL
REMARK 923 INTER-LIGAND FREE ENERGY PREDICTED BY IDOCK:   -8.65 KCAL/MOL
REMARK 924 INTRA-LIGAND FREE ENERGY PREDICTED BY IDOCK:   -3.48 KCAL/MOL
REMARK 927      BINDING AFFINITY PREDICTED BY RF-SCORE:    0.00 PKD
ROOT
HETATM    1  C   UNL     1     -13.216   7.352  71.540  1.00  0.00    -0.372 C  
HETATM    2  O   UNL     1     -11.818   7.599  71.380  1.00  0.00    -0.278 OA 
ENDROOT
BRANCH   2   3
HETATM    3  C   UNL     1     -11.277   7.337  70.146  1.00  0.00    -0.239 A  
HETATM    4  C   UNL     1     -11.508   6.160  69.430  1.00  0.00    -0.256 A  
HETATM    5  C   UNL     1     -11.007   5.998  68.135  1.00  0.00    -0.340 A  
HETATM    6  C   UNL     1     -10.230   6.990  67.529  1.00  0.00    -0.257 A  
HETATM    7  C   UNL     1      -9.945   8.147  68.271  1.00  0.00    -0.212 A  
HETATM    8  C   UNL     1     -10.110   9.606  70.248  1.00  0.00    -0.275 C  
HETATM    9  O   UNL     1     -11.039  10.068  71.109  1.00  0.00    -0.333 OA 
HETATM   10  C   UNL     1     -10.471   8.332  69.565  1.00  0.00    -0.228 A  
HETATM   11  O   UNL     1      -9.084  10.216  69.991  1.00  0.00    -0.161 OA 
BRANCH   6  12
HETATM   12  C   UNL     1      -9.729   6.864  66.104  1.00  0.00     0.112 C  
BRANCH  12  13
HETATM   13  N   UNL     1      -8.267   6.932  65.926  1.00  0.00    -0.123 N  
HETATM   14  O   UNL     1      -6.140   6.276  66.562  1.00  0.00    -0.027 OA 
HETATM   15  C   UNL     1      -7.363   6.089  66.616  1.00  0.00    -0.078 C  
BRANCH  13  16
HETATM   16  C   UNL     1      -7.717   8.136  65.252  1.00  0.00    -0.101 C  
HETATM   17  C   UNL     1      -7.894   8.138  63.722  1.00  0.00    -0.147 C  
BRANCH  16  18
HETATM   18  C   UNL     1      -8.344   9.405  65.790  1.00  0.00    -0.122 A  
HETATM   19  C   UNL     1      -8.370  11.442  66.678  1.00  0.00    -0.172 A  
HETATM   20  C   UNL     1      -9.479  11.245  65.884  1.00  0.00    -0.222 A  
HETATM   21  N   UNL     1      -9.470   9.963  65.383  1.00  0.00    -0.237 NA 
HETATM   22  H   UNL     1     -10.191   9.528  64.808  1.00  0.00     0.000 HD 
HETATM   23  N   UNL     1      -7.675  10.258  66.636  1.00  0.00    -0.110 NA 
BRANCH  20  24
HETATM   24  C   UNL     1     -10.485  12.227  65.501  1.00  0.00    -0.296 A  
HETATM   25  C   UNL     1     -12.072  13.950  66.187  1.00  0.00    -0.478 A  
HETATM   26  C   UNL     1     -12.542  14.056  64.881  1.00  0.00    -0.369 A  
HETATM   27  C   UNL     1     -11.978  13.264  63.880  1.00  0.00    -0.541 A  
HETATM   28  C   UNL     1     -11.051  13.046  66.491  1.00  0.00    -0.315 A  
HETATM   29  C   UNL     1     -10.952  12.359  64.185  1.00  0.00    -0.416 A  
ENDBRANCH  20  24
ENDBRANCH  16  18
ENDBRANCH  13  16
BRANCH  15  30
HETATM   30  C   UNL     1      -7.958   4.879  67.430  1.00  0.00    -0.095 C  
HETATM   31  H2  UNL     1      -6.921   3.447  66.304  1.00  0.00     0.000 HD 
HETATM   32  N   UNL     1      -7.872   3.632  66.622  1.00  0.00    -0.087 NA 
HETATM   33  H1  UNL     1      -8.258   2.849  67.150  1.00  0.00     0.000 HD 
BRANCH  30  34
HETATM   34  C   UNL     1      -7.265   4.559  68.773  1.00  0.00    -0.053 C  
BRANCH  34  35
HETATM   35  C   UNL     1      -8.009   4.814  70.071  1.00  0.00    -0.069 A  
HETATM   36  C   UNL     1      -9.330   2.623  69.744  1.00  0.00    -0.185 C  
HETATM   37  C   UNL     1      -8.541   6.189  72.021  1.00  0.00    -0.132 A  
HETATM   38  C   UNL     1      -7.007   7.190  70.374  1.00  0.00    -0.058 C  
HETATM   39  C   UNL     1      -8.971   3.869  70.518  1.00  0.00    -0.160 A  
HETATM   40  C   UNL     1      -7.852   6.017  70.803  1.00  0.00    -0.103 A  
HETATM   41  C   UNL     1      -9.418   5.221  72.499  1.00  0.00    -0.164 A  
HETATM   42  C   UNL     1      -9.642   4.076  71.733  1.00  0.00    -0.223 A  
BRANCH  41  43
HETATM   43  C   UNL     1     -10.175   5.356  73.776  1.00  0.00    -0.223 C  
HETATM   44  H2  UNL     1     -10.251   7.432  73.686  1.00  0.00     0.000 HD 
HETATM   45  H1  UNL     1     -11.031   6.696  75.095  1.00  0.00     0.000 HD 
HETATM   46  N   UNL     1     -10.513   6.604  74.221  1.00  0.00    -0.274 N  
HETATM   47  O   UNL     1     -10.500   4.374  74.436  1.00  0.00    -0.234 OA 
ENDBRANCH  41  43
ENDBRANCH  34  35
ENDBRANCH  30  34
ENDBRANCH  15  30
ENDBRANCH  12  13
ENDBRANCH   6  12
ENDBRANCH   2   3
TORSDOF 10
ENDMDL
MODEL       36
REMARK 921   NORMALIZED FREE ENERGY PREDICTED BY IDOCK:   -5.84 KCAL/MOL
REMARK 922        TOTAL FREE ENERGY PREDICTED BY IDOCK:  -12.13 KCAL/MOL
REMARK 923 INTER-LIGAND FREE ENERGY PREDICTED BY IDOCK:  -11.40 KCAL/MOL
REMARK 924 INTRA-LIGAND FREE ENERGY PREDICTED BY IDOCK:   -0.73 KCAL/MOL
REMARK 927      BINDING AFFINITY PREDICTED BY RF-SCORE:    0.00 PKD
ROOT
HETATM    1  C   UNL     1     -12.658  14.469  73.497  1.00  0.00    -0.199 C  
HETATM    2  O   UNL     1     -13.558  13.646  72.754  1.00  0.00    -0.672 OA 
ENDROOT
BRANCH   2   3
HETATM    3  C   UNL     1     -13.040  12.974  71.675  1.00  0.00    -0.347 A  
HETATM    4  C   UNL     1     -12.816  11.594  71.654  1.00  0.00    -0.454 A  
HETATM    5  C   UNL     1     -12.379  10.957  70.488  1.00  0.00    -0.463 A  
HETATM    6  C   UNL     1     -12.119  11.680  69.321  1.00  0.00    -0.323 A  
HETATM    7  C   UNL     1     -12.285  13.074  69.359  1.00  0.00    -0.167 A  
HETATM    8  C   UNL     1     -12.902  15.201  70.435  1.00  0.00    -0.304 C  
HETATM    9  O   UNL     1     -13.880  15.716  71.208  1.00  0.00    -0.573 OA 
HETATM   10  C   UNL     1     -12.753  13.721  70.519  1.00  0.00    -0.293 A  
HETATM   11  O   UNL     1     -12.235  15.881  69.670  1.00  0.00    -0.303 OA 
BRANCH   6  12
HETATM   12  C   UNL     1     -11.706  11.004  68.028  1.00  0.00    -0.179 C  
BRANCH  12  13
HETATM   13  N   UNL     1     -10.293  11.166  67.639  1.00  0.00    -0.186 N  
HETATM   14  O   UNL     1      -8.704  11.943  66.146  1.00  0.00    -0.133 OA 
HETATM   15  C   UNL     1      -9.878  11.954  66.538  1.00  0.00    -0.206 C  
BRANCH  13  16
HETATM   16  C   UNL     1      -9.311  10.214  68.221  1.00  0.00    -0.133 C  
HETATM   17  C   UNL     1      -8.680  10.690  69.542  1.00  0.00     0.030 C  
BRANCH  16  18
HETATM   18  C   UNL     1      -9.940   8.858  68.472  1.00  0.00    -0.177 A  
HETATM   19  C   UNL     1     -10.379   6.717  68.075  1.00  0.00    -0.191 A  
HETATM   20  C   UNL     1     -10.443   6.983  69.426  1.00  0.00    -0.214 A  
HETATM   21  N   UNL     1     -10.216   8.323  69.646  1.00  0.00    -0.204 NA 
HETATM   22  H   UNL     1     -10.253   8.807  70.543  1.00  0.00     0.000 HD 
HETATM   23  N   UNL     1     -10.091   7.920  67.479  1.00  0.00    -0.193 NA 
BRANCH  20  24
HETATM   24  C   UNL     1     -10.609   6.028  70.514  1.00  0.00    -0.329 A  
HETATM   25  C   UNL     1     -11.517   5.538  72.726  1.00  0.00    -0.339 A  
HETATM   26  C   UNL     1     -10.869   4.307  72.734  1.00  0.00    -0.183 A  
HETATM   27  C   UNL     1     -10.105   3.923  71.631  1.00  0.00    -0.167 A  
HETATM   28  C   UNL     1     -11.389   6.389  71.625  1.00  0.00    -0.339 A  
HETATM   29  C   UNL     1      -9.979   4.775  70.525  1.00  0.00    -0.306 A  
ENDBRANCH  20  24
ENDBRANCH  16  18
ENDBRANCH  13  16
BRANCH  15  30
HETATM   30  C   UNL     1     -10.951  12.876  65.846  1.00  0.00    -0.276 C  
HETATM   31  H2  UNL     1     -12.553  11.641  66.398  1.00  0.00     0.000 HD 
HETATM   32  N   UNL     1     -12.185  12.093  65.561  1.00  0.00    -0.517 NA 
HETATM   33  H1  UNL     1     -12.880  12.691  65.113  1.00  0.00     0.000 HD 
BRANCH  30  34
HETATM   34  C   UNL     1     -11.412  14.107  66.658  1.00  0.00    -0.378 C  
BRANCH  34  35
HETATM   35  C   UNL     1     -10.522  15.335  66.711  1.00  0.00    -0.293 A  
HETATM   36  C   UNL     1     -11.550  16.175  64.500  1.00  0.00    -0.164 C  
HETATM   37  C   UNL     1      -8.742  16.670  67.723  1.00  0.00    -0.201 A  
HETATM   38  C   UNL     1      -9.167  14.472  68.751  1.00  0.00    -0.162 C  
HETATM   39  C   UNL     1     -10.621  16.310  65.683  1.00  0.00    -0.360 A  
HETATM   40  C   UNL     1      -9.518  15.494  67.699  1.00  0.00    -0.208 A  
HETATM   41  C   UNL     1      -8.903  17.664  66.763  1.00  0.00    -0.275 A  
HETATM   42  C   UNL     1      -9.829  17.467  65.737  1.00  0.00    -0.028 A  
BRANCH  41  43
HETATM   43  C   UNL     1      -8.105  18.922  66.740  1.00  0.00    -0.269 C  
HETATM   44  H2  UNL     1      -8.073  19.116  68.811  1.00  0.00     0.000 HD 
HETATM   45  H1  UNL     1      -7.230  20.385  67.907  1.00  0.00     0.000 HD 
HETATM   46  N   UNL     1      -7.776  19.524  67.923  1.00  0.00    -0.281 N  
HETATM   47  O   UNL     1      -7.738  19.431  65.686  1.00  0.00    -0.436 OA 
ENDBRANCH  41  43
ENDBRANCH  34  35
ENDBRANCH  30  34
ENDBRANCH  15  30
ENDBRANCH  12  13
ENDBRANCH   6  12
ENDBRANCH   2   3
TORSDOF 10
ENDMDL
MODEL       37
REMARK 921   NORMALIZED FREE ENERGY PREDICTED BY IDOCK:   -5.84 KCAL/MOL
REMARK 922        TOTAL FREE ENERGY PREDICTED BY IDOCK:  -12.12 KCAL/MOL
REMARK 923 INTER-LIGAND FREE ENERGY PREDICTED BY IDOCK:   -9.95 KCAL/MOL
REMARK 924 INTRA-LIGAND FREE ENERGY PREDICTED BY IDOCK:   -2.17 KCAL/MOL
REMARK 927      BINDING AFFINITY PREDICTED BY RF-SCORE:    0.00 PKD
ROOT
HETATM    1  C   UNL     1      -9.496   7.840  73.526  1.00  0.00    -0.284 C  
HETATM    2  O   UNL     1     -10.002   8.681  72.488  1.00  0.00    -0.282 OA 
ENDROOT
BRANCH   2   3
HETATM    3  C   UNL     1      -9.196   8.872  71.394  1.00  0.00    -0.258 A  
HETATM    4  C   UNL     1      -7.841   8.531  71.358  1.00  0.00    -0.153 A  
HETATM    5  C   UNL     1      -7.101   8.659  70.178  1.00  0.00    -0.044 A  
HETATM    6  C   UNL     1      -7.680   9.165  69.010  1.00  0.00    -0.078 A  
HETATM    7  C   UNL     1      -9.024   9.566  69.063  1.00  0.00    -0.144 A  
HETATM    8  C   UNL     1     -11.205   9.860  70.167  1.00  0.00    -0.289 C  
HETATM    9  O   UNL     1     -12.053   9.180  70.965  1.00  0.00    -0.290 OA 
HETATM   10  C   UNL     1      -9.786   9.412  70.237  1.00  0.00    -0.290 A  
HETATM   11  O   UNL     1     -11.577  10.729  69.393  1.00  0.00    -0.265 OA 
BRANCH   6  12
HETATM   12  C   UNL     1      -6.915   9.254  67.704  1.00  0.00    -0.078 C  
BRANCH  12  13
HETATM   13  N   UNL     1      -7.418   8.411  66.605  1.00  0.00    -0.082 N  
HETATM   14  O   UNL     1      -8.760   8.145  64.738  1.00  0.00    -0.043 OA 
HETATM   15  C   UNL     1      -8.229   8.907  65.556  1.00  0.00    -0.129 C  
BRANCH  13  16
HETATM   16  C   UNL     1      -7.339   6.937  66.784  1.00  0.00    -0.078 C  
HETATM   17  C   UNL     1      -6.056   6.456  67.488  1.00  0.00    -0.024 C  
BRANCH  16  18
HETATM   18  C   UNL     1      -8.522   6.413  67.572  1.00  0.00    -0.116 A  
HETATM   19  C   UNL     1     -10.427   5.316  67.888  1.00  0.00    -0.085 A  
HETATM   20  C   UNL     1      -9.680   5.334  69.046  1.00  0.00    -0.156 A  
HETATM   21  N   UNL     1      -8.527   6.058  68.843  1.00  0.00    -0.116 NA 
HETATM   22  H   UNL     1      -7.815   6.278  69.540  1.00  0.00     0.000 HD 
HETATM   23  N   UNL     1      -9.698   6.031  66.971  1.00  0.00    -0.131 NA 
BRANCH  20  24
HETATM   24  C   UNL     1      -9.950   4.626  70.291  1.00  0.00    -0.309 A  
HETATM   25  C   UNL     1     -10.814   4.694  72.573  1.00  0.00    -0.180 A  
HETATM   26  C   UNL     1     -10.387   3.387  72.788  1.00  0.00    -0.240 A  
HETATM   27  C   UNL     1      -9.757   2.689  71.756  1.00  0.00    -0.224 A  
HETATM   28  C   UNL     1     -10.598   5.305  71.335  1.00  0.00    -0.247 A  
HETATM   29  C   UNL     1      -9.545   3.302  70.512  1.00  0.00    -0.218 A  
ENDBRANCH  20  24
ENDBRANCH  16  18
ENDBRANCH  13  16
BRANCH  15  30
HETATM   30  C   UNL     1      -8.408  10.467  65.439  1.00  0.00    -0.165 C  
HETATM   31  H2  UNL     1      -8.897  10.385  63.403  1.00  0.00     0.000 HD 
HETATM   32  N   UNL     1      -8.261  10.890  64.020  1.00  0.00    -0.365 NA 
HETATM   33  H1  UNL     1      -8.377  11.901  63.945  1.00  0.00     0.000 HD 
BRANCH  30  34
HETATM   34  C   UNL     1      -9.768  11.030  65.908  1.00  0.00    -0.267 C  
BRANCH  34  35
HETATM   35  C   UNL     1     -10.045  12.515  65.764  1.00  0.00    -0.278 A  
HETATM   36  C   UNL     1      -8.882  12.951  68.024  1.00  0.00    -0.195 C  
HETATM   37  C   UNL     1     -11.026  14.426  64.596  1.00  0.00    -0.367 A  
HETATM   38  C   UNL     1     -11.522  12.206  63.651  1.00  0.00    -0.566 C  
HETATM   39  C   UNL     1      -9.597  13.407  66.774  1.00  0.00    -0.262 A  
HETATM   40  C   UNL     1     -10.828  13.035  64.702  1.00  0.00    -0.373 A  
HETATM   41  C   UNL     1     -10.511  15.305  65.543  1.00  0.00    -0.396 A  
HETATM   42  C   UNL     1      -9.816  14.786  66.638  1.00  0.00    -0.270 A  
BRANCH  41  43
HETATM   43  C   UNL     1     -10.695  16.782  65.481  1.00  0.00    -0.196 C  
HETATM   44  H2  UNL     1      -9.725  17.131  67.287  1.00  0.00     0.000 HD 
HETATM   45  H1  UNL     1     -10.335  18.569  66.453  1.00  0.00     0.000 HD 
HETATM   46  N   UNL     1     -10.209  17.558  66.496  1.00  0.00    -0.334 N  
HETATM   47  O   UNL     1     -11.275  17.318  64.541  1.00  0.00    -1.083 OA 
ENDBRANCH  41  43
ENDBRANCH  34  35
ENDBRANCH  30  34
ENDBRANCH  15  30
ENDBRANCH  12  13
ENDBRANCH   6  12
ENDBRANCH   2   3
TORSDOF 10
ENDMDL
MODEL       38
REMARK 921   NORMALIZED FREE ENERGY PREDICTED BY IDOCK:   -5.84 KCAL/MOL
REMARK 922        TOTAL FREE ENERGY PREDICTED BY IDOCK:  -12.12 KCAL/MOL
REMARK 923 INTER-LIGAND FREE ENERGY PREDICTED BY IDOCK:  -11.17 KCAL/MOL
REMARK 924 INTRA-LIGAND FREE ENERGY PREDICTED BY IDOCK:   -0.94 KCAL/MOL
REMARK 927      BINDING AFFINITY PREDICTED BY RF-SCORE:    0.00 PKD
ROOT
HETATM    1  C   UNL     1     -13.589  15.662  72.734  1.00  0.00    -0.593 C  
HETATM    2  O   UNL     1     -13.677  14.596  71.788  1.00  0.00    -0.353 OA 
ENDROOT
BRANCH   2   3
HETATM    3  C   UNL     1     -12.823  14.645  70.714  1.00  0.00    -0.358 A  
HETATM    4  C   UNL     1     -12.389  15.833  70.120  1.00  0.00    -0.309 A  
HETATM    5  C   UNL     1     -11.441  15.815  69.092  1.00  0.00    -0.383 A  
HETATM    6  C   UNL     1     -10.925  14.612  68.602  1.00  0.00    -0.266 A  
HETATM    7  C   UNL     1     -11.406  13.415  69.157  1.00  0.00    -0.333 A  
HETATM    8  C   UNL     1     -12.763  12.092  70.728  1.00  0.00    -0.143 C  
HETATM    9  O   UNL     1     -13.094  12.071  72.035  1.00  0.00    -0.456 OA 
HETATM   10  C   UNL     1     -12.338  13.424  70.213  1.00  0.00    -0.354 A  
HETATM   11  O   UNL     1     -12.745  11.087  70.034  1.00  0.00    -0.230 OA 
BRANCH   6  12
HETATM   12  C   UNL     1      -9.850  14.571  67.534  1.00  0.00    -0.222 C  
BRANCH  12  13
HETATM   13  N   UNL     1     -10.239  13.954  66.253  1.00  0.00    -0.289 N  
HETATM   14  O   UNL     1     -10.306  12.107  64.859  1.00  0.00    -0.273 OA 
HETATM   15  C   UNL     1     -10.118  12.567  65.992  1.00  0.00    -0.253 C  
BRANCH  13  16
HETATM   16  C   UNL     1     -10.455  14.861  65.095  1.00  0.00    -0.417 C  
HETATM   17  C   UNL     1     -11.899  14.866  64.560  1.00  0.00    -0.404 C  
BRANCH  16  18
HETATM   18  C   UNL     1     -10.085  16.290  65.438  1.00  0.00    -0.145 A  
HETATM   19  C   UNL     1     -10.457  18.400  66.026  1.00  0.00    -0.374 A  
HETATM   20  C   UNL     1      -9.214  17.988  66.457  1.00  0.00    -0.275 A  
HETATM   21  N   UNL     1      -8.984  16.696  66.042  1.00  0.00    -0.482 NA 
HETATM   22  H   UNL     1      -8.128  16.157  66.175  1.00  0.00     0.000 HD 
HETATM   23  N   UNL     1     -10.986  17.325  65.354  1.00  0.00    -0.344 NA 
BRANCH  20  24
HETATM   24  C   UNL     1      -8.285  18.712  67.314  1.00  0.00    -0.261 A  
HETATM   25  C   UNL     1      -6.953  20.720  67.704  1.00  0.00    -0.375 A  
HETATM   26  C   UNL     1      -6.381  20.137  68.831  1.00  0.00    -0.358 A  
HETATM   27  C   UNL     1      -6.767  18.852  69.214  1.00  0.00    -0.310 A  
HETATM   28  C   UNL     1      -7.898  20.013  66.955  1.00  0.00    -0.345 A  
HETATM   29  C   UNL     1      -7.718  18.144  68.465  1.00  0.00    -0.307 A  
ENDBRANCH  20  24
ENDBRANCH  16  18
ENDBRANCH  13  16
BRANCH  15  30
HETATM   30  C   UNL     1      -9.771  11.619  67.201  1.00  0.00    -0.181 C  
HETATM   31  H2  UNL     1     -10.952  10.048  66.471  1.00  0.00     0.000 HD 
HETATM   32  N   UNL     1     -10.816  10.567  67.338  1.00  0.00    -0.286 NA 
HETATM   33  H1  UNL     1     -10.591   9.953  68.120  1.00  0.00     0.000 HD 
BRANCH  30  34
HETATM   34  C   UNL     1      -8.426  10.865  67.106  1.00  0.00    -0.128 C  
BRANCH  34  35
HETATM   35  C   UNL     1      -8.378   9.388  67.450  1.00  0.00    -0.125 A  
HETATM   36  C   UNL     1      -7.971   9.978  69.928  1.00  0.00    -0.184 C  
HETATM   37  C   UNL     1      -8.409   7.024  66.829  1.00  0.00    -0.116 A  
HETATM   38  C   UNL     1      -8.454   8.635  64.966  1.00  0.00    -0.192 C  
HETATM   39  C   UNL     1      -8.179   8.995  68.800  1.00  0.00    -0.117 A  
HETATM   40  C   UNL     1      -8.422   8.382  66.453  1.00  0.00    -0.127 A  
HETATM   41  C   UNL     1      -8.301   6.643  68.163  1.00  0.00    -0.117 A  
HETATM   42  C   UNL     1      -8.166   7.633  69.138  1.00  0.00    -0.130 A  
BRANCH  41  43
HETATM   43  C   UNL     1      -8.277   5.223  68.613  1.00  0.00    -0.093 C  
HETATM   44  H2  UNL     1      -7.504   4.511  66.819  1.00  0.00     0.000 HD 
HETATM   45  H1  UNL     1      -7.806   3.288  68.064  1.00  0.00     0.000 HD 
HETATM   46  N   UNL     1      -7.822   4.260  67.755  1.00  0.00    -0.083 N  
HETATM   47  O   UNL     1      -8.656   4.898  69.734  1.00  0.00    -0.085 OA 
ENDBRANCH  41  43
ENDBRANCH  34  35
ENDBRANCH  30  34
ENDBRANCH  15  30
ENDBRANCH  12  13
ENDBRANCH   6  12
ENDBRANCH   2   3
TORSDOF 10
ENDMDL
MODEL       39
REMARK 921   NORMALIZED FREE ENERGY PREDICTED BY IDOCK:   -5.83 KCAL/MOL
REMARK 922        TOTAL FREE ENERGY PREDICTED BY IDOCK:  -12.10 KCAL/MOL
REMARK 923 INTER-LIGAND FREE ENERGY PREDICTED BY IDOCK:  -11.03 KCAL/MOL
REMARK 924 INTRA-LIGAND FREE ENERGY PREDICTED BY IDOCK:   -1.08 KCAL/MOL
REMARK 927      BINDING AFFINITY PREDICTED BY RF-SCORE:    0.00 PKD
ROOT
HETATM    1  C   UNL     1      -6.645   8.870  65.665  1.00  0.00    -0.064 C  
HETATM    2  O   UNL     1      -6.742   9.348  67.008  1.00  0.00    -0.074 OA 
ENDROOT
BRANCH   2   3
HETATM    3  C   UNL     1      -7.994   9.689  67.457  1.00  0.00    -0.106 A  
HETATM    4  C   UNL     1      -9.099   9.864  66.620  1.00  0.00    -0.171 A  
HETATM    5  C   UNL     1     -10.368  10.114  67.152  1.00  0.00    -0.295 A  
HETATM    6  C   UNL     1     -10.566  10.235  68.530  1.00  0.00    -0.240 A  
HETATM    7  C   UNL     1      -9.445  10.121  69.368  1.00  0.00    -0.240 A  
HETATM    8  C   UNL     1      -7.059   9.727  69.833  1.00  0.00    -0.108 C  
HETATM    9  O   UNL     1      -6.069   8.883  69.479  1.00  0.00    -0.036 OA 
HETATM   10  C   UNL     1      -8.169   9.838  68.844  1.00  0.00    -0.117 A  
HETATM   11  O   UNL     1      -7.085  10.304  70.910  1.00  0.00    -0.278 OA 
BRANCH   6  12
HETATM   12  C   UNL     1     -11.942  10.443  69.132  1.00  0.00     0.016 C  
BRANCH  12  13
HETATM   13  N   UNL     1     -12.084  11.605  70.028  1.00  0.00    -0.324 N  
HETATM   14  O   UNL     1     -11.795  13.865  70.437  1.00  0.00    -0.298 OA 
HETATM   15  C   UNL     1     -11.816  12.934  69.621  1.00  0.00    -0.320 C  
BRANCH  13  16
HETATM   16  C   UNL     1     -12.196  11.334  71.485  1.00  0.00     0.028 C  
HETATM   17  C   UNL     1     -13.325  12.112  72.185  1.00  0.00    -0.438 C  
BRANCH  16  18
HETATM   18  C   UNL     1     -12.413   9.860  71.757  1.00  0.00    -0.397 A  
HETATM   19  C   UNL     1     -13.439   7.895  71.605  1.00  0.00    -0.341 A  
HETATM   20  C   UNL     1     -12.088   7.722  71.815  1.00  0.00    -0.298 A  
HETATM   21  N   UNL     1     -11.479   8.948  71.954  1.00  0.00    -0.355 NA 
HETATM   22  H   UNL     1     -10.496   9.119  72.168  1.00  0.00     0.000 HD 
HETATM   23  N   UNL     1     -13.638   9.254  71.602  1.00  0.00    -0.386 NA 
BRANCH  20  24
HETATM   24  C   UNL     1     -11.337   6.473  71.793  1.00  0.00    -0.325 A  
HETATM   25  C   UNL     1     -10.097   4.819  70.495  1.00  0.00    -0.291 A  
HETATM   26  C   UNL     1      -9.991   4.000  71.615  1.00  0.00    -0.232 A  
HETATM   27  C   UNL     1     -10.540   4.418  72.829  1.00  0.00    -0.254 A  
HETATM   28  C   UNL     1     -10.763   6.044  70.585  1.00  0.00    -0.341 A  
HETATM   29  C   UNL     1     -11.204   5.649  72.920  1.00  0.00    -0.338 A  
ENDBRANCH  20  24
ENDBRANCH  16  18
ENDBRANCH  13  16
BRANCH  15  30
HETATM   30  C   UNL     1     -11.580  13.201  68.087  1.00  0.00    -0.339 C  
HETATM   31  H2  UNL     1     -12.730  14.954  68.086  1.00  0.00     0.000 HD 
HETATM   32  N   UNL     1     -12.651  14.087  67.554  1.00  0.00    -0.347 NA 
HETATM   33  H1  UNL     1     -12.498  14.260  66.561  1.00  0.00     0.000 HD 
BRANCH  30  34
HETATM   34  C   UNL     1     -10.245  13.885  67.715  1.00  0.00    -0.237 C  
BRANCH  34  35
HETATM   35  C   UNL     1     -10.228  15.377  67.442  1.00  0.00    -0.249 A  
HETATM   36  C   UNL     1     -10.419  14.916  64.912  1.00  0.00    -0.389 C  
HETATM   37  C   UNL     1     -10.037  17.704  68.168  1.00  0.00    -0.347 A  
HETATM   38  C   UNL     1      -9.708  15.993  69.910  1.00  0.00     0.066 C  
HETATM   39  C   UNL     1     -10.331  15.840  66.103  1.00  0.00    -0.333 A  
HETATM   40  C   UNL     1     -10.009  16.328  68.471  1.00  0.00    -0.234 A  
HETATM   41  C   UNL     1     -10.225  18.156  66.866  1.00  0.00    -0.380 A  
HETATM   42  C   UNL     1     -10.350  17.218  65.839  1.00  0.00    -0.287 A  
BRANCH  41  43
HETATM   43  C   UNL     1     -10.257  19.597  66.492  1.00  0.00    -0.480 C  
HETATM   44  H2  UNL     1      -9.217  20.213  68.185  1.00  0.00     0.000 HD 
HETATM   45  H1  UNL     1      -9.693  21.501  67.065  1.00  0.00     0.000 HD 
HETATM   46  N   UNL     1      -9.671  20.514  67.321  1.00  0.00    -0.464 N  
HETATM   47  O   UNL     1     -10.797  19.981  65.459  1.00  0.00    -0.381 OA 
ENDBRANCH  41  43
ENDBRANCH  34  35
ENDBRANCH  30  34
ENDBRANCH  15  30
ENDBRANCH  12  13
ENDBRANCH   6  12
ENDBRANCH   2   3
TORSDOF 10
ENDMDL
MODEL       40
REMARK 921   NORMALIZED FREE ENERGY PREDICTED BY IDOCK:   -5.82 KCAL/MOL
REMARK 922        TOTAL FREE ENERGY PREDICTED BY IDOCK:  -12.09 KCAL/MOL
REMARK 923 INTER-LIGAND FREE ENERGY PREDICTED BY IDOCK:   -8.92 KCAL/MOL
REMARK 924 INTRA-LIGAND FREE ENERGY PREDICTED BY IDOCK:   -3.17 KCAL/MOL
REMARK 927      BINDING AFFINITY PREDICTED BY RF-SCORE:    0.00 PKD
ROOT
HETATM    1  C   UNL     1      -8.239   5.753  62.827  1.00  0.00    -0.096 C  
HETATM    2  O   UNL     1      -7.463   5.931  64.014  1.00  0.00    -0.066 OA 
ENDROOT
BRANCH   2   3
HETATM    3  C   UNL     1      -7.534   7.157  64.625  1.00  0.00    -0.098 A  
HETATM    4  C   UNL     1      -8.190   8.262  64.077  1.00  0.00    -0.098 A  
HETATM    5  C   UNL     1      -8.310   9.455  64.797  1.00  0.00    -0.159 A  
HETATM    6  C   UNL     1      -7.747   9.594  66.069  1.00  0.00    -0.102 A  
HETATM    7  C   UNL     1      -7.035   8.504  66.595  1.00  0.00    -0.076 A  
HETATM    8  C   UNL     1      -6.164   6.201  66.556  1.00  0.00    -0.037 C  
HETATM    9  O   UNL     1      -6.575   4.953  66.257  1.00  0.00    -0.046 OA 
HETATM   10  C   UNL     1      -6.935   7.289  65.890  1.00  0.00    -0.061 A  
HETATM   11  O   UNL     1      -5.277   6.431  67.364  1.00  0.00    -0.004 OA 
BRANCH   6  12
HETATM   12  C   UNL     1      -7.919  10.854  66.894  1.00  0.00    -0.138 C  
BRANCH  12  13
HETATM   13  N   UNL     1      -7.977  10.665  68.355  1.00  0.00    -0.114 N  
HETATM   14  O   UNL     1      -9.160  10.059  70.250  1.00  0.00    -0.136 OA 
HETATM   15  C   UNL     1      -9.074  10.061  69.015  1.00  0.00    -0.171 C  
BRANCH  13  16
HETATM   16  C   UNL     1      -7.002  11.424  69.181  1.00  0.00    -0.118 C  
HETATM   17  C   UNL     1      -5.546  10.942  69.039  1.00  0.00    -0.040 C  
BRANCH  16  18
HETATM   18  C   UNL     1      -7.033  12.902  68.850  1.00  0.00    -0.084 A  
HETATM   19  C   UNL     1      -6.414  14.766  67.811  1.00  0.00    -0.164 A  
HETATM   20  C   UNL     1      -7.741  14.833  68.177  1.00  0.00    -0.122 A  
HETATM   21  N   UNL     1      -8.092  13.691  68.861  1.00  0.00    -0.342 NA 
HETATM   22  H   UNL     1      -8.995  13.492  69.292  1.00  0.00     0.000 HD 
HETATM   23  N   UNL     1      -5.968  13.552  68.272  1.00  0.00    -0.089 NA 
BRANCH  20  24
HETATM   24  C   UNL     1      -8.709  15.866  67.831  1.00  0.00    -0.168 A  
HETATM   25  C   UNL     1     -10.100  17.735  68.559  1.00  0.00    -0.377 A  
HETATM   26  C   UNL     1     -10.684  17.807  67.298  1.00  0.00    -0.249 A  
HETATM   27  C   UNL     1     -10.275  16.926  66.296  1.00  0.00    -0.337 A  
HETATM   28  C   UNL     1      -9.120  16.774  68.820  1.00  0.00    -0.259 A  
HETATM   29  C   UNL     1      -9.289  15.964  66.558  1.00  0.00    -0.306 A  
ENDBRANCH  20  24
ENDBRANCH  16  18
ENDBRANCH  13  16
BRANCH  15  30
HETATM   30  C   UNL     1     -10.170   9.357  68.129  1.00  0.00    -0.200 C  
HETATM   31  H2  UNL     1     -10.722   8.023  69.648  1.00  0.00     0.000 HD 
HETATM   32  N   UNL     1     -10.460   7.999  68.663  1.00  0.00    -0.295 NA 
HETATM   33  H1  UNL     1     -11.169   7.544  68.089  1.00  0.00     0.000 HD 
BRANCH  30  34
HETATM   34  C   UNL     1     -11.535  10.076  68.042  1.00  0.00     0.115 C  
BRANCH  34  35
HETATM   35  C   UNL     1     -11.730  11.387  68.780  1.00  0.00    -0.404 A  
HETATM   36  C   UNL     1     -12.541  10.097  70.860  1.00  0.00    -0.454 C  
HETATM   37  C   UNL     1     -11.727  13.830  68.881  1.00  0.00    -0.374 A  
HETATM   38  C   UNL     1     -11.253  12.834  66.677  1.00  0.00    -0.344 C  
HETATM   39  C   UNL     1     -12.192  11.367  70.123  1.00  0.00    -0.401 A  
HETATM   40  C   UNL     1     -11.566  12.641  68.140  1.00  0.00    -0.386 A  
HETATM   41  C   UNL     1     -12.095  13.804  70.222  1.00  0.00    -0.425 A  
HETATM   42  C   UNL     1     -12.345  12.571  70.828  1.00  0.00    -0.376 A  
BRANCH  41  43
HETATM   43  C   UNL     1     -12.283  15.029  71.047  1.00  0.00    -0.326 C  
HETATM   44  H2  UNL     1     -10.645  14.640  72.268  1.00  0.00     0.000 HD 
HETATM   45  H1  UNL     1     -11.542  16.122  72.636  1.00  0.00     0.000 HD 
HETATM   46  N   UNL     1     -11.413  15.282  72.071  1.00  0.00    -0.439 N  
HETATM   47  O   UNL     1     -13.200  15.815  70.830  1.00  0.00    -0.560 OA 
ENDBRANCH  41  43
ENDBRANCH  34  35
ENDBRANCH  30  34
ENDBRANCH  15  30
ENDBRANCH  12  13
ENDBRANCH   6  12
ENDBRANCH   2   3
TORSDOF 10
ENDMDL
MODEL       41
REMARK 921   NORMALIZED FREE ENERGY PREDICTED BY IDOCK:   -5.80 KCAL/MOL
REMARK 922        TOTAL FREE ENERGY PREDICTED BY IDOCK:  -12.07 KCAL/MOL
REMARK 923 INTER-LIGAND FREE ENERGY PREDICTED BY IDOCK:   -9.93 KCAL/MOL
REMARK 924 INTRA-LIGAND FREE ENERGY PREDICTED BY IDOCK:   -2.14 KCAL/MOL
REMARK 927      BINDING AFFINITY PREDICTED BY RF-SCORE:    0.00 PKD
ROOT
HETATM    1  C   UNL     1     -10.266  19.785  67.513  1.00  0.00    -0.436 C  
HETATM    2  O   UNL     1      -9.230  19.132  66.778  1.00  0.00    -0.296 OA 
ENDROOT
BRANCH   2   3
HETATM    3  C   UNL     1      -9.385  17.789  66.544  1.00  0.00    -0.279 A  
HETATM    4  C   UNL     1     -10.456  17.243  65.831  1.00  0.00    -0.267 A  
HETATM    5  C   UNL     1     -10.501  15.875  65.543  1.00  0.00    -0.425 A  
HETATM    6  C   UNL     1      -9.500  15.006  65.988  1.00  0.00    -0.337 A  
HETATM    7  C   UNL     1      -8.456  15.545  66.756  1.00  0.00    -0.314 A  
HETATM    8  C   UNL     1      -7.224  17.380  67.841  1.00  0.00    -0.188 C  
HETATM    9  O   UNL     1      -6.803  18.633  67.574  1.00  0.00    -0.202 OA 
HETATM   10  C   UNL     1      -8.385  16.925  67.026  1.00  0.00    -0.227 A  
HETATM   11  O   UNL     1      -6.657  16.646  68.635  1.00  0.00    -0.146 OA 
BRANCH   6  12
HETATM   12  C   UNL     1      -9.496  13.532  65.633  1.00  0.00     0.127 C  
BRANCH  12  13
HETATM   13  N   UNL     1     -10.744  12.799  65.912  1.00  0.00    -0.267 N  
HETATM   14  O   UNL     1     -12.103  11.649  67.391  1.00  0.00    -0.605 OA 
HETATM   15  C   UNL     1     -11.132  12.396  67.212  1.00  0.00    -0.281 C  
BRANCH  13  16
HETATM   16  C   UNL     1     -11.447  12.185  64.755  1.00  0.00    -0.322 C  
HETATM   17  C   UNL     1     -12.139  13.201  63.828  1.00  0.00    -0.563 C  
BRANCH  16  18
HETATM   18  C   UNL     1     -10.501  11.359  63.910  1.00  0.00    -0.387 A  
HETATM   19  C   UNL     1      -8.762  10.989  62.576  1.00  0.00    -0.287 A  
HETATM   20  C   UNL     1      -9.032   9.875  63.341  1.00  0.00    -0.256 A  
HETATM   21  N   UNL     1     -10.140  10.107  64.125  1.00  0.00    -0.463 NA 
HETATM   22  H   UNL     1     -10.594   9.441  64.750  1.00  0.00     0.000 HD 
HETATM   23  N   UNL     1      -9.720  11.911  62.922  1.00  0.00    -0.278 NA 
BRANCH  20  24
HETATM   24  C   UNL     1      -8.246   8.652  63.440  1.00  0.00    -0.155 A  
HETATM   25  C   UNL     1      -7.321   6.887  64.850  1.00  0.00    -0.087 A  
HETATM   26  C   UNL     1      -6.627   6.364  63.763  1.00  0.00    -0.030 A  
HETATM   27  C   UNL     1      -6.751   6.968  62.511  1.00  0.00    -0.052 A  
HETATM   28  C   UNL     1      -8.124   8.019  64.688  1.00  0.00    -0.140 A  
HETATM   29  C   UNL     1      -7.560   8.103  62.348  1.00  0.00    -0.112 A  
ENDBRANCH  20  24
ENDBRANCH  16  18
ENDBRANCH  13  16
BRANCH  15  30
HETATM   30  C   UNL     1     -10.309  12.955  68.433  1.00  0.00    -0.244 C  
HETATM   31  H2  UNL     1     -11.946  12.865  69.739  1.00  0.00     0.000 HD 
HETATM   32  N   UNL     1     -11.233  13.533  69.446  1.00  0.00    -0.407 NA 
HETATM   33  H1  UNL     1     -10.700  13.895  70.237  1.00  0.00     0.000 HD 
BRANCH  30  34
HETATM   34  C   UNL     1      -9.441  11.927  69.193  1.00  0.00     0.378 C  
BRANCH  34  35
HETATM   35  C   UNL     1      -9.749  10.448  69.052  1.00  0.00    -0.216 A  
HETATM   36  C   UNL     1      -8.158  10.310  67.026  1.00  0.00    -0.121 C  
HETATM   37  C   UNL     1     -10.955   8.422  69.697  1.00  0.00    -0.094 A  
HETATM   38  C   UNL     1     -11.619  10.494  70.853  1.00  0.00    -0.385 C  
HETATM   39  C   UNL     1      -9.112   9.700  68.026  1.00  0.00    -0.128 A  
HETATM   40  C   UNL     1     -10.732   9.806  69.846  1.00  0.00    -0.303 A  
HETATM   41  C   UNL     1     -10.265   7.674  68.748  1.00  0.00    -0.210 A  
HETATM   42  C   UNL     1      -9.362   8.325  67.905  1.00  0.00    -0.150 A  
BRANCH  41  43
HETATM   43  C   UNL     1     -10.467   6.212  68.548  1.00  0.00    -0.237 C  
HETATM   44  H2  UNL     1     -10.331   6.326  66.475  1.00  0.00     0.000 HD 
HETATM   45  H1  UNL     1     -10.606   4.707  67.139  1.00  0.00     0.000 HD 
HETATM   46  N   UNL     1     -10.468   5.708  67.276  1.00  0.00    -0.242 N  
HETATM   47  O   UNL     1     -10.634   5.451  69.495  1.00  0.00    -0.292 OA 
ENDBRANCH  41  43
ENDBRANCH  34  35
ENDBRANCH  30  34
ENDBRANCH  15  30
ENDBRANCH  12  13
ENDBRANCH   6  12
ENDBRANCH   2   3
TORSDOF 10
ENDMDL
MODEL       42
REMARK 921   NORMALIZED FREE ENERGY PREDICTED BY IDOCK:   -5.79 KCAL/MOL
REMARK 922        TOTAL FREE ENERGY PREDICTED BY IDOCK:  -12.05 KCAL/MOL
REMARK 923 INTER-LIGAND FREE ENERGY PREDICTED BY IDOCK:   -8.81 KCAL/MOL
REMARK 924 INTRA-LIGAND FREE ENERGY PREDICTED BY IDOCK:   -3.24 KCAL/MOL
REMARK 927      BINDING AFFINITY PREDICTED BY RF-SCORE:    0.00 PKD
ROOT
HETATM    1  C   UNL     1      -8.732  14.764  66.951  1.00  0.00    -0.236 C  
HETATM    2  O   UNL     1      -9.371  13.504  67.161  1.00  0.00    -0.222 OA 
ENDROOT
BRANCH   2   3
HETATM    3  C   UNL     1      -8.584  12.476  67.616  1.00  0.00    -0.178 A  
HETATM    4  C   UNL     1      -7.259  12.278  67.221  1.00  0.00    -0.138 A  
HETATM    5  C   UNL     1      -6.482  11.269  67.798  1.00  0.00    -0.060 A  
HETATM    6  C   UNL     1      -7.014  10.403  68.759  1.00  0.00    -0.068 A  
HETATM    7  C   UNL     1      -8.363  10.562  69.111  1.00  0.00    -0.154 A  
HETATM    8  C   UNL     1     -10.560  11.671  69.019  1.00  0.00    -0.153 C  
HETATM    9  O   UNL     1     -11.085  12.912  69.028  1.00  0.00    -0.251 OA 
HETATM   10  C   UNL     1      -9.145  11.595  68.558  1.00  0.00    -0.157 A  
HETATM   11  O   UNL     1     -11.168  10.691  69.422  1.00  0.00    -0.231 OA 
BRANCH   6  12
HETATM   12  C   UNL     1      -6.173   9.344  69.443  1.00  0.00    -0.040 C  
BRANCH  12  13
HETATM   13  N   UNL     1      -6.663   7.958  69.327  1.00  0.00    -0.043 N  
HETATM   14  O   UNL     1      -7.639   6.279  68.067  1.00  0.00    -0.098 OA 
HETATM   15  C   UNL     1      -7.089   7.388  68.103  1.00  0.00    -0.085 C  
BRANCH  13  16
HETATM   16  C   UNL     1      -7.025   7.254  70.584  1.00  0.00    -0.057 C  
HETATM   17  C   UNL     1      -6.697   8.043  71.865  1.00  0.00    -0.067 C  
BRANCH  16  18
HETATM   18  C   UNL     1      -8.500   6.909  70.619  1.00  0.00    -0.136 A  
HETATM   19  C   UNL     1     -10.286   5.661  71.053  1.00  0.00    -0.220 A  
HETATM   20  C   UNL     1     -10.610   7.000  71.087  1.00  0.00    -0.217 A  
HETATM   21  N   UNL     1      -9.503   7.754  70.768  1.00  0.00    -0.161 NA 
HETATM   22  H   UNL     1      -9.466   8.768  70.668  1.00  0.00     0.000 HD 
HETATM   23  N   UNL     1      -8.953   5.616  70.724  1.00  0.00    -0.142 NA 
BRANCH  20  24
HETATM   24  C   UNL     1     -11.874   7.600  71.496  1.00  0.00    -0.323 A  
HETATM   25  C   UNL     1     -14.311   7.470  71.555  1.00  0.00    -0.603 A  
HETATM   26  C   UNL     1     -14.378   8.740  72.118  1.00  0.00    -0.481 A  
HETATM   27  C   UNL     1     -13.200   9.438  72.388  1.00  0.00    -0.483 A  
HETATM   28  C   UNL     1     -13.069   6.905  71.249  1.00  0.00    -0.273 A  
HETATM   29  C   UNL     1     -11.954   8.870  72.084  1.00  0.00    -0.419 A  
ENDBRANCH  20  24
ENDBRANCH  16  18
ENDBRANCH  13  16
BRANCH  15  30
HETATM   30  C   UNL     1      -6.811   8.193  66.779  1.00  0.00    -0.069 C  
HETATM   31  H2  UNL     1      -5.403   6.804  66.081  1.00  0.00     0.000 HD 
HETATM   32  N   UNL     1      -5.484   7.811  66.222  1.00  0.00    -0.028 NA 
HETATM   33  H1  UNL     1      -5.304   8.333  65.364  1.00  0.00     0.000 HD 
BRANCH  30  34
HETATM   34  C   UNL     1      -7.824   7.983  65.632  1.00  0.00    -0.104 C  
BRANCH  34  35
HETATM   35  C   UNL     1      -8.789   9.100  65.282  1.00  0.00    -0.240 A  
HETATM   36  C   UNL     1      -7.069  10.064  63.618  1.00  0.00    -0.126 C  
HETATM   37  C   UNL     1     -10.892  10.311  65.579  1.00  0.00     0.293 A  
HETATM   38  C   UNL     1     -10.481   8.450  67.140  1.00  0.00    -0.380 C  
HETATM   39  C   UNL     1      -8.412  10.064  64.308  1.00  0.00    -0.179 A  
HETATM   40  C   UNL     1     -10.017   9.277  65.968  1.00  0.00    -0.325 A  
HETATM   41  C   UNL     1     -10.556  11.202  64.565  1.00  0.00    -0.397 A  
HETATM   42  C   UNL     1      -9.308  11.083  63.950  1.00  0.00    -0.233 A  
BRANCH  41  43
HETATM   43  C   UNL     1     -11.441  12.314  64.121  1.00  0.00    -0.383 C  
HETATM   44  H2  UNL     1     -12.742  11.065  63.085  1.00  0.00     0.000 HD 
HETATM   45  H1  UNL     1     -13.141  12.790  63.047  1.00  0.00     0.000 HD 
HETATM   46  N   UNL     1     -12.535  12.028  63.351  1.00  0.00    -0.579 N  
HETATM   47  O   UNL     1     -11.212  13.480  64.428  1.00  0.00    -0.365 OA 
ENDBRANCH  41  43
ENDBRANCH  34  35
ENDBRANCH  30  34
ENDBRANCH  15  30
ENDBRANCH  12  13
ENDBRANCH   6  12
ENDBRANCH   2   3
TORSDOF 10
ENDMDL
MODEL       43
REMARK 921   NORMALIZED FREE ENERGY PREDICTED BY IDOCK:   -5.78 KCAL/MOL
REMARK 922        TOTAL FREE ENERGY PREDICTED BY IDOCK:  -12.03 KCAL/MOL
REMARK 923 INTER-LIGAND FREE ENERGY PREDICTED BY IDOCK:  -11.21 KCAL/MOL
REMARK 924 INTRA-LIGAND FREE ENERGY PREDICTED BY IDOCK:   -0.82 KCAL/MOL
REMARK 927      BINDING AFFINITY PREDICTED BY RF-SCORE:    0.00 PKD
ROOT
HETATM    1  C   UNL     1     -11.892   7.988  72.666  1.00  0.00    -0.321 C  
HETATM    2  O   UNL     1     -10.580   8.536  72.525  1.00  0.00    -0.331 OA 
ENDROOT
BRANCH   2   3
HETATM    3  C   UNL     1     -10.233   9.005  71.282  1.00  0.00    -0.314 A  
HETATM    4  C   UNL     1     -11.155   9.473  70.343  1.00  0.00    -0.330 A  
HETATM    5  C   UNL     1     -10.726  10.030  69.134  1.00  0.00    -0.244 A  
HETATM    6  C   UNL     1      -9.369  10.103  68.810  1.00  0.00    -0.168 A  
HETATM    7  C   UNL     1      -8.445   9.577  69.727  1.00  0.00    -0.185 A  
HETATM    8  C   UNL     1      -7.791   8.527  71.856  1.00  0.00    -0.111 C  
HETATM    9  O   UNL     1      -8.061   8.621  73.173  1.00  0.00    -0.405 OA 
HETATM   10  C   UNL     1      -8.865   9.042  70.960  1.00  0.00    -0.291 A  
HETATM   11  O   UNL     1      -6.724   8.117  71.426  1.00  0.00    -0.048 OA 
BRANCH   6  12
HETATM   12  C   UNL     1      -8.878  10.760  67.535  1.00  0.00    -0.128 C  
BRANCH  12  13
HETATM   13  N   UNL     1      -9.898  10.997  66.498  1.00  0.00    -0.197 N  
HETATM   14  O   UNL     1     -11.840  12.049  65.804  1.00  0.00    -0.466 OA 
HETATM   15  C   UNL     1     -10.910  11.981  66.617  1.00  0.00    -0.272 C  
BRANCH  13  16
HETATM   16  C   UNL     1     -10.064   9.955  65.451  1.00  0.00    -0.200 C  
HETATM   17  C   UNL     1      -9.436  10.321  64.094  1.00  0.00    -0.358 C  
BRANCH  16  18
HETATM   18  C   UNL     1      -9.472   8.632  65.892  1.00  0.00    -0.173 A  
HETATM   19  C   UNL     1      -7.866   7.239  66.538  1.00  0.00    -0.109 A  
HETATM   20  C   UNL     1      -9.081   6.856  67.064  1.00  0.00    -0.136 A  
HETATM   21  N   UNL     1     -10.069   7.702  66.614  1.00  0.00    -0.407 NA 
HETATM   22  H   UNL     1     -11.069   7.626  66.802  1.00  0.00     0.000 HD 
HETATM   23  N   UNL     1      -8.132   8.346  65.771  1.00  0.00    -0.111 NA 
BRANCH  20  24
HETATM   24  C   UNL     1      -9.337   5.802  68.037  1.00  0.00    -0.112 A  
HETATM   25  C   UNL     1     -10.381   5.124  70.137  1.00  0.00    -0.340 A  
HETATM   26  C   UNL     1      -9.773   3.875  70.051  1.00  0.00    -0.242 A  
HETATM   27  C   UNL     1      -8.962   3.577  68.955  1.00  0.00    -0.182 A  
HETATM   28  C   UNL     1     -10.165   6.077  69.138  1.00  0.00    -0.258 A  
HETATM   29  C   UNL     1      -8.748   4.533  67.951  1.00  0.00    -0.114 A  
ENDBRANCH  20  24
ENDBRANCH  16  18
ENDBRANCH  13  16
BRANCH  15  30
HETATM   30  C   UNL     1     -10.796  13.014  67.801  1.00  0.00    -0.240 C  
HETATM   31  H2  UNL     1      -9.129  13.975  66.969  1.00  0.00     0.000 HD 
HETATM   32  N   UNL     1      -9.416  13.570  67.860  1.00  0.00    -0.207 NA 
HETATM   33  H1  UNL     1      -9.344  14.239  68.626  1.00  0.00     0.000 HD 
BRANCH  30  34
HETATM   34  C   UNL     1     -11.739  14.236  67.726  1.00  0.00    -0.408 C  
BRANCH  34  35
HETATM   35  C   UNL     1     -11.143  15.626  67.608  1.00  0.00    -0.305 A  
HETATM   36  C   UNL     1     -10.898  15.305  65.061  1.00  0.00    -0.457 C  
HETATM   37  C   UNL     1     -10.326  17.716  68.579  1.00  0.00    -0.370 A  
HETATM   38  C   UNL     1     -11.019  15.974  70.178  1.00  0.00    -0.369 C  
HETATM   39  C   UNL     1     -10.769  16.116  66.328  1.00  0.00    -0.213 A  
HETATM   40  C   UNL     1     -10.848  16.417  68.747  1.00  0.00    -0.338 A  
HETATM   41  C   UNL     1     -10.043  18.225  67.316  1.00  0.00    -0.366 A  
HETATM   42  C   UNL     1     -10.248  17.412  66.200  1.00  0.00    -0.334 A  
BRANCH  41  43
HETATM   43  C   UNL     1      -9.486  19.587  67.085  1.00  0.00    -0.332 C  
HETATM   44  H2  UNL     1      -7.789  19.253  68.241  1.00  0.00     0.000 HD 
HETATM   45  H1  UNL     1      -7.911  20.858  67.502  1.00  0.00     0.000 HD 
HETATM   46  N   UNL     1      -8.292  19.926  67.661  1.00  0.00    -0.315 N  
HETATM   47  O   UNL     1     -10.073  20.413  66.392  1.00  0.00    -0.404 OA 
ENDBRANCH  41  43
ENDBRANCH  34  35
ENDBRANCH  30  34
ENDBRANCH  15  30
ENDBRANCH  12  13
ENDBRANCH   6  12
ENDBRANCH   2   3
TORSDOF 10
ENDMDL
MODEL       44
REMARK 921   NORMALIZED FREE ENERGY PREDICTED BY IDOCK:   -5.77 KCAL/MOL
REMARK 922        TOTAL FREE ENERGY PREDICTED BY IDOCK:  -12.01 KCAL/MOL
REMARK 923 INTER-LIGAND FREE ENERGY PREDICTED BY IDOCK:   -9.93 KCAL/MOL
REMARK 924 INTRA-LIGAND FREE ENERGY PREDICTED BY IDOCK:   -2.08 KCAL/MOL
REMARK 927      BINDING AFFINITY PREDICTED BY RF-SCORE:    0.00 PKD
ROOT
HETATM    1  C   UNL     1      -8.209   5.377  65.470  1.00  0.00    -0.127 C  
HETATM    2  O   UNL     1      -7.213   5.924  66.336  1.00  0.00    -0.073 OA 
ENDROOT
BRANCH   2   3
HETATM    3  C   UNL     1      -7.428   7.196  66.807  1.00  0.00    -0.089 A  
HETATM    4  C   UNL     1      -8.004   8.218  66.048  1.00  0.00    -0.098 A  
HETATM    5  C   UNL     1      -8.287   9.462  66.620  1.00  0.00    -0.119 A  
HETATM    6  C   UNL     1      -7.971   9.736  67.954  1.00  0.00    -0.104 A  
HETATM    7  C   UNL     1      -7.336   8.730  68.699  1.00  0.00    -0.080 A  
HETATM    8  C   UNL     1      -6.409   6.474  69.034  1.00  0.00    -0.035 C  
HETATM    9  O   UNL     1      -6.723   5.187  68.784  1.00  0.00    -0.047 OA 
HETATM   10  C   UNL     1      -7.075   7.464  68.141  1.00  0.00    -0.085 A  
HETATM   11  O   UNL     1      -5.691   6.812  69.962  1.00  0.00    -0.021 OA 
BRANCH   6  12
HETATM   12  C   UNL     1      -8.325  11.055  68.612  1.00  0.00    -0.153 C  
BRANCH  12  13
HETATM   13  N   UNL     1      -9.742  11.455  68.533  1.00  0.00    -0.196 N  
HETATM   14  O   UNL     1     -11.981  10.966  68.858  1.00  0.00    -0.395 OA 
HETATM   15  C   UNL     1     -10.796  10.682  69.077  1.00  0.00    -0.235 C  
BRANCH  13  16
HETATM   16  C   UNL     1     -10.095  12.532  67.572  1.00  0.00    -0.207 C  
HETATM   17  C   UNL     1     -11.122  12.111  66.504  1.00  0.00    -0.352 C  
BRANCH  16  18
HETATM   18  C   UNL     1     -10.643  13.750  68.286  1.00  0.00    -0.255 A  
HETATM   19  C   UNL     1     -11.859  15.596  68.515  1.00  0.00    -0.237 A  
HETATM   20  C   UNL     1     -11.685  14.975  69.733  1.00  0.00    -0.307 A  
HETATM   21  N   UNL     1     -10.891  13.862  69.578  1.00  0.00    -0.447 NA 
HETATM   22  H   UNL     1     -10.558  13.243  70.317  1.00  0.00     0.000 HD 
HETATM   23  N   UNL     1     -11.167  14.828  67.611  1.00  0.00    -0.310 NA 
BRANCH  20  24
HETATM   24  C   UNL     1     -12.306  15.322  71.005  1.00  0.00    -0.426 A  
HETATM   25  C   UNL     1     -12.032  16.020  73.327  1.00  0.00    -0.550 A  
HETATM   26  C   UNL     1     -13.398  15.875  73.546  1.00  0.00    -0.516 A  
HETATM   27  C   UNL     1     -14.225  15.471  72.497  1.00  0.00    -0.502 A  
HETATM   28  C   UNL     1     -11.493  15.748  72.067  1.00  0.00    -0.459 A  
HETATM   29  C   UNL     1     -13.685  15.201  71.232  1.00  0.00    -0.555 A  
ENDBRANCH  20  24
ENDBRANCH  16  18
ENDBRANCH  13  16
BRANCH  15  30
HETATM   30  C   UNL     1     -10.416   9.466  70.002  1.00  0.00    -0.234 C  
HETATM   31  H2  UNL     1     -11.230  10.354  71.718  1.00  0.00     0.000 HD 
HETATM   32  N   UNL     1     -10.362   9.906  71.424  1.00  0.00    -0.006 NA 
HETATM   33  H1  UNL     1     -10.116   9.118  72.022  1.00  0.00     0.000 HD 
BRANCH  30  34
HETATM   34  C   UNL     1     -11.384   8.262  69.971  1.00  0.00    -0.001 C  
BRANCH  34  35
HETATM   35  C   UNL     1     -10.826   6.858  70.108  1.00  0.00    -0.300 A  
HETATM   36  C   UNL     1     -10.872   6.590  67.543  1.00  0.00    -0.433 C  
HETATM   37  C   UNL     1     -10.086   4.948  71.442  1.00  0.00    -0.268 A  
HETATM   38  C   UNL     1     -11.024   6.850  72.696  1.00  0.00    -0.303 C  
HETATM   39  C   UNL     1     -10.575   6.093  68.937  1.00  0.00    -0.335 A  
HETATM   40  C   UNL     1     -10.641   6.242  71.371  1.00  0.00    -0.284 A  
HETATM   41  C   UNL     1      -9.761   4.234  70.293  1.00  0.00    -0.280 A  
HETATM   42  C   UNL     1     -10.026   4.806  69.047  1.00  0.00    -0.213 A  
BRANCH  41  43
HETATM   43  C   UNL     1      -9.178   2.864  70.314  1.00  0.00    -0.138 C  
HETATM   44  H2  UNL     1      -9.054   2.785  72.388  1.00  0.00     0.000 HD 
HETATM   45  H1  UNL     1      -8.481   1.346  71.530  1.00  0.00     0.000 HD 
HETATM   46  N   UNL     1      -8.880   2.285  71.516  1.00  0.00    -0.068 N  
HETATM   47  O   UNL     1      -8.959   2.243  69.278  1.00  0.00    -0.084 OA 
ENDBRANCH  41  43
ENDBRANCH  34  35
ENDBRANCH  30  34
ENDBRANCH  15  30
ENDBRANCH  12  13
ENDBRANCH   6  12
ENDBRANCH   2   3
TORSDOF 10
ENDMDL
MODEL       45
REMARK 921   NORMALIZED FREE ENERGY PREDICTED BY IDOCK:   -5.74 KCAL/MOL
REMARK 922        TOTAL FREE ENERGY PREDICTED BY IDOCK:  -11.96 KCAL/MOL
REMARK 923 INTER-LIGAND FREE ENERGY PREDICTED BY IDOCK:   -8.81 KCAL/MOL
REMARK 924 INTRA-LIGAND FREE ENERGY PREDICTED BY IDOCK:   -3.15 KCAL/MOL
REMARK 927      BINDING AFFINITY PREDICTED BY RF-SCORE:    0.00 PKD
ROOT
HETATM    1  C   UNL     1      -8.965   9.789  63.044  1.00  0.00    -0.254 C  
HETATM    2  O   UNL     1      -7.985   9.511  64.046  1.00  0.00    -0.126 OA 
ENDROOT
BRANCH   2   3
HETATM    3  C   UNL     1      -8.378   9.644  65.354  1.00  0.00    -0.141 A  
HETATM    4  C   UNL     1      -9.556   9.098  65.871  1.00  0.00    -0.343 A  
HETATM    5  C   UNL     1      -9.847   9.186  67.236  1.00  0.00    -0.244 A  
HETATM    6  C   UNL     1      -8.993   9.852  68.119  1.00  0.00    -0.118 A  
HETATM    7  C   UNL     1      -7.840  10.454  67.590  1.00  0.00    -0.105 A  
HETATM    8  C   UNL     1      -6.266  11.015  65.781  1.00  0.00     0.004 C  
HETATM    9  O   UNL     1      -5.648  10.425  64.738  1.00  0.00    -0.114 OA 
HETATM   10  C   UNL     1      -7.522  10.345  66.222  1.00  0.00    -0.127 A  
HETATM   11  O   UNL     1      -5.801  11.980  66.367  1.00  0.00    -0.183 OA 
BRANCH   6  12
HETATM   12  C   UNL     1      -9.256   9.905  69.611  1.00  0.00    -0.227 C  
BRANCH  12  13
HETATM   13  N   UNL     1     -10.258   8.953  70.122  1.00  0.00    -0.188 N  
HETATM   14  O   UNL     1     -10.927   6.774  70.525  1.00  0.00    -0.249 OA 
HETATM   15  C   UNL     1     -10.017   7.563  70.240  1.00  0.00    -0.192 C  
BRANCH  13  16
HETATM   16  C   UNL     1     -11.666   9.423  70.207  1.00  0.00    -0.083 C  
HETATM   17  C   UNL     1     -12.186   9.595  71.646  1.00  0.00    -0.484 C  
BRANCH  16  18
HETATM   18  C   UNL     1     -11.851  10.743  69.489  1.00  0.00    -0.308 A  
HETATM   19  C   UNL     1     -11.516  12.903  69.088  1.00  0.00    -0.306 A  
HETATM   20  C   UNL     1     -11.844  12.238  67.925  1.00  0.00    -0.293 A  
HETATM   21  N   UNL     1     -12.094  10.914  68.203  1.00  0.00    -0.790 NA 
HETATM   22  H   UNL     1     -12.406  10.202  67.542  1.00  0.00     0.000 HD 
HETATM   23  N   UNL     1     -11.555  11.951  70.076  1.00  0.00    -0.266 NA 
BRANCH  20  24
HETATM   24  C   UNL     1     -11.837  12.766  66.567  1.00  0.00    -0.471 A  
HETATM   25  C   UNL     1     -12.647  14.440  64.986  1.00  0.00    -0.309 A  
HETATM   26  C   UNL     1     -12.005  13.783  63.941  1.00  0.00    -0.414 A  
HETATM   27  C   UNL     1     -11.265  12.629  64.203  1.00  0.00    -0.437 A  
HETATM   28  C   UNL     1     -12.561  13.936  66.286  1.00  0.00    -0.376 A  
HETATM   29  C   UNL     1     -11.177  12.125  65.509  1.00  0.00    -0.381 A  
ENDBRANCH  20  24
ENDBRANCH  16  18
ENDBRANCH  13  16
BRANCH  15  30
HETATM   30  C   UNL     1      -8.542   7.051  70.032  1.00  0.00    -0.141 C  
HETATM   31  H2  UNL     1      -8.453   6.152  71.924  1.00  0.00     0.000 HD 
HETATM   32  N   UNL     1      -7.903   6.793  71.352  1.00  0.00    -0.097 NA 
HETATM   33  H1  UNL     1      -6.948   6.462  71.217  1.00  0.00     0.000 HD 
BRANCH  30  34
HETATM   34  C   UNL     1      -8.385   5.743  69.225  1.00  0.00    -0.108 C  
BRANCH  34  35
HETATM   35  C   UNL     1      -8.130   5.820  67.732  1.00  0.00    -0.102 A  
HETATM   36  C   UNL     1      -5.726   6.636  68.184  1.00  0.00    -0.012 C  
HETATM   37  C   UNL     1      -8.859   5.645  65.404  1.00  0.00    -0.112 A  
HETATM   38  C   UNL     1     -10.604   5.327  67.114  1.00  0.00    -0.227 C  
HETATM   39  C   UNL     1      -6.853   6.229  67.265  1.00  0.00    -0.066 A  
HETATM   40  C   UNL     1      -9.158   5.596  66.781  1.00  0.00    -0.120 A  
HETATM   41  C   UNL     1      -7.582   5.963  64.951  1.00  0.00    -0.090 A  
HETATM   42  C   UNL     1      -6.593   6.272  65.886  1.00  0.00    -0.047 A  
BRANCH  41  43
HETATM   43  C   UNL     1      -7.216   6.034  63.509  1.00  0.00    -0.056 C  
HETATM   44  H2  UNL     1      -5.752   7.483  63.799  1.00  0.00     0.000 HD 
HETATM   45  H1  UNL     1      -5.979   6.945  62.127  1.00  0.00     0.000 HD 
HETATM   46  N   UNL     1      -6.230   6.896  63.114  1.00  0.00    -0.043 N  
HETATM   47  O   UNL     1      -7.778   5.339  62.668  1.00  0.00    -0.062 OA 
ENDBRANCH  41  43
ENDBRANCH  34  35
ENDBRANCH  30  34
ENDBRANCH  15  30
ENDBRANCH  12  13
ENDBRANCH   6  12
ENDBRANCH   2   3
TORSDOF 10
ENDMDL
MODEL       46
REMARK 921   NORMALIZED FREE ENERGY PREDICTED BY IDOCK:   -5.72 KCAL/MOL
REMARK 922        TOTAL FREE ENERGY PREDICTED BY IDOCK:  -11.93 KCAL/MOL
REMARK 923 INTER-LIGAND FREE ENERGY PREDICTED BY IDOCK:   -9.83 KCAL/MOL
REMARK 924 INTRA-LIGAND FREE ENERGY PREDICTED BY IDOCK:   -2.10 KCAL/MOL
REMARK 927      BINDING AFFINITY PREDICTED BY RF-SCORE:    0.00 PKD
ROOT
HETATM    1  C   UNL     1      -8.549   4.818  63.684  1.00  0.00    -0.136 C  
HETATM    2  O   UNL     1      -7.539   5.341  64.548  1.00  0.00    -0.070 OA 
ENDROOT
BRANCH   2   3
HETATM    3  C   UNL     1      -7.598   6.682  64.835  1.00  0.00    -0.101 A  
HETATM    4  C   UNL     1      -7.906   7.665  63.890  1.00  0.00    -0.122 A  
HETATM    5  C   UNL     1      -8.047   9.004  64.270  1.00  0.00    -0.151 A  
HETATM    6  C   UNL     1      -7.850   9.407  65.594  1.00  0.00    -0.099 A  
HETATM    7  C   UNL     1      -7.481   8.429  66.531  1.00  0.00    -0.081 A  
HETATM    8  C   UNL     1      -6.981   6.128  67.249  1.00  0.00    -0.069 C  
HETATM    9  O   UNL     1      -7.469   4.879  67.109  1.00  0.00    -0.084 OA 
HETATM   10  C   UNL     1      -7.366   7.074  66.165  1.00  0.00    -0.075 A  
HETATM   11  O   UNL     1      -6.332   6.480  68.223  1.00  0.00    -0.034 OA 
BRANCH   6  12
HETATM   12  C   UNL     1      -8.060  10.841  66.040  1.00  0.00    -0.158 C  
BRANCH  12  13
HETATM   13  N   UNL     1      -9.431  11.365  65.900  1.00  0.00    -0.223 N  
HETATM   14  O   UNL     1     -11.634  11.422  66.607  1.00  0.00    -0.432 OA 
HETATM   15  C   UNL     1     -10.461  11.098  66.834  1.00  0.00    -0.246 C  
BRANCH  13  16
HETATM   16  C   UNL     1      -9.820  11.916  64.576  1.00  0.00    -0.178 C  
HETATM   17  C   UNL     1     -10.907  11.102  63.850  1.00  0.00    -0.346 C  
BRANCH  16  18
HETATM   18  C   UNL     1     -10.314  13.343  64.696  1.00  0.00    -0.381 A  
HETATM   19  C   UNL     1     -11.822  14.973  64.758  1.00  0.00    -0.341 A  
HETATM   20  C   UNL     1     -10.718  15.304  65.514  1.00  0.00    -0.371 A  
HETATM   21  N   UNL     1      -9.776  14.304  65.423  1.00  0.00    -0.557 NA 
HETATM   22  H   UNL     1      -8.845  14.306  65.838  1.00  0.00     0.000 HD 
HETATM   23  N   UNL     1     -11.540  13.742  64.219  1.00  0.00    -0.385 NA 
BRANCH  20  24
HETATM   24  C   UNL     1     -10.551  16.460  66.385  1.00  0.00    -0.236 A  
HETATM   25  C   UNL     1     -10.515  17.362  68.653  1.00  0.00    -0.355 A  
HETATM   26  C   UNL     1     -10.385  18.654  68.151  1.00  0.00    -0.402 A  
HETATM   27  C   UNL     1     -10.320  18.854  66.771  1.00  0.00    -0.477 A  
HETATM   28  C   UNL     1     -10.595  16.277  67.777  1.00  0.00    -0.314 A  
HETATM   29  C   UNL     1     -10.398  17.764  65.892  1.00  0.00    -0.257 A  
ENDBRANCH  20  24
ENDBRANCH  16  18
ENDBRANCH  13  16
BRANCH  15  30
HETATM   30  C   UNL     1     -10.064  10.404  68.191  1.00  0.00    -0.155 C  
HETATM   31  H2  UNL     1     -10.451  12.122  69.328  1.00  0.00     0.000 HD 
HETATM   32  N   UNL     1      -9.708  11.436  69.203  1.00  0.00    -0.415 NA 
HETATM   33  H1  UNL     1      -9.450  10.986  70.082  1.00  0.00     0.000 HD 
BRANCH  30  34
HETATM   34  C   UNL     1     -11.153   9.528  68.848  1.00  0.00    -0.050 C  
BRANCH  34  35
HETATM   35  C   UNL     1     -10.805   8.118  69.286  1.00  0.00    -0.064 A  
HETATM   36  C   UNL     1     -10.457   8.954  71.701  1.00  0.00    -0.408 C  
HETATM   37  C   UNL     1     -10.385   5.754  68.824  1.00  0.00    -0.289 A  
HETATM   38  C   UNL     1     -10.797   7.187  66.863  1.00  0.00    -0.307 C  
HETATM   39  C   UNL     1     -10.497   7.870  70.651  1.00  0.00    -0.216 A  
HETATM   40  C   UNL     1     -10.676   7.053  68.360  1.00  0.00    -0.224 A  
HETATM   41  C   UNL     1     -10.168   5.499  70.175  1.00  0.00    -0.333 A  
HETATM   42  C   UNL     1     -10.206   6.565  71.076  1.00  0.00    -0.218 A  
BRANCH  41  43
HETATM   43  C   UNL     1      -9.852   4.148  70.716  1.00  0.00    -0.178 C  
HETATM   44  H2  UNL     1      -9.597   3.291  68.838  1.00  0.00     0.000 HD 
HETATM   45  H1  UNL     1      -9.366   2.203  70.217  1.00  0.00     0.000 HD 
HETATM   46  N   UNL     1      -9.582   3.128  69.846  1.00  0.00    -0.127 N  
HETATM   47  O   UNL     1      -9.829   3.928  71.923  1.00  0.00    -0.163 OA 
ENDBRANCH  41  43
ENDBRANCH  34  35
ENDBRANCH  30  34
ENDBRANCH  15  30
ENDBRANCH  12  13
ENDBRANCH   6  12
ENDBRANCH   2   3
TORSDOF 10
ENDMDL
MODEL       47
REMARK 921   NORMALIZED FREE ENERGY PREDICTED BY IDOCK:   -5.71 KCAL/MOL
REMARK 922        TOTAL FREE ENERGY PREDICTED BY IDOCK:  -11.92 KCAL/MOL
REMARK 923 INTER-LIGAND FREE ENERGY PREDICTED BY IDOCK:   -9.72 KCAL/MOL
REMARK 924 INTRA-LIGAND FREE ENERGY PREDICTED BY IDOCK:   -2.20 KCAL/MOL
REMARK 927      BINDING AFFINITY PREDICTED BY RF-SCORE:    0.00 PKD
ROOT
HETATM    1  C   UNL     1      -6.375   4.052  73.841  1.00  0.00    -0.037 C  
HETATM    2  O   UNL     1      -7.575   4.505  74.470  1.00  0.00    -0.079 OA 
ENDROOT
BRANCH   2   3
HETATM    3  C   UNL     1      -8.167   5.626  73.944  1.00  0.00    -0.110 A  
HETATM    4  C   UNL     1      -7.541   6.873  73.870  1.00  0.00    -0.106 A  
HETATM    5  C   UNL     1      -8.164   7.951  73.232  1.00  0.00    -0.234 A  
HETATM    6  C   UNL     1      -9.443   7.828  72.682  1.00  0.00    -0.251 A  
HETATM    7  C   UNL     1     -10.098   6.592  72.810  1.00  0.00    -0.195 A  
HETATM    8  C   UNL     1     -10.257   4.231  73.489  1.00  0.00    -0.160 C  
HETATM    9  O   UNL     1      -9.520   3.101  73.459  1.00  0.00    -0.097 OA 
HETATM   10  C   UNL     1      -9.467   5.492  73.424  1.00  0.00    -0.139 A  
HETATM   11  O   UNL     1     -11.478   4.225  73.497  1.00  0.00    -0.271 OA 
BRANCH   6  12
HETATM   12  C   UNL     1     -10.111   8.963  71.931  1.00  0.00    -0.322 C  
BRANCH  12  13
HETATM   13  N   UNL     1     -10.845   8.583  70.710  1.00  0.00    -0.225 N  
HETATM   14  O   UNL     1     -10.864   8.168  68.433  1.00  0.00    -0.070 OA 
HETATM   15  C   UNL     1     -10.209   8.330  69.471  1.00  0.00    -0.210 C  
BRANCH  13  16
HETATM   16  C   UNL     1     -12.316   8.792  70.706  1.00  0.00     0.029 C  
HETATM   17  C   UNL     1     -13.062   8.041  71.824  1.00  0.00    -0.360 C  
BRANCH  16  18
HETATM   18  C   UNL     1     -12.665  10.261  70.824  1.00  0.00    -0.346 A  
HETATM   19  C   UNL     1     -13.162  12.154  71.877  1.00  0.00    -0.369 A  
HETATM   20  C   UNL     1     -12.517  12.416  70.688  1.00  0.00    -0.234 A  
HETATM   21  N   UNL     1     -12.261  11.234  70.029  1.00  0.00    -0.318 NA 
HETATM   22  H   UNL     1     -11.840  11.131  69.105  1.00  0.00     0.000 HD 
HETATM   23  N   UNL     1     -13.279  10.787  71.937  1.00  0.00    -0.466 NA 
BRANCH  20  24
HETATM   24  C   UNL     1     -12.048  13.704  70.195  1.00  0.00    -0.431 A  
HETATM   25  C   UNL     1     -11.385  15.084  68.293  1.00  0.00    -0.331 A  
HETATM   26  C   UNL     1     -11.008  16.111  69.153  1.00  0.00    -0.309 A  
HETATM   27  C   UNL     1     -11.163  15.949  70.530  1.00  0.00    -0.395 A  
HETATM   28  C   UNL     1     -11.902  13.893  68.811  1.00  0.00    -0.396 A  
HETATM   29  C   UNL     1     -11.685  14.755  71.050  1.00  0.00    -0.358 A  
ENDBRANCH  20  24
ENDBRANCH  16  18
ENDBRANCH  13  16
BRANCH  15  30
HETATM   30  C   UNL     1      -8.637   8.227  69.458  1.00  0.00    -0.134 C  
HETATM   31  H2  UNL     1      -8.637   6.470  68.315  1.00  0.00     0.000 HD 
HETATM   32  N   UNL     1      -8.223   6.825  69.176  1.00  0.00    -0.120 NA 
HETATM   33  H1  UNL     1      -7.205   6.759  69.167  1.00  0.00     0.000 HD 
BRANCH  30  34
HETATM   34  C   UNL     1      -7.910   9.099  68.410  1.00  0.00    -0.102 C  
BRANCH  34  35
HETATM   35  C   UNL     1      -8.723   9.815  67.348  1.00  0.00    -0.133 A  
HETATM   36  C   UNL     1      -9.121  11.776  68.976  1.00  0.00     0.240 C  
HETATM   37  C   UNL     1      -9.772   9.930  65.143  1.00  0.00    -0.376 A  
HETATM   38  C   UNL     1      -8.689   7.794  65.719  1.00  0.00    -0.160 C  
HETATM   39  C   UNL     1      -9.271  11.093  67.637  1.00  0.00    -0.151 A  
HETATM   40  C   UNL     1      -9.043   9.207  66.109  1.00  0.00    -0.234 A  
HETATM   41  C   UNL     1     -10.234  11.217  65.398  1.00  0.00    -0.323 A  
HETATM   42  C   UNL     1      -9.997  11.782  66.653  1.00  0.00    -0.224 A  
BRANCH  41  43
HETATM   43  C   UNL     1     -11.013  12.021  64.416  1.00  0.00    -0.333 C  
HETATM   44  H2  UNL     1     -12.638  12.279  65.689  1.00  0.00     0.000 HD 
HETATM   45  H1  UNL     1     -12.785  13.033  64.093  1.00  0.00     0.000 HD 
HETATM   46  N   UNL     1     -12.252  12.483  64.766  1.00  0.00    -0.456 N  
HETATM   47  O   UNL     1     -10.571  12.278  63.300  1.00  0.00    -0.421 OA 
ENDBRANCH  41  43
ENDBRANCH  34  35
ENDBRANCH  30  34
ENDBRANCH  15  30
ENDBRANCH  12  13
ENDBRANCH   6  12
ENDBRANCH   2   3
TORSDOF 10
ENDMDL
MODEL       48
REMARK 921   NORMALIZED FREE ENERGY PREDICTED BY IDOCK:   -5.70 KCAL/MOL
REMARK 922        TOTAL FREE ENERGY PREDICTED BY IDOCK:  -11.90 KCAL/MOL
REMARK 923 INTER-LIGAND FREE ENERGY PREDICTED BY IDOCK:  -10.07 KCAL/MOL
REMARK 924 INTRA-LIGAND FREE ENERGY PREDICTED BY IDOCK:   -1.83 KCAL/MOL
REMARK 927      BINDING AFFINITY PREDICTED BY RF-SCORE:    0.00 PKD
ROOT
HETATM    1  C   UNL     1     -13.625  13.038  72.305  1.00  0.00    -0.547 C  
HETATM    2  O   UNL     1     -13.700  11.725  71.748  1.00  0.00    -0.024 OA 
ENDROOT
BRANCH   2   3
HETATM    3  C   UNL     1     -12.645  11.319  70.969  1.00  0.00    -0.394 A  
HETATM    4  C   UNL     1     -11.879  12.186  70.185  1.00  0.00    -0.368 A  
HETATM    5  C   UNL     1     -10.757  11.722  69.492  1.00  0.00     0.046 A  
HETATM    6  C   UNL     1     -10.386  10.374  69.530  1.00  0.00    -0.264 A  
HETATM    7  C   UNL     1     -11.191   9.492  70.267  1.00  0.00    -0.307 A  
HETATM    8  C   UNL     1     -13.075   8.926  71.748  1.00  0.00    -0.374 C  
HETATM    9  O   UNL     1     -13.671   9.376  72.870  1.00  0.00    -0.267 OA 
HETATM   10  C   UNL     1     -12.306   9.954  70.993  1.00  0.00    -0.451 A  
HETATM   11  O   UNL     1     -13.102   7.752  71.410  1.00  0.00    -0.321 OA 
BRANCH   6  12
HETATM   12  C   UNL     1      -9.139   9.861  68.839  1.00  0.00    -0.156 C  
BRANCH  12  13
HETATM   13  N   UNL     1      -9.213   9.756  67.370  1.00  0.00    -0.134 N  
HETATM   14  O   UNL     1      -9.556   8.481  65.469  1.00  0.00    -0.024 OA 
HETATM   15  C   UNL     1      -9.653   8.590  66.698  1.00  0.00    -0.227 C  
BRANCH  13  16
HETATM   16  C   UNL     1      -8.496  10.787  66.575  1.00  0.00    -0.147 C  
HETATM   17  C   UNL     1      -7.921  10.268  65.244  1.00  0.00    -0.148 C  
BRANCH  16  18
HETATM   18  C   UNL     1      -9.395  11.965  66.261  1.00  0.00    -0.227 A  
HETATM   19  C   UNL     1     -11.325  13.032  65.986  1.00  0.00    -0.310 A  
HETATM   20  C   UNL     1     -10.338  13.908  66.387  1.00  0.00    -0.289 A  
HETATM   21  N   UNL     1      -9.142  13.237  66.505  1.00  0.00    -0.428 NA 
HETATM   22  H   UNL     1      -8.236  13.644  66.736  1.00  0.00     0.000 HD 
HETATM   23  N   UNL     1     -10.707  11.810  65.879  1.00  0.00    -0.273 NA 
BRANCH  20  24
HETATM   24  C   UNL     1     -10.489  15.309  66.755  1.00  0.00    -0.293 A  
HETATM   25  C   UNL     1     -10.296  17.657  66.113  1.00  0.00    -0.334 A  
HETATM   26  C   UNL     1     -10.611  18.051  67.410  1.00  0.00    -0.378 A  
HETATM   27  C   UNL     1     -10.883  17.083  68.377  1.00  0.00    -0.333 A  
HETATM   28  C   UNL     1     -10.238  16.299  65.790  1.00  0.00    -0.390 A  
HETATM   29  C   UNL     1     -10.828  15.720  68.052  1.00  0.00    -0.309 A  
ENDBRANCH  20  24
ENDBRANCH  16  18
ENDBRANCH  13  16
BRANCH  15  30
HETATM   30  C   UNL     1     -10.306   7.446  67.560  1.00  0.00    -0.251 C  
HETATM   31  H2  UNL     1     -10.925   6.359  65.878  1.00  0.00     0.000 HD 
HETATM   32  N   UNL     1     -11.318   6.713  66.750  1.00  0.00    -0.795 NA 
HETATM   33  H1  UNL     1     -11.740   5.972  67.309  1.00  0.00     0.000 HD 
BRANCH  30  34
HETATM   34  C   UNL     1      -9.340   6.368  68.100  1.00  0.00    -0.108 C  
BRANCH  34  35
HETATM   35  C   UNL     1      -8.783   6.509  69.504  1.00  0.00    -0.134 A  
HETATM   36  C   UNL     1      -6.524   7.285  68.530  1.00  0.00    -0.040 C  
HETATM   37  C   UNL     1      -8.964   6.288  71.932  1.00  0.00    -0.139 A  
HETATM   38  C   UNL     1     -10.868   5.438  70.620  1.00  0.00    -0.193 C  
HETATM   39  C   UNL     1      -7.449   6.964  69.681  1.00  0.00    -0.099 A  
HETATM   40  C   UNL     1      -9.515   6.103  70.648  1.00  0.00    -0.185 A  
HETATM   41  C   UNL     1      -7.688   6.816  72.104  1.00  0.00    -0.095 A  
HETATM   42  C   UNL     1      -6.932   7.132  70.974  1.00  0.00    -0.061 A  
BRANCH  41  43
HETATM   43  C   UNL     1      -7.058   7.026  73.438  1.00  0.00    -0.073 C  
HETATM   44  H2  UNL     1      -8.415   8.492  74.015  1.00  0.00     0.000 HD 
HETATM   45  H1  UNL     1      -7.163   8.096  75.202  1.00  0.00     0.000 HD 
HETATM   46  N   UNL     1      -7.594   7.952  74.289  1.00  0.00    -0.163 N  
HETATM   47  O   UNL     1      -6.070   6.389  73.789  1.00  0.00    -0.062 OA 
ENDBRANCH  41  43
ENDBRANCH  34  35
ENDBRANCH  30  34
ENDBRANCH  15  30
ENDBRANCH  12  13
ENDBRANCH   6  12
ENDBRANCH   2   3
TORSDOF 10
ENDMDL
MODEL       49
REMARK 921   NORMALIZED FREE ENERGY PREDICTED BY IDOCK:   -5.69 KCAL/MOL
REMARK 922        TOTAL FREE ENERGY PREDICTED BY IDOCK:  -11.89 KCAL/MOL
REMARK 923 INTER-LIGAND FREE ENERGY PREDICTED BY IDOCK:  -10.58 KCAL/MOL
REMARK 924 INTRA-LIGAND FREE ENERGY PREDICTED BY IDOCK:   -1.31 KCAL/MOL
REMARK 927      BINDING AFFINITY PREDICTED BY RF-SCORE:    0.00 PKD
ROOT
HETATM    1  C   UNL     1     -14.407   8.143  72.448  1.00  0.00    -0.198 C  
HETATM    2  O   UNL     1     -13.027   8.023  72.098  1.00  0.00    -0.294 OA 
ENDROOT
BRANCH   2   3
HETATM    3  C   UNL     1     -12.505   8.994  71.281  1.00  0.00    -0.289 A  
HETATM    4  C   UNL     1     -12.940  10.322  71.277  1.00  0.00    -0.517 A  
HETATM    5  C   UNL     1     -12.299  11.284  70.490  1.00  0.00    -0.446 A  
HETATM    6  C   UNL     1     -11.229  10.943  69.657  1.00  0.00    -0.348 A  
HETATM    7  C   UNL     1     -10.831   9.598  69.614  1.00  0.00    -0.266 A  
HETATM    8  C   UNL     1     -10.934   7.236  70.303  1.00  0.00    -0.260 C  
HETATM    9  O   UNL     1     -11.029   6.496  71.426  1.00  0.00    -0.241 OA 
HETATM   10  C   UNL     1     -11.451   8.628  70.426  1.00  0.00    -0.151 A  
HETATM   11  O   UNL     1     -10.402   6.825  69.282  1.00  0.00    -0.183 OA 
BRANCH   6  12
HETATM   12  C   UNL     1     -10.478  11.980  68.844  1.00  0.00    -0.125 C  
BRANCH  12  13
HETATM   13  N   UNL     1     -11.089  12.354  67.556  1.00  0.00    -0.251 N  
HETATM   14  O   UNL     1     -11.140  12.207  65.247  1.00  0.00    -0.303 OA 
HETATM   15  C   UNL     1     -10.722  11.762  66.324  1.00  0.00    -0.270 C  
BRANCH  13  16
HETATM   16  C   UNL     1     -11.875  13.615  67.514  1.00  0.00    -0.381 C  
HETATM   17  C   UNL     1     -12.271  14.156  68.900  1.00  0.00    -0.257 C  
BRANCH  16  18
HETATM   18  C   UNL     1     -11.122  14.710  66.788  1.00  0.00    -0.335 A  
HETATM   19  C   UNL     1     -10.757  16.212  65.192  1.00  0.00    -0.371 A  
HETATM   20  C   UNL     1     -10.169  16.608  66.375  1.00  0.00    -0.315 A  
HETATM   21  N   UNL     1     -10.365  15.643  67.336  1.00  0.00    -0.269 NA 
HETATM   22  H   UNL     1      -9.998  15.648  68.288  1.00  0.00     0.000 HD 
HETATM   23  N   UNL     1     -11.329  14.993  65.459  1.00  0.00    -0.338 NA 
BRANCH  20  24
HETATM   24  C   UNL     1      -9.525  17.882  66.665  1.00  0.00    -0.303 A  
HETATM   25  C   UNL     1      -9.696  20.132  67.598  1.00  0.00    -0.551 A  
HETATM   26  C   UNL     1      -8.415  20.432  67.144  1.00  0.00    -0.393 A  
HETATM   27  C   UNL     1      -7.678  19.459  66.467  1.00  0.00    -0.290 A  
HETATM   28  C   UNL     1     -10.243  18.868  67.361  1.00  0.00    -0.456 A  
HETATM   29  C   UNL     1      -8.226  18.190  66.233  1.00  0.00    -0.243 A  
ENDBRANCH  20  24
ENDBRANCH  16  18
ENDBRANCH  13  16
BRANCH  15  30
HETATM   30  C   UNL     1      -9.790  10.493  66.365  1.00  0.00    -0.210 C  
HETATM   31  H2  UNL     1      -9.638  10.381  64.277  1.00  0.00     0.000 HD 
HETATM   32  N   UNL     1      -9.857   9.771  65.064  1.00  0.00    -0.421 NA 
HETATM   33  H1  UNL     1      -9.253   8.950  65.092  1.00  0.00     0.000 HD 
BRANCH  30  34
HETATM   34  C   UNL     1      -8.290  10.762  66.620  1.00  0.00    -0.141 C  
BRANCH  34  35
HETATM   35  C   UNL     1      -7.669  10.312  67.929  1.00  0.00    -0.089 A  
HETATM   36  C   UNL     1      -7.102  12.763  68.502  1.00  0.00    -0.101 C  
HETATM   37  C   UNL     1      -6.962   8.579  69.501  1.00  0.00    -0.048 A  
HETATM   38  C   UNL     1      -7.873   7.789  67.353  1.00  0.00    -0.118 C  
HETATM   39  C   UNL     1      -7.128  11.285  68.812  1.00  0.00    -0.096 A  
HETATM   40  C   UNL     1      -7.515   8.942  68.256  1.00  0.00    -0.087 A  
HETATM   41  C   UNL     1      -6.513   9.539  70.402  1.00  0.00    -0.079 A  
HETATM   42  C   UNL     1      -6.581  10.886  70.041  1.00  0.00    -0.151 A  
BRANCH  41  43
HETATM   43  C   UNL     1      -5.916   9.209  71.726  1.00  0.00    -0.067 C  
HETATM   44  H2  UNL     1      -6.338   7.178  71.578  1.00  0.00     0.000 HD 
HETATM   45  H1  UNL     1      -5.518   7.685  73.063  1.00  0.00     0.000 HD 
HETATM   46  N   UNL     1      -5.927   7.911  72.157  1.00  0.00    -0.039 N  
HETATM   47  O   UNL     1      -5.417  10.073  72.440  1.00  0.00    -0.283 OA 
ENDBRANCH  41  43
ENDBRANCH  34  35
ENDBRANCH  30  34
ENDBRANCH  15  30
ENDBRANCH  12  13
ENDBRANCH   6  12
ENDBRANCH   2   3
TORSDOF 10
ENDMDL
MODEL       50
REMARK 921   NORMALIZED FREE ENERGY PREDICTED BY IDOCK:   -5.68 KCAL/MOL
REMARK 922        TOTAL FREE ENERGY PREDICTED BY IDOCK:  -11.87 KCAL/MOL
REMARK 923 INTER-LIGAND FREE ENERGY PREDICTED BY IDOCK:   -9.63 KCAL/MOL
REMARK 924 INTRA-LIGAND FREE ENERGY PREDICTED BY IDOCK:   -2.23 KCAL/MOL
REMARK 927      BINDING AFFINITY PREDICTED BY RF-SCORE:    0.00 PKD
ROOT
HETATM    1  C   UNL     1     -12.699  11.962  63.221  1.00  0.00    -0.271 C  
HETATM    2  O   UNL     1     -11.421  12.507  63.552  1.00  0.00    -0.452 OA 
ENDROOT
BRANCH   2   3
HETATM    3  C   UNL     1     -10.725  11.893  64.563  1.00  0.00    -0.312 A  
HETATM    4  C   UNL     1     -10.180  10.610  64.463  1.00  0.00    -0.399 A  
HETATM    5  C   UNL     1      -9.397  10.082  65.494  1.00  0.00    -0.271 A  
HETATM    6  C   UNL     1      -9.165  10.801  66.670  1.00  0.00    -0.184 A  
HETATM    7  C   UNL     1      -9.763  12.065  66.796  1.00  0.00    -0.218 A  
HETATM    8  C   UNL     1     -11.101  13.972  65.997  1.00  0.00    -0.303 C  
HETATM    9  O   UNL     1     -11.249  14.731  64.893  1.00  0.00    -0.372 OA 
HETATM   10  C   UNL     1     -10.528  12.618  65.751  1.00  0.00    -0.299 A  
HETATM   11  O   UNL     1     -11.348  14.381  67.121  1.00  0.00    -0.315 OA 
BRANCH   6  12
HETATM   12  C   UNL     1      -8.268  10.276  67.774  1.00  0.00    -0.110 C  
BRANCH  12  13
HETATM   13  N   UNL     1      -6.961   9.748  67.345  1.00  0.00    -0.083 N  
HETATM   14  O   UNL     1      -5.478   7.980  67.161  1.00  0.00    -0.034 OA 
HETATM   15  C   UNL     1      -6.632   8.371  67.380  1.00  0.00    -0.059 C  
BRANCH  13  16
HETATM   16  C   UNL     1      -5.851  10.723  67.181  1.00  0.00    -0.050 C  
HETATM   17  C   UNL     1      -5.438  10.966  65.718  1.00  0.00    -0.137 C  
BRANCH  16  18
HETATM   18  C   UNL     1      -6.201  12.064  67.791  1.00  0.00    -0.081 A  
HETATM   19  C   UNL     1      -5.981  13.784  69.180  1.00  0.00    -0.087 A  
HETATM   20  C   UNL     1      -6.553  14.189  67.993  1.00  0.00    -0.151 A  
HETATM   21  N   UNL     1      -6.725  13.102  67.166  1.00  0.00    -0.448 NA 
HETATM   22  H   UNL     1      -7.170  13.099  66.249  1.00  0.00     0.000 HD 
HETATM   23  N   UNL     1      -5.792  12.430  69.052  1.00  0.00    -0.066 NA 
BRANCH  20  24
HETATM   24  C   UNL     1      -6.852  15.550  67.568  1.00  0.00    -0.225 A  
HETATM   25  C   UNL     1      -8.341  17.074  66.377  1.00  0.00    -0.319 A  
HETATM   26  C   UNL     1      -7.449  18.123  66.577  1.00  0.00    -0.269 A  
HETATM   27  C   UNL     1      -6.267  17.898  67.285  1.00  0.00    -0.174 A  
HETATM   28  C   UNL     1      -8.045  15.801  66.870  1.00  0.00    -0.292 A  
HETATM   29  C   UNL     1      -5.971  16.621  67.783  1.00  0.00    -0.154 A  
ENDBRANCH  20  24
ENDBRANCH  16  18
ENDBRANCH  13  16
BRANCH  15  30
HETATM   30  C   UNL     1      -7.790   7.345  67.671  1.00  0.00    -0.113 C  
HETATM   31  H2  UNL     1      -6.623   5.685  67.144  1.00  0.00     0.000 HD 
HETATM   32  N   UNL     1      -7.541   6.075  66.935  1.00  0.00    -0.094 NA 
HETATM   33  H1  UNL     1      -8.292   5.411  67.124  1.00  0.00     0.000 HD 
BRANCH  30  34
HETATM   34  C   UNL     1      -7.982   6.942  69.150  1.00  0.00    -0.119 C  
BRANCH  34  35
HETATM   35  C   UNL     1      -9.331   7.163  69.809  1.00  0.00    -0.146 A  
HETATM   36  C   UNL     1      -8.359   9.153  71.131  1.00  0.00    -0.157 C  
HETATM   37  C   UNL     1     -11.660   6.545  70.224  1.00  0.00    -0.473 A  
HETATM   38  C   UNL     1     -10.362   5.000  68.810  1.00  0.00    -0.109 C  
HETATM   39  C   UNL     1      -9.487   8.231  70.732  1.00  0.00    -0.185 A  
HETATM   40  C   UNL     1     -10.418   6.274  69.614  1.00  0.00    -0.295 A  
HETATM   41  C   UNL     1     -11.832   7.643  71.059  1.00  0.00    -0.306 A  
HETATM   42  C   UNL     1     -10.737   8.468  71.323  1.00  0.00    -0.302 A  
BRANCH  41  43
HETATM   43  C   UNL     1     -13.121   7.971  71.731  1.00  0.00    -0.336 C  
HETATM   44  H2  UNL     1     -12.363   9.650  72.697  1.00  0.00     0.000 HD 
HETATM   45  H1  UNL     1     -14.069   9.289  73.009  1.00  0.00     0.000 HD 
HETATM   46  N   UNL     1     -13.186   9.065  72.549  1.00  0.00    -0.446 N  
HETATM   47  O   UNL     1     -14.123   7.282  71.569  1.00  0.00    -0.419 OA 
ENDBRANCH  41  43
ENDBRANCH  34  35
ENDBRANCH  30  34
ENDBRANCH  15  30
ENDBRANCH  12  13
ENDBRANCH   6  12
ENDBRANCH   2   3
TORSDOF 10
ENDMDL
MODEL       51
REMARK 921   NORMALIZED FREE ENERGY PREDICTED BY IDOCK:   -5.66 KCAL/MOL
REMARK 922        TOTAL FREE ENERGY PREDICTED BY IDOCK:  -11.85 KCAL/MOL
REMARK 923 INTER-LIGAND FREE ENERGY PREDICTED BY IDOCK:  -11.29 KCAL/MOL
REMARK 924 INTRA-LIGAND FREE ENERGY PREDICTED BY IDOCK:   -0.56 KCAL/MOL
REMARK 927      BINDING AFFINITY PREDICTED BY RF-SCORE:    0.00 PKD
ROOT
HETATM    1  C   UNL     1      -6.720  10.506  62.402  1.00  0.00    -0.133 C  
HETATM    2  O   UNL     1      -6.832   9.714  63.586  1.00  0.00    -0.102 OA 
ENDROOT
BRANCH   2   3
HETATM    3  C   UNL     1      -7.835  10.044  64.463  1.00  0.00    -0.145 A  
HETATM    4  C   UNL     1      -9.194   9.872  64.189  1.00  0.00    -0.312 A  
HETATM    5  C   UNL     1     -10.160  10.136  65.164  1.00  0.00    -0.329 A  
HETATM    6  C   UNL     1      -9.803  10.614  66.428  1.00  0.00    -0.259 A  
HETATM    7  C   UNL     1      -8.443  10.846  66.683  1.00  0.00    -0.151 A  
HETATM    8  C   UNL     1      -6.048  10.830  66.109  1.00  0.00    -0.133 C  
HETATM    9  O   UNL     1      -5.135  10.021  65.535  1.00  0.00    -0.038 OA 
HETATM   10  C   UNL     1      -7.459  10.554  65.718  1.00  0.00    -0.139 A  
HETATM   11  O   UNL     1      -5.755  11.677  66.938  1.00  0.00    -0.114 OA 
BRANCH   6  12
HETATM   12  C   UNL     1     -10.828  10.847  67.522  1.00  0.00    -0.272 C  
BRANCH  12  13
HETATM   13  N   UNL     1     -11.184  12.253  67.782  1.00  0.00    -0.257 N  
HETATM   14  O   UNL     1     -12.186  13.849  69.126  1.00  0.00    -0.356 OA 
HETATM   15  C   UNL     1     -11.757  12.695  68.999  1.00  0.00    -0.318 C  
BRANCH  13  16
HETATM   16  C   UNL     1     -11.242  13.170  66.614  1.00  0.00    -0.304 C  
HETATM   17  C   UNL     1     -12.658  13.673  66.278  1.00  0.00    -0.346 C  
BRANCH  16  18
HETATM   18  C   UNL     1     -10.358  14.383  66.821  1.00  0.00    -0.273 A  
HETATM   19  C   UNL     1      -8.625  15.723  66.448  1.00  0.00    -0.311 A  
HETATM   20  C   UNL     1      -9.703  16.443  66.917  1.00  0.00    -0.251 A  
HETATM   21  N   UNL     1     -10.749  15.590  67.188  1.00  0.00    -0.312 NA 
HETATM   22  H   UNL     1     -11.650  15.841  67.592  1.00  0.00     0.000 HD 
HETATM   23  N   UNL     1      -9.043  14.415  66.422  1.00  0.00    -0.211 NA 
BRANCH  20  24
HETATM   24  C   UNL     1      -9.824  17.890  67.029  1.00  0.00    -0.314 A  
HETATM   25  C   UNL     1     -10.552  19.996  66.031  1.00  0.00    -0.472 A  
HETATM   26  C   UNL     1      -9.981  20.706  67.083  1.00  0.00    -0.427 A  
HETATM   27  C   UNL     1      -9.347  20.017  68.117  1.00  0.00    -0.357 A  
HETATM   28  C   UNL     1     -10.475  18.601  66.007  1.00  0.00    -0.456 A  
HETATM   29  C   UNL     1      -9.273  18.617  68.095  1.00  0.00    -0.340 A  
ENDBRANCH  20  24
ENDBRANCH  16  18
ENDBRANCH  13  16
BRANCH  15  30
HETATM   30  C   UNL     1     -11.802  11.680  70.202  1.00  0.00    -0.344 C  
HETATM   31  H2  UNL     1     -13.785  12.154  70.692  1.00  0.00     0.000 HD 
HETATM   32  N   UNL     1     -12.879  12.068  71.154  1.00  0.00    -0.301 NA 
HETATM   33  H1  UNL     1     -12.908  11.411  71.933  1.00  0.00     0.000 HD 
BRANCH  30  34
HETATM   34  C   UNL     1     -12.077  10.205  69.835  1.00  0.00    -0.102 C  
BRANCH  34  35
HETATM   35  C   UNL     1     -11.651   9.111  70.797  1.00  0.00    -0.329 A  
HETATM   36  C   UNL     1     -14.110   8.770  71.497  1.00  0.00    -0.383 C  
HETATM   37  C   UNL     1      -9.948   7.760  71.914  1.00  0.00    -0.222 A  
HETATM   38  C   UNL     1      -9.118   9.553  70.444  1.00  0.00    -0.296 C  
HETATM   39  C   UNL     1     -12.639   8.433  71.560  1.00  0.00    -0.334 A  
HETATM   40  C   UNL     1     -10.287   8.810  71.037  1.00  0.00    -0.297 A  
HETATM   41  C   UNL     1     -10.924   7.040  72.595  1.00  0.00    -0.313 A  
HETATM   42  C   UNL     1     -12.264   7.396  72.427  1.00  0.00    -0.134 A  
BRANCH  41  43
HETATM   43  C   UNL     1     -10.619   5.927  73.536  1.00  0.00    -0.268 C  
HETATM   44  H2  UNL     1      -9.130   6.980  74.535  1.00  0.00     0.000 HD 
HETATM   45  H1  UNL     1      -9.434   5.337  75.123  1.00  0.00     0.000 HD 
HETATM   46  N   UNL     1      -9.642   6.100  74.478  1.00  0.00    -0.209 N  
HETATM   47  O   UNL     1     -11.221   4.859  73.486  1.00  0.00    -0.323 OA 
ENDBRANCH  41  43
ENDBRANCH  34  35
ENDBRANCH  30  34
ENDBRANCH  15  30
ENDBRANCH  12  13
ENDBRANCH   6  12
ENDBRANCH   2   3
TORSDOF 10
ENDMDL
MODEL       52
REMARK 921   NORMALIZED FREE ENERGY PREDICTED BY IDOCK:   -5.65 KCAL/MOL
REMARK 922        TOTAL FREE ENERGY PREDICTED BY IDOCK:  -11.83 KCAL/MOL
REMARK 923 INTER-LIGAND FREE ENERGY PREDICTED BY IDOCK:  -10.27 KCAL/MOL
REMARK 924 INTRA-LIGAND FREE ENERGY PREDICTED BY IDOCK:   -1.56 KCAL/MOL
REMARK 927      BINDING AFFINITY PREDICTED BY RF-SCORE:    0.00 PKD
ROOT
HETATM    1  C   UNL     1     -11.080  16.176  64.774  1.00  0.00    -0.333 C  
HETATM    2  O   UNL     1     -12.103  15.187  64.900  1.00  0.00    -0.254 OA 
ENDROOT
BRANCH   2   3
HETATM    3  C   UNL     1     -11.886  14.180  65.807  1.00  0.00    -0.380 A  
HETATM    4  C   UNL     1     -11.821  14.380  67.189  1.00  0.00    -0.437 A  
HETATM    5  C   UNL     1     -11.697  13.296  68.064  1.00  0.00    -0.394 A  
HETATM    6  C   UNL     1     -11.596  11.986  67.587  1.00  0.00    -0.392 A  
HETATM    7  C   UNL     1     -11.598  11.791  66.197  1.00  0.00    -0.215 A  
HETATM    8  C   UNL     1     -11.755  12.538  63.856  1.00  0.00    -0.452 C  
HETATM    9  O   UNL     1     -12.497  13.360  63.088  1.00  0.00    -0.710 OA 
HETATM   10  C   UNL     1     -11.754  12.872  65.308  1.00  0.00    -0.399 A  
HETATM   11  O   UNL     1     -11.183  11.554  63.413  1.00  0.00    -0.387 OA 
BRANCH   6  12
HETATM   12  C   UNL     1     -11.524  10.792  68.519  1.00  0.00    -0.292 C  
BRANCH  12  13
HETATM   13  N   UNL     1     -10.169  10.330  68.870  1.00  0.00    -0.193 N  
HETATM   14  O   UNL     1      -8.664   9.559  70.451  1.00  0.00    -0.217 OA 
HETATM   15  C   UNL     1      -9.839   9.791  70.137  1.00  0.00    -0.255 C  
BRANCH  13  16
HETATM   16  C   UNL     1      -9.053  10.746  67.981  1.00  0.00    -0.150 C  
HETATM   17  C   UNL     1      -8.158  11.853  68.568  1.00  0.00    -0.130 C  
BRANCH  16  18
HETATM   18  C   UNL     1      -8.164   9.572  67.627  1.00  0.00    -0.121 A  
HETATM   19  C   UNL     1      -6.306   8.353  67.642  1.00  0.00    -0.053 A  
HETATM   20  C   UNL     1      -7.413   7.549  67.474  1.00  0.00    -0.104 A  
HETATM   21  N   UNL     1      -8.547   8.326  67.419  1.00  0.00    -0.124 NA 
HETATM   22  H   UNL     1      -9.500   8.002  67.251  1.00  0.00     0.000 HD 
HETATM   23  N   UNL     1      -6.792   9.636  67.705  1.00  0.00    -0.077 NA 
BRANCH  20  24
HETATM   24  C   UNL     1      -7.461   6.093  67.461  1.00  0.00    -0.082 A  
HETATM   25  C   UNL     1      -8.409   4.054  66.510  1.00  0.00    -0.104 A  
HETATM   26  C   UNL     1      -7.733   3.285  67.452  1.00  0.00    -0.077 A  
HETATM   27  C   UNL     1      -6.908   3.909  68.388  1.00  0.00    -0.047 A  
HETATM   28  C   UNL     1      -8.272   5.445  66.515  1.00  0.00    -0.109 A  
HETATM   29  C   UNL     1      -6.767   5.304  68.391  1.00  0.00    -0.054 A  
ENDBRANCH  20  24
ENDBRANCH  16  18
ENDBRANCH  13  16
BRANCH  15  30
HETATM   30  C   UNL     1     -11.018   9.461  71.127  1.00  0.00    -0.360 C  
HETATM   31  H2  UNL     1     -12.365  10.733  70.147  1.00  0.00     0.000 HD 
HETATM   32  N   UNL     1     -12.031  10.551  71.093  1.00  0.00    -0.353 NA 
HETATM   33  H1  UNL     1     -12.794  10.337  71.734  1.00  0.00     0.000 HD 
BRANCH  30  34
HETATM   34  C   UNL     1     -11.796   8.156  70.843  1.00  0.00    -0.232 C  
BRANCH  34  35
HETATM   35  C   UNL     1     -11.064   6.828  70.909  1.00  0.00    -0.322 A  
HETATM   36  C   UNL     1     -10.628   7.192  73.425  1.00  0.00    -0.424 C  
HETATM   37  C   UNL     1     -10.146   4.815  69.870  1.00  0.00    -0.299 A  
HETATM   38  C   UNL     1     -11.135   6.471  68.338  1.00  0.00    -0.340 C  
HETATM   39  C   UNL     1     -10.536   6.386  72.151  1.00  0.00    -0.249 A  
HETATM   40  C   UNL     1     -10.799   6.058  69.749  1.00  0.00    -0.433 A  
HETATM   41  C   UNL     1      -9.706   4.345  71.103  1.00  0.00    -0.256 A  
HETATM   42  C   UNL     1      -9.887   5.145  72.233  1.00  0.00    -0.216 A  
BRANCH  41  43
HETATM   43  C   UNL     1      -9.006   3.042  71.285  1.00  0.00    -0.097 C  
HETATM   44  H2  UNL     1      -7.808   3.732  72.838  1.00  0.00     0.000 HD 
HETATM   45  H1  UNL     1      -7.565   2.040  72.374  1.00  0.00     0.000 HD 
HETATM   46  N   UNL     1      -8.043   2.932  72.250  1.00  0.00    -0.055 N  
HETATM   47  O   UNL     1      -9.272   2.067  70.588  1.00  0.00    -0.093 OA 
ENDBRANCH  41  43
ENDBRANCH  34  35
ENDBRANCH  30  34
ENDBRANCH  15  30
ENDBRANCH  12  13
ENDBRANCH   6  12
ENDBRANCH   2   3
TORSDOF 10
ENDMDL
MODEL       53
REMARK 921   NORMALIZED FREE ENERGY PREDICTED BY IDOCK:   -5.63 KCAL/MOL
REMARK 922        TOTAL FREE ENERGY PREDICTED BY IDOCK:  -11.79 KCAL/MOL
REMARK 923 INTER-LIGAND FREE ENERGY PREDICTED BY IDOCK:  -10.51 KCAL/MOL
REMARK 924 INTRA-LIGAND FREE ENERGY PREDICTED BY IDOCK:   -1.28 KCAL/MOL
REMARK 927      BINDING AFFINITY PREDICTED BY RF-SCORE:    0.00 PKD
ROOT
HETATM    1  C   UNL     1      -5.288   8.702  71.915  1.00  0.00    -0.042 C  
HETATM    2  O   UNL     1      -6.657   9.097  71.811  1.00  0.00    -0.222 OA 
ENDROOT
BRANCH   2   3
HETATM    3  C   UNL     1      -6.981   9.953  70.788  1.00  0.00     0.004 A  
HETATM    4  C   UNL     1      -6.143  10.975  70.335  1.00  0.00    -0.131 A  
HETATM    5  C   UNL     1      -6.492  11.748  69.223  1.00  0.00    -0.107 A  
HETATM    6  C   UNL     1      -7.703  11.549  68.552  1.00  0.00    -0.134 A  
HETATM    7  C   UNL     1      -8.573  10.563  69.045  1.00  0.00    -0.160 A  
HETATM    8  C   UNL     1      -9.216   8.738  70.568  1.00  0.00    -0.188 C  
HETATM    9  O   UNL     1      -8.690   7.626  71.119  1.00  0.00    -0.132 OA 
HETATM   10  C   UNL     1      -8.217   9.760  70.145  1.00  0.00    -0.202 A  
HETATM   11  O   UNL     1     -10.413   8.874  70.364  1.00  0.00    -0.194 OA 
BRANCH   6  12
HETATM   12  C   UNL     1      -8.073  12.331  67.308  1.00  0.00    -0.182 C  
BRANCH  12  13
HETATM   13  N   UNL     1      -9.214  13.255  67.443  1.00  0.00    -0.207 N  
HETATM   14  O   UNL     1     -11.492  13.653  67.334  1.00  0.00    -0.303 OA 
HETATM   15  C   UNL     1     -10.564  12.834  67.372  1.00  0.00    -0.229 C  
BRANCH  13  16
HETATM   16  C   UNL     1      -8.933  14.709  67.325  1.00  0.00    -0.205 C  
HETATM   17  C   UNL     1      -9.394  15.333  65.995  1.00  0.00    -0.346 C  
BRANCH  16  18
HETATM   18  C   UNL     1      -9.581  15.490  68.450  1.00  0.00    -0.199 A  
HETATM   19  C   UNL     1     -10.676  17.184  69.380  1.00  0.00    -0.086 A  
HETATM   20  C   UNL     1     -10.915  16.015  70.070  1.00  0.00    -0.365 A  
HETATM   21  N   UNL     1     -10.190  14.988  69.508  1.00  0.00    -0.341 NA 
HETATM   22  H   UNL     1     -10.135  14.027  69.844  1.00  0.00     0.000 HD 
HETATM   23  N   UNL     1      -9.804  16.844  68.375  1.00  0.00    -0.254 NA 
BRANCH  20  24
HETATM   24  C   UNL     1     -11.857  15.802  71.160  1.00  0.00    -0.471 A  
HETATM   25  C   UNL     1     -14.120  15.215  71.864  1.00  0.00    -0.649 A  
HETATM   26  C   UNL     1     -13.797  15.501  73.187  1.00  0.00    -0.272 A  
HETATM   27  C   UNL     1     -12.505  15.920  73.506  1.00  0.00    -0.683 A  
HETATM   28  C   UNL     1     -13.158  15.363  70.862  1.00  0.00    -0.528 A  
HETATM   29  C   UNL     1     -11.538  16.065  72.500  1.00  0.00    -0.404 A  
ENDBRANCH  20  24
ENDBRANCH  16  18
ENDBRANCH  13  16
BRANCH  15  30
HETATM   30  C   UNL     1     -10.855  11.287  67.378  1.00  0.00    -0.262 C  
HETATM   31  H2  UNL     1     -12.872  11.539  67.888  1.00  0.00     0.000 HD 
HETATM   32  N   UNL     1     -12.064  11.000  68.197  1.00  0.00    -0.780 NA 
HETATM   33  H1  UNL     1     -12.252   9.997  68.201  1.00  0.00     0.000 HD 
BRANCH  30  34
HETATM   34  C   UNL     1     -11.118  10.641  66.000  1.00  0.00     0.169 C  
BRANCH  34  35
HETATM   35  C   UNL     1      -9.956  10.048  65.225  1.00  0.00    -0.368 A  
HETATM   36  C   UNL     1     -10.204  11.892  63.439  1.00  0.00    -0.478 C  
HETATM   37  C   UNL     1      -8.243   8.339  64.872  1.00  0.00    -0.154 A  
HETATM   38  C   UNL     1      -9.788   7.954  66.751  1.00  0.00    -0.318 C  
HETATM   39  C   UNL     1      -9.531  10.673  64.022  1.00  0.00    -0.329 A  
HETATM   40  C   UNL     1      -9.342   8.828  65.607  1.00  0.00    -0.219 A  
HETATM   41  C   UNL     1      -7.774   9.002  63.742  1.00  0.00    -0.125 A  
HETATM   42  C   UNL     1      -8.436  10.155  63.314  1.00  0.00    -0.184 A  
BRANCH  41  43
HETATM   43  C   UNL     1      -6.622   8.525  62.928  1.00  0.00    -0.090 C  
HETATM   44  H2  UNL     1      -7.168   6.522  63.054  1.00  0.00     0.000 HD 
HETATM   45  H1  UNL     1      -5.698   6.860  62.126  1.00  0.00     0.000 HD 
HETATM   46  N   UNL     1      -6.487   7.186  62.683  1.00  0.00    -0.052 N  
HETATM   47  O   UNL     1      -5.790   9.305  62.473  1.00  0.00    -0.089 OA 
ENDBRANCH  41  43
ENDBRANCH  34  35
ENDBRANCH  30  34
ENDBRANCH  15  30
ENDBRANCH  12  13
ENDBRANCH   6  12
ENDBRANCH   2   3
TORSDOF 10
ENDMDL
MODEL       54
REMARK 921   NORMALIZED FREE ENERGY PREDICTED BY IDOCK:   -5.60 KCAL/MOL
REMARK 922        TOTAL FREE ENERGY PREDICTED BY IDOCK:  -11.74 KCAL/MOL
REMARK 923 INTER-LIGAND FREE ENERGY PREDICTED BY IDOCK:   -8.52 KCAL/MOL
REMARK 924 INTRA-LIGAND FREE ENERGY PREDICTED BY IDOCK:   -3.22 KCAL/MOL
REMARK 927      BINDING AFFINITY PREDICTED BY RF-SCORE:    0.00 PKD
ROOT
HETATM    1  C   UNL     1     -11.275  12.822  63.732  1.00  0.00    -0.443 C  
HETATM    2  O   UNL     1     -10.345  12.507  64.770  1.00  0.00    -0.292 OA 
ENDROOT
BRANCH   2   3
HETATM    3  C   UNL     1      -9.970  11.192  64.890  1.00  0.00    -0.278 A  
HETATM    4  C   UNL     1      -9.259  10.494  63.911  1.00  0.00    -0.287 A  
HETATM    5  C   UNL     1      -8.822   9.185  64.139  1.00  0.00    -0.127 A  
HETATM    6  C   UNL     1      -9.112   8.521  65.335  1.00  0.00    -0.103 A  
HETATM    7  C   UNL     1      -9.880   9.201  66.294  1.00  0.00    -0.359 A  
HETATM    8  C   UNL     1     -11.095  11.149  67.182  1.00  0.00    -0.287 C  
HETATM    9  O   UNL     1     -10.949  12.484  67.301  1.00  0.00    -0.245 OA 
HETATM   10  C   UNL     1     -10.298  10.529  66.086  1.00  0.00    -0.276 A  
HETATM   11  O   UNL     1     -11.771  10.485  67.953  1.00  0.00    -0.453 OA 
BRANCH   6  12
HETATM   12  C   UNL     1      -8.596   7.127  65.629  1.00  0.00    -0.107 C  
BRANCH  12  13
HETATM   13  N   UNL     1      -7.320   7.055  66.365  1.00  0.00    -0.078 N  
HETATM   14  O   UNL     1      -6.163   7.025  68.370  1.00  0.00    -0.032 OA 
HETATM   15  C   UNL     1      -7.243   6.926  67.773  1.00  0.00    -0.091 C  
BRANCH  13  16
HETATM   16  C   UNL     1      -6.088   7.457  65.636  1.00  0.00    -0.038 C  
HETATM   17  C   UNL     1      -6.136   7.184  64.121  1.00  0.00    -0.037 C  
BRANCH  16  18
HETATM   18  C   UNL     1      -5.788   8.928  65.831  1.00  0.00    -0.051 A  
HETATM   19  C   UNL     1      -5.491  11.042  65.212  1.00  0.00     0.034 A  
HETATM   20  C   UNL     1      -5.951  10.976  66.510  1.00  0.00    -0.131 A  
HETATM   21  N   UNL     1      -6.082   9.660  66.890  1.00  0.00    -0.062 NA 
HETATM   22  H   UNL     1      -6.354   9.316  67.811  1.00  0.00     0.000 HD 
HETATM   23  N   UNL     1      -5.361   9.737  64.804  1.00  0.00    -0.056 NA 
BRANCH  20  24
HETATM   24  C   UNL     1      -6.361  12.082  67.365  1.00  0.00    -0.138 A  
HETATM   25  C   UNL     1      -5.976  13.399  69.384  1.00  0.00    -0.099 A  
HETATM   26  C   UNL     1      -7.151  14.109  69.161  1.00  0.00    -0.099 A  
HETATM   27  C   UNL     1      -7.926  13.824  68.036  1.00  0.00    -0.156 A  
HETATM   28  C   UNL     1      -5.584  12.397  68.492  1.00  0.00    -0.054 A  
HETATM   29  C   UNL     1      -7.532  12.820  67.140  1.00  0.00    -0.037 A  
ENDBRANCH  20  24
ENDBRANCH  16  18
ENDBRANCH  13  16
BRANCH  15  30
HETATM   30  C   UNL     1      -8.573   6.617  68.557  1.00  0.00    -0.124 C  
HETATM   31  H2  UNL     1      -8.049   4.619  68.911  1.00  0.00     0.000 HD 
HETATM   32  N   UNL     1      -8.839   5.153  68.550  1.00  0.00    -0.100 NA 
HETATM   33  H1  UNL     1      -9.701   4.953  69.058  1.00  0.00     0.000 HD 
BRANCH  30  34
HETATM   34  C   UNL     1      -8.598   7.042  70.043  1.00  0.00    -0.141 C  
BRANCH  34  35
HETATM   35  C   UNL     1      -9.848   7.689  70.608  1.00  0.00    -0.182 A  
HETATM   36  C   UNL     1      -8.983  10.004  69.871  1.00  0.00    -0.178 C  
HETATM   37  C   UNL     1     -11.974   7.595  71.811  1.00  0.00    -0.333 A  
HETATM   38  C   UNL     1     -10.699   5.490  71.695  1.00  0.00    -0.296 C  
HETATM   39  C   UNL     1     -10.014   9.096  70.496  1.00  0.00    -0.288 A  
HETATM   40  C   UNL     1     -10.814   6.951  71.337  1.00  0.00    -0.256 A  
HETATM   41  C   UNL     1     -12.174   8.959  71.624  1.00  0.00    -0.409 A  
HETATM   42  C   UNL     1     -11.181   9.703  70.984  1.00  0.00    -0.445 A  
BRANCH  41  43
HETATM   43  C   UNL     1     -13.379   9.688  72.109  1.00  0.00    -0.454 C  
HETATM   44  H2  UNL     1     -12.610  11.566  71.653  1.00  0.00     0.000 HD 
HETATM   45  H1  UNL     1     -14.231  11.552  72.367  1.00  0.00     0.000 HD 
HETATM   46  N   UNL     1     -13.406  11.053  72.035  1.00  0.00    -0.403 N  
HETATM   47  O   UNL     1     -14.346   9.093  72.573  1.00  0.00    -0.529 OA 
ENDBRANCH  41  43
ENDBRANCH  34  35
ENDBRANCH  30  34
ENDBRANCH  15  30
ENDBRANCH  12  13
ENDBRANCH   6  12
ENDBRANCH   2   3
TORSDOF 10
ENDMDL
MODEL       55
REMARK 921   NORMALIZED FREE ENERGY PREDICTED BY IDOCK:   -5.53 KCAL/MOL
REMARK 922        TOTAL FREE ENERGY PREDICTED BY IDOCK:  -11.64 KCAL/MOL
REMARK 923 INTER-LIGAND FREE ENERGY PREDICTED BY IDOCK:  -10.18 KCAL/MOL
REMARK 924 INTRA-LIGAND FREE ENERGY PREDICTED BY IDOCK:   -1.45 KCAL/MOL
REMARK 927      BINDING AFFINITY PREDICTED BY RF-SCORE:    0.00 PKD
ROOT
HETATM    1  C   UNL     1      -6.056   9.947  70.767  1.00  0.00    -0.095 C  
HETATM    2  O   UNL     1      -5.709  10.268  69.419  1.00  0.00    -0.038 OA 
ENDROOT
BRANCH   2   3
HETATM    3  C   UNL     1      -6.639  10.960  68.685  1.00  0.00    -0.057 A  
HETATM    4  C   UNL     1      -7.160  12.201  69.062  1.00  0.00    -0.062 A  
HETATM    5  C   UNL     1      -8.031  12.899  68.219  1.00  0.00    -0.151 A  
HETATM    6  C   UNL     1      -8.437  12.365  66.993  1.00  0.00    -0.170 A  
HETATM    7  C   UNL     1      -7.962  11.091  66.641  1.00  0.00    -0.156 A  
HETATM    8  C   UNL     1      -6.618   9.057  66.984  1.00  0.00    -0.061 C  
HETATM    9  O   UNL     1      -5.377   8.698  67.370  1.00  0.00    -0.033 OA 
HETATM   10  C   UNL     1      -7.061  10.394  67.469  1.00  0.00    -0.086 A  
HETATM   11  O   UNL     1      -7.302   8.374  66.237  1.00  0.00    -0.083 OA 
BRANCH   6  12
HETATM   12  C   UNL     1      -9.329  13.130  66.035  1.00  0.00    -0.006 C  
BRANCH  12  13
HETATM   13  N   UNL     1     -10.692  13.418  66.516  1.00  0.00    -0.284 N  
HETATM   14  O   UNL     1     -12.199  14.864  67.514  1.00  0.00    -0.150 OA 
HETATM   15  C   UNL     1     -11.098  14.695  66.974  1.00  0.00    -0.333 C  
BRANCH  13  16
HETATM   16  C   UNL     1     -11.565  12.257  66.831  1.00  0.00    -0.361 C  
HETATM   17  C   UNL     1     -11.279  11.006  65.980  1.00  0.00     0.050 C  
BRANCH  16  18
HETATM   18  C   UNL     1     -11.450  11.861  68.288  1.00  0.00    -0.311 A  
HETATM   19  C   UNL     1     -12.038  11.799  70.430  1.00  0.00    -0.352 A  
HETATM   20  C   UNL     1     -11.370  10.646  70.077  1.00  0.00    -0.324 A  
HETATM   21  N   UNL     1     -10.973  10.724  68.761  1.00  0.00    -0.228 NA 
HETATM   22  H   UNL     1     -10.418  10.037  68.250  1.00  0.00     0.000 HD 
HETATM   23  N   UNL     1     -12.053  12.574  69.297  1.00  0.00    -0.218 NA 
BRANCH  20  24
HETATM   24  C   UNL     1     -11.178   9.447  70.882  1.00  0.00    -0.393 A  
HETATM   25  C   UNL     1     -12.079   7.882  72.524  1.00  0.00    -0.298 A  
HETATM   26  C   UNL     1     -10.856   7.222  72.586  1.00  0.00    -0.331 A  
HETATM   27  C   UNL     1      -9.796   7.657  71.789  1.00  0.00    -0.200 A  
HETATM   28  C   UNL     1     -12.237   8.983  71.678  1.00  0.00    -0.418 A  
HETATM   29  C   UNL     1      -9.956   8.760  70.937  1.00  0.00    -0.279 A  
ENDBRANCH  20  24
ENDBRANCH  16  18
ENDBRANCH  13  16
BRANCH  15  30
HETATM   30  C   UNL     1     -10.118  15.906  66.745  1.00  0.00    -0.271 C  
HETATM   31  H2  UNL     1     -11.391  16.838  65.366  1.00  0.00     0.000 HD 
HETATM   32  N   UNL     1     -10.413  16.558  65.440  1.00  0.00    -0.602 NA 
HETATM   33  H1  UNL     1      -9.778  17.343  65.292  1.00  0.00     0.000 HD 
BRANCH  30  34
HETATM   34  C   UNL     1     -10.173  17.032  67.801  1.00  0.00    -0.312 C  
BRANCH  34  35
HETATM   35  C   UNL     1      -9.063  18.065  67.842  1.00  0.00    -0.269 A  
HETATM   36  C   UNL     1      -7.590  16.427  69.186  1.00  0.00    -0.225 C  
HETATM   37  C   UNL     1      -8.164  20.290  67.376  1.00  0.00    -0.387 A  
HETATM   38  C   UNL     1     -10.529  19.930  66.789  1.00  0.00    -0.575 C  
HETATM   39  C   UNL     1      -7.840  17.745  68.490  1.00  0.00    -0.290 A  
HETATM   40  C   UNL     1      -9.240  19.380  67.345  1.00  0.00    -0.371 A  
HETATM   41  C   UNL     1      -6.938  19.943  67.935  1.00  0.00    -0.308 A  
HETATM   42  C   UNL     1      -6.792  18.677  68.507  1.00  0.00    -0.281 A  
BRANCH  41  43
HETATM   43  C   UNL     1      -5.772  20.868  67.999  1.00  0.00    -0.315 C  
HETATM   44  H2  UNL     1      -5.620  21.059  65.934  1.00  0.00     0.000 HD 
HETATM   45  H1  UNL     1      -4.432  21.971  66.878  1.00  0.00     0.000 HD 
HETATM   46  N   UNL     1      -5.230  21.338  66.834  1.00  0.00    -0.224 N  
HETATM   47  O   UNL     1      -5.286  21.216  69.071  1.00  0.00    -0.326 OA 
ENDBRANCH  41  43
ENDBRANCH  34  35
ENDBRANCH  30  34
ENDBRANCH  15  30
ENDBRANCH  12  13
ENDBRANCH   6  12
ENDBRANCH   2   3
TORSDOF 10
ENDMDL
MODEL       56
REMARK 921   NORMALIZED FREE ENERGY PREDICTED BY IDOCK:   -5.52 KCAL/MOL
REMARK 922        TOTAL FREE ENERGY PREDICTED BY IDOCK:  -11.62 KCAL/MOL
REMARK 923 INTER-LIGAND FREE ENERGY PREDICTED BY IDOCK:   -9.25 KCAL/MOL
REMARK 924 INTRA-LIGAND FREE ENERGY PREDICTED BY IDOCK:   -2.38 KCAL/MOL
REMARK 927      BINDING AFFINITY PREDICTED BY RF-SCORE:    0.00 PKD
ROOT
HETATM    1  C   UNL     1     -10.659   7.255  72.279  1.00  0.00    -0.224 C  
HETATM    2  O   UNL     1     -11.707   8.135  71.870  1.00  0.00    -0.275 OA 
ENDROOT
BRANCH   2   3
HETATM    3  C   UNL     1     -11.501   8.856  70.720  1.00  0.00    -0.275 A  
HETATM    4  C   UNL     1     -10.667   8.437  69.680  1.00  0.00    -0.201 A  
HETATM    5  C   UNL     1     -10.580   9.171  68.493  1.00  0.00    -0.209 A  
HETATM    6  C   UNL     1     -11.291  10.362  68.322  1.00  0.00    -0.292 A  
HETATM    7  C   UNL     1     -12.081  10.815  69.390  1.00  0.00    -0.315 A  
HETATM    8  C   UNL     1     -13.078  10.644  71.635  1.00  0.00    -0.450 C  
HETATM    9  O   UNL     1     -13.686   9.734  72.423  1.00  0.00    -0.376 OA 
HETATM   10  C   UNL     1     -12.200  10.068  70.578  1.00  0.00    -0.308 A  
HETATM   11  O   UNL     1     -13.282  11.844  71.731  1.00  0.00    -0.454 OA 
BRANCH   6  12
HETATM   12  C   UNL     1     -11.261  11.140  67.021  1.00  0.00    -0.219 C  
BRANCH  12  13
HETATM   13  N   UNL     1     -10.388  12.327  67.001  1.00  0.00    -0.218 N  
HETATM   14  O   UNL     1      -8.273  13.255  66.833  1.00  0.00    -0.096 OA 
HETATM   15  C   UNL     1      -9.008  12.268  66.689  1.00  0.00    -0.189 C  
BRANCH  13  16
HETATM   16  C   UNL     1     -10.902  13.565  67.643  1.00  0.00    -0.260 C  
HETATM   17  C   UNL     1     -10.433  13.762  69.096  1.00  0.00    -0.044 C  
BRANCH  16  18
HETATM   18  C   UNL     1     -10.506  14.799  66.859  1.00  0.00    -0.277 A  
HETATM   19  C   UNL     1     -10.760  16.432  65.374  1.00  0.00    -0.296 A  
HETATM   20  C   UNL     1      -9.934  16.834  66.401  1.00  0.00    -0.304 A  
HETATM   21  N   UNL     1      -9.750  15.794  67.284  1.00  0.00    -0.222 NA 
HETATM   22  H   UNL     1      -9.148  15.793  68.107  1.00  0.00     0.000 HD 
HETATM   23  N   UNL     1     -11.090  15.130  65.659  1.00  0.00    -0.341 NA 
BRANCH  20  24
HETATM   24  C   UNL     1      -9.395  18.167  66.639  1.00  0.00    -0.300 A  
HETATM   25  C   UNL     1      -9.795  20.569  66.811  1.00  0.00    -0.460 A  
HETATM   26  C   UNL     1      -8.430  20.800  66.946  1.00  0.00    -0.117 A  
HETATM   27  C   UNL     1      -7.544  19.722  66.945  1.00  0.00    -0.287 A  
HETATM   28  C   UNL     1     -10.272  19.264  66.661  1.00  0.00    -0.512 A  
HETATM   29  C   UNL     1      -8.023  18.412  66.798  1.00  0.00    -0.261 A  
ENDBRANCH  20  24
ENDBRANCH  16  18
ENDBRANCH  13  16
BRANCH  15  30
HETATM   30  C   UNL     1      -8.439  10.916  66.118  1.00  0.00    -0.171 C  
HETATM   31  H2  UNL     1      -7.648  11.825  64.403  1.00  0.00     0.000 HD 
HETATM   32  N   UNL     1      -8.236  11.029  64.648  1.00  0.00    -0.359 NA 
HETATM   33  H1  UNL     1      -7.868  10.153  64.279  1.00  0.00     0.000 HD 
BRANCH  30  34
HETATM   34  C   UNL     1      -7.081  10.454  66.695  1.00  0.00    -0.112 C  
BRANCH  34  35
HETATM   35  C   UNL     1      -7.059   9.398  67.784  1.00  0.00    -0.082 A  
HETATM   36  C   UNL     1      -7.553   7.576  66.026  1.00  0.00    -0.088 C  
HETATM   37  C   UNL     1      -6.890   8.711  70.124  1.00  0.00    -0.039 A  
HETATM   38  C   UNL     1      -6.888  11.139  69.703  1.00  0.00    -0.117 C  
HETATM   39  C   UNL     1      -7.268   8.037  67.436  1.00  0.00    -0.088 A  
HETATM   40  C   UNL     1      -6.940   9.734  69.156  1.00  0.00    -0.055 A  
HETATM   41  C   UNL     1      -7.008   7.371  69.770  1.00  0.00    -0.056 A  
HETATM   42  C   UNL     1      -7.217   7.045  68.428  1.00  0.00    -0.088 A  
BRANCH  41  43
HETATM   43  C   UNL     1      -6.968   6.254  70.753  1.00  0.00    -0.068 C  
HETATM   44  H2  UNL     1      -8.950   5.706  70.438  1.00  0.00     0.000 HD 
HETATM   45  H1  UNL     1      -8.066   4.738  71.629  1.00  0.00     0.000 HD 
HETATM   46  N   UNL     1      -8.094   5.503  70.955  1.00  0.00    -0.116 N  
HETATM   47  O   UNL     1      -5.950   5.992  71.387  1.00  0.00    -0.029 OA 
ENDBRANCH  41  43
ENDBRANCH  34  35
ENDBRANCH  30  34
ENDBRANCH  15  30
ENDBRANCH  12  13
ENDBRANCH   6  12
ENDBRANCH   2   3
TORSDOF 10
ENDMDL
MODEL       57
REMARK 921   NORMALIZED FREE ENERGY PREDICTED BY IDOCK:   -5.52 KCAL/MOL
REMARK 922        TOTAL FREE ENERGY PREDICTED BY IDOCK:  -11.62 KCAL/MOL
REMARK 923 INTER-LIGAND FREE ENERGY PREDICTED BY IDOCK:   -8.92 KCAL/MOL
REMARK 924 INTRA-LIGAND FREE ENERGY PREDICTED BY IDOCK:   -2.70 KCAL/MOL
REMARK 927      BINDING AFFINITY PREDICTED BY RF-SCORE:    0.00 PKD
ROOT
HETATM    1  C   UNL     1      -8.267   6.090  64.526  1.00  0.00    -0.095 C  
HETATM    2  O   UNL     1      -8.293   5.860  65.936  1.00  0.00    -0.123 OA 
ENDROOT
BRANCH   2   3
HETATM    3  C   UNL     1      -8.537   6.945  66.740  1.00  0.00    -0.120 A  
HETATM    4  C   UNL     1      -9.758   7.624  66.779  1.00  0.00    -0.290 A  
HETATM    5  C   UNL     1      -9.972   8.661  67.693  1.00  0.00    -0.248 A  
HETATM    6  C   UNL     1      -8.964   9.076  68.568  1.00  0.00    -0.133 A  
HETATM    7  C   UNL     1      -7.718   8.435  68.487  1.00  0.00    -0.104 A  
HETATM    8  C   UNL     1      -6.142   6.761  67.605  1.00  0.00    -0.028 C  
HETATM    9  O   UNL     1      -6.106   5.451  67.287  1.00  0.00    -0.028 OA 
HETATM   10  C   UNL     1      -7.502   7.370  67.591  1.00  0.00    -0.097 A  
HETATM   11  O   UNL     1      -5.151   7.387  67.947  1.00  0.00    -0.022 OA 
BRANCH   6  12
HETATM   12  C   UNL     1      -9.194  10.153  69.610  1.00  0.00    -0.183 C  
BRANCH  12  13
HETATM   13  N   UNL     1     -10.413  10.012  70.426  1.00  0.00    -0.279 N  
HETATM   14  O   UNL     1     -11.667   8.817  71.961  1.00  0.00    -0.336 OA 
HETATM   15  C   UNL     1     -10.576   9.004  71.406  1.00  0.00    -0.323 C  
BRANCH  13  16
HETATM   16  C   UNL     1     -11.625  10.745  69.975  1.00  0.00    -0.334 C  
HETATM   17  C   UNL     1     -12.431  11.390  71.118  1.00  0.00    -0.465 C  
BRANCH  16  18
HETATM   18  C   UNL     1     -11.273  11.836  68.985  1.00  0.00    -0.265 A  
HETATM   19  C   UNL     1     -11.591  13.184  67.247  1.00  0.00    -0.355 A  
HETATM   20  C   UNL     1     -10.765  13.778  68.178  1.00  0.00    -0.248 A  
HETATM   21  N   UNL     1     -10.542  12.910  69.222  1.00  0.00    -0.435 NA 
HETATM   22  H   UNL     1      -9.931  13.066  70.024  1.00  0.00     0.000 HD 
HETATM   23  N   UNL     1     -11.879  11.941  67.756  1.00  0.00    -0.573 NA 
BRANCH  20  24
HETATM   24  C   UNL     1     -10.262  15.146  68.176  1.00  0.00    -0.227 A  
HETATM   25  C   UNL     1     -10.656  17.502  67.673  1.00  0.00    -0.355 A  
HETATM   26  C   UNL     1      -9.337  17.805  67.998  1.00  0.00    -0.276 A  
HETATM   27  C   UNL     1      -8.482  16.789  68.427  1.00  0.00    -0.231 A  
HETATM   28  C   UNL     1     -11.113  16.185  67.764  1.00  0.00    -0.254 A  
HETATM   29  C   UNL     1      -8.942  15.468  68.521  1.00  0.00    -0.191 A  
ENDBRANCH  20  24
ENDBRANCH  16  18
ENDBRANCH  13  16
BRANCH  15  30
HETATM   30  C   UNL     1      -9.315   8.146  71.798  1.00  0.00    -0.181 C  
HETATM   31  H2  UNL     1      -9.373   8.747  73.805  1.00  0.00     0.000 HD 
HETATM   32  N   UNL     1      -8.700   8.685  73.041  1.00  0.00    -0.366 NA 
HETATM   33  H1  UNL     1      -7.883   8.130  73.295  1.00  0.00     0.000 HD 
BRANCH  30  34
HETATM   34  C   UNL     1      -9.573   6.648  72.072  1.00  0.00    -0.150 C  
BRANCH  34  35
HETATM   35  C   UNL     1      -9.159   5.622  71.033  1.00  0.00    -0.159 A  
HETATM   36  C   UNL     1     -11.367   6.020  69.761  1.00  0.00    -0.344 C  
HETATM   37  C   UNL     1      -7.628   3.927  70.162  1.00  0.00    -0.048 A  
HETATM   38  C   UNL     1      -7.058   4.876  72.363  1.00  0.00    -0.080 C  
HETATM   39  C   UNL     1     -10.021   5.357  69.936  1.00  0.00    -0.294 A  
HETATM   40  C   UNL     1      -7.984   4.842  71.174  1.00  0.00    -0.088 A  
HETATM   41  C   UNL     1      -8.433   3.733  69.044  1.00  0.00    -0.099 A  
HETATM   42  C   UNL     1      -9.636   4.436  68.950  1.00  0.00    -0.233 A  
BRANCH  41  43
HETATM   43  C   UNL     1      -8.105   2.776  67.951  1.00  0.00    -0.069 C  
HETATM   44  H2  UNL     1      -9.848   3.165  66.885  1.00  0.00     0.000 HD 
HETATM   45  H1  UNL     1      -8.756   1.972  66.162  1.00  0.00     0.000 HD 
HETATM   46  N   UNL     1      -8.981   2.627  66.911  1.00  0.00    -0.141 N  
HETATM   47  O   UNL     1      -7.069   2.118  67.962  1.00  0.00    -0.046 OA 
ENDBRANCH  41  43
ENDBRANCH  34  35
ENDBRANCH  30  34
ENDBRANCH  15  30
ENDBRANCH  12  13
ENDBRANCH   6  12
ENDBRANCH   2   3
TORSDOF 10
ENDMDL
MODEL       58
REMARK 921   NORMALIZED FREE ENERGY PREDICTED BY IDOCK:   -5.52 KCAL/MOL
REMARK 922        TOTAL FREE ENERGY PREDICTED BY IDOCK:  -11.62 KCAL/MOL
REMARK 923 INTER-LIGAND FREE ENERGY PREDICTED BY IDOCK:   -9.47 KCAL/MOL
REMARK 924 INTRA-LIGAND FREE ENERGY PREDICTED BY IDOCK:   -2.15 KCAL/MOL
REMARK 927      BINDING AFFINITY PREDICTED BY RF-SCORE:    0.00 PKD
ROOT
HETATM    1  C   UNL     1      -6.870   2.991  73.735  1.00  0.00    -0.035 C  
HETATM    2  O   UNL     1      -7.785   3.877  74.382  1.00  0.00    -0.075 OA 
ENDROOT
BRANCH   2   3
HETATM    3  C   UNL     1      -8.102   5.036  73.720  1.00  0.00    -0.106 A  
HETATM    4  C   UNL     1      -7.174   6.036  73.416  1.00  0.00    -0.085 A  
HETATM    5  C   UNL     1      -7.543   7.147  72.651  1.00  0.00    -0.087 A  
HETATM    6  C   UNL     1      -8.855   7.313  72.199  1.00  0.00    -0.143 A  
HETATM    7  C   UNL     1      -9.802   6.340  72.556  1.00  0.00    -0.177 A  
HETATM    8  C   UNL     1     -10.523   4.233  73.607  1.00  0.00    -0.204 C  
HETATM    9  O   UNL     1     -10.124   2.950  73.715  1.00  0.00    -0.101 OA 
HETATM   10  C   UNL     1      -9.434   5.202  73.300  1.00  0.00    -0.149 A  
HETATM   11  O   UNL     1     -11.694   4.571  73.684  1.00  0.00    -0.167 OA 
BRANCH   6  12
HETATM   12  C   UNL     1      -9.263   8.476  71.316  1.00  0.00    -0.200 C  
BRANCH  12  13
HETATM   13  N   UNL     1     -10.264   8.175  70.276  1.00  0.00    -0.197 N  
HETATM   14  O   UNL     1     -10.769   7.568  68.100  1.00  0.00    -0.174 OA 
HETATM   15  C   UNL     1      -9.925   7.662  69.001  1.00  0.00    -0.181 C  
BRANCH  13  16
HETATM   16  C   UNL     1     -11.629   8.734  70.459  1.00  0.00    -0.147 C  
HETATM   17  C   UNL     1     -12.232   8.479  71.853  1.00  0.00    -0.411 C  
BRANCH  16  18
HETATM   18  C   UNL     1     -11.649  10.229  70.214  1.00  0.00    -0.316 A  
HETATM   19  C   UNL     1     -12.080  12.099  69.094  1.00  0.00    -0.168 A  
HETATM   20  C   UNL     1     -12.089  12.334  70.452  1.00  0.00    -0.300 A  
HETATM   21  N   UNL     1     -11.773  11.176  71.126  1.00  0.00    -0.140 NA 
HETATM   22  H   UNL     1     -11.658  11.070  72.133  1.00  0.00     0.000 HD 
HETATM   23  N   UNL     1     -11.768  10.769  68.955  1.00  0.00    -0.299 NA 
BRANCH  20  24
HETATM   24  C   UNL     1     -12.473  13.560  71.140  1.00  0.00    -0.424 A  
HETATM   25  C   UNL     1     -11.921  15.857  71.752  1.00  0.00    -0.573 A  
HETATM   26  C   UNL     1     -13.055  15.930  72.555  1.00  0.00    -0.536 A  
HETATM   27  C   UNL     1     -13.910  14.830  72.642  1.00  0.00    -0.506 A  
HETATM   28  C   UNL     1     -11.635  14.683  71.050  1.00  0.00    -0.277 A  
HETATM   29  C   UNL     1     -13.624  13.653  71.935  1.00  0.00    -0.512 A  
ENDBRANCH  20  24
ENDBRANCH  16  18
ENDBRANCH  13  16
BRANCH  15  30
HETATM   30  C   UNL     1      -8.444   7.179  68.771  1.00  0.00    -0.126 C  
HETATM   31  H2  UNL     1      -8.986   5.817  67.273  1.00  0.00     0.000 HD 
HETATM   32  N   UNL     1      -8.441   5.833  68.134  1.00  0.00    -0.110 NA 
HETATM   33  H1  UNL     1      -7.482   5.521  67.986  1.00  0.00     0.000 HD 
BRANCH  30  34
HETATM   34  C   UNL     1      -7.571   8.075  67.864  1.00  0.00    -0.112 C  
BRANCH  34  35
HETATM   35  C   UNL     1      -8.237   9.137  67.010  1.00  0.00    -0.116 A  
HETATM   36  C   UNL     1      -8.210   7.531  64.992  1.00  0.00    -0.105 C  
HETATM   37  C   UNL     1      -9.124  11.389  66.665  1.00  0.00    -0.187 A  
HETATM   38  C   UNL     1      -8.042  10.970  68.839  1.00  0.00    -0.135 C  
HETATM   39  C   UNL     1      -8.547   8.846  65.654  1.00  0.00    -0.188 A  
HETATM   40  C   UNL     1      -8.471  10.451  67.489  1.00  0.00    -0.115 A  
HETATM   41  C   UNL     1      -9.504  11.072  65.365  1.00  0.00    -0.257 A  
HETATM   42  C   UNL     1      -9.194   9.807  64.862  1.00  0.00    -0.314 A  
BRANCH  41  43
HETATM   43  C   UNL     1     -10.192  12.027  64.453  1.00  0.00    -0.302 C  
HETATM   44  H2  UNL     1     -10.547  13.430  65.947  1.00  0.00     0.000 HD 
HETATM   45  H1  UNL     1     -11.135  13.861  64.333  1.00  0.00     0.000 HD 
HETATM   46  N   UNL     1     -10.665  13.207  64.958  1.00  0.00    -0.309 N  
HETATM   47  O   UNL     1     -10.345  11.780  63.261  1.00  0.00    -0.405 OA 
ENDBRANCH  41  43
ENDBRANCH  34  35
ENDBRANCH  30  34
ENDBRANCH  15  30
ENDBRANCH  12  13
ENDBRANCH   6  12
ENDBRANCH   2   3
TORSDOF 10
ENDMDL
MODEL       59
REMARK 921   NORMALIZED FREE ENERGY PREDICTED BY IDOCK:   -5.50 KCAL/MOL
REMARK 922        TOTAL FREE ENERGY PREDICTED BY IDOCK:  -11.58 KCAL/MOL
REMARK 923 INTER-LIGAND FREE ENERGY PREDICTED BY IDOCK:  -10.20 KCAL/MOL
REMARK 924 INTRA-LIGAND FREE ENERGY PREDICTED BY IDOCK:   -1.38 KCAL/MOL
REMARK 927      BINDING AFFINITY PREDICTED BY RF-SCORE:    0.00 PKD
ROOT
HETATM    1  C   UNL     1      -5.509   8.207  64.203  1.00  0.00    -0.045 C  
HETATM    2  O   UNL     1      -6.100   9.506  64.144  1.00  0.00    -0.086 OA 
ENDROOT
BRANCH   2   3
HETATM    3  C   UNL     1      -6.789   9.927  65.254  1.00  0.00    -0.114 A  
HETATM    4  C   UNL     1      -6.259   9.917  66.548  1.00  0.00    -0.069 A  
HETATM    5  C   UNL     1      -6.978  10.452  67.621  1.00  0.00    -0.083 A  
HETATM    6  C   UNL     1      -8.261  10.980  67.443  1.00  0.00    -0.122 A  
HETATM    7  C   UNL     1      -8.818  10.934  66.156  1.00  0.00    -0.195 A  
HETATM    8  C   UNL     1      -8.782  10.441  63.743  1.00  0.00    -0.193 C  
HETATM    9  O   UNL     1      -7.965  10.578  62.679  1.00  0.00    -0.152 OA 
HETATM   10  C   UNL     1      -8.090  10.425  65.063  1.00  0.00    -0.136 A  
HETATM   11  O   UNL     1      -9.999  10.404  63.644  1.00  0.00    -0.294 OA 
BRANCH   6  12
HETATM   12  C   UNL     1      -9.033  11.623  68.579  1.00  0.00    -0.138 C  
BRANCH  12  13
HETATM   13  N   UNL     1     -10.348  11.030  68.880  1.00  0.00    -0.199 N  
HETATM   14  O   UNL     1     -12.658  11.107  68.745  1.00  0.00    -0.345 OA 
HETATM   15  C   UNL     1     -11.563  11.529  68.350  1.00  0.00    -0.308 C  
BRANCH  13  16
HETATM   16  C   UNL     1     -10.426  10.088  70.028  1.00  0.00    -0.287 C  
HETATM   17  C   UNL     1     -11.716  10.215  70.859  1.00  0.00    -0.468 C  
BRANCH  16  18
HETATM   18  C   UNL     1     -10.312   8.649  69.569  1.00  0.00    -0.214 A  
HETATM   19  C   UNL     1     -10.975   6.547  69.288  1.00  0.00    -0.331 A  
HETATM   20  C   UNL     1     -10.116   6.924  68.278  1.00  0.00    -0.167 A  
HETATM   21  N   UNL     1      -9.680   8.211  68.496  1.00  0.00    -0.159 NA 
HETATM   22  H   UNL     1      -9.000   8.727  67.937  1.00  0.00     0.000 HD 
HETATM   23  N   UNL     1     -11.066   7.638  70.117  1.00  0.00    -0.247 NA 
BRANCH  20  24
HETATM   24  C   UNL     1      -9.768   6.172  67.079  1.00  0.00    -0.167 A  
HETATM   25  C   UNL     1      -8.457   6.031  65.025  1.00  0.00    -0.089 A  
HETATM   26  C   UNL     1      -9.127   4.867  64.662  1.00  0.00    -0.077 A  
HETATM   27  C   UNL     1     -10.104   4.341  65.509  1.00  0.00    -0.235 A  
HETATM   28  C   UNL     1      -8.774   6.675  66.223  1.00  0.00    -0.150 A  
HETATM   29  C   UNL     1     -10.420   4.986  66.713  1.00  0.00    -0.273 A  
ENDBRANCH  20  24
ENDBRANCH  16  18
ENDBRANCH  13  16
BRANCH  15  30
HETATM   30  C   UNL     1     -11.479  12.615  67.214  1.00  0.00    -0.342 C  
HETATM   31  H2  UNL     1     -12.957  11.693  66.048  1.00  0.00     0.000 HD 
HETATM   32  N   UNL     1     -12.012  12.061  65.939  1.00  0.00    -0.519 NA 
HETATM   33  H1  UNL     1     -11.957  12.765  65.204  1.00  0.00     0.000 HD 
BRANCH  30  34
HETATM   34  C   UNL     1     -12.265  13.921  67.465  1.00  0.00    -0.266 C  
BRANCH  34  35
HETATM   35  C   UNL     1     -11.505  15.192  67.796  1.00  0.00    -0.329 A  
HETATM   36  C   UNL     1     -10.889  15.471  65.307  1.00  0.00    -0.425 C  
HETATM   37  C   UNL     1     -10.628  16.834  69.381  1.00  0.00    -0.318 A  
HETATM   38  C   UNL     1     -11.762  14.878  70.361  1.00  0.00    -0.347 C  
HETATM   39  C   UNL     1     -10.877  15.918  66.750  1.00  0.00    -0.228 A  
HETATM   40  C   UNL     1     -11.313  15.627  69.132  1.00  0.00    -0.341 A  
HETATM   41  C   UNL     1     -10.088  17.588  68.345  1.00  0.00    -0.358 A  
HETATM   42  C   UNL     1     -10.199  17.113  67.037  1.00  0.00    -0.313 A  
BRANCH  41  43
HETATM   43  C   UNL     1      -9.351  18.866  68.555  1.00  0.00    -0.366 C  
HETATM   44  H2  UNL     1     -10.978  20.060  68.053  1.00  0.00     0.000 HD 
HETATM   45  H1  UNL     1      -9.497  20.926  68.492  1.00  0.00     0.000 HD 
HETATM   46  N   UNL     1     -10.001  20.051  68.348  1.00  0.00    -0.389 N  
HETATM   47  O   UNL     1      -8.176  18.879  68.908  1.00  0.00    -0.320 OA 
ENDBRANCH  41  43
ENDBRANCH  34  35
ENDBRANCH  30  34
ENDBRANCH  15  30
ENDBRANCH  12  13
ENDBRANCH   6  12
ENDBRANCH   2   3
TORSDOF 10
ENDMDL
MODEL       60
REMARK 921   NORMALIZED FREE ENERGY PREDICTED BY IDOCK:   -5.49 KCAL/MOL
REMARK 922        TOTAL FREE ENERGY PREDICTED BY IDOCK:  -11.58 KCAL/MOL
REMARK 923 INTER-LIGAND FREE ENERGY PREDICTED BY IDOCK:  -10.62 KCAL/MOL
REMARK 924 INTRA-LIGAND FREE ENERGY PREDICTED BY IDOCK:   -0.96 KCAL/MOL
REMARK 927      BINDING AFFINITY PREDICTED BY RF-SCORE:    0.00 PKD
ROOT
HETATM    1  C   UNL     1     -10.405  11.875  63.271  1.00  0.00    -0.391 C  
HETATM    2  O   UNL     1     -10.830  10.900  64.225  1.00  0.00    -0.309 OA 
ENDROOT
BRANCH   2   3
HETATM    3  C   UNL     1     -10.820  11.276  65.545  1.00  0.00    -0.179 A  
HETATM    4  C   UNL     1     -11.753  12.148  66.112  1.00  0.00    -0.384 A  
HETATM    5  C   UNL     1     -11.745  12.411  67.486  1.00  0.00    -0.425 A  
HETATM    6  C   UNL     1     -10.785  11.842  68.328  1.00  0.00    -0.253 A  
HETATM    7  C   UNL     1      -9.809  11.015  67.748  1.00  0.00    -0.190 A  
HETATM    8  C   UNL     1      -8.749   9.819  65.875  1.00  0.00    -0.139 C  
HETATM    9  O   UNL     1      -9.091   9.056  64.818  1.00  0.00    -0.165 OA 
HETATM   10  C   UNL     1      -9.827  10.720  66.371  1.00  0.00    -0.254 A  
HETATM   11  O   UNL     1      -7.665   9.732  66.431  1.00  0.00    -0.100 OA 
BRANCH   6  12
HETATM   12  C   UNL     1     -10.795  12.063  69.827  1.00  0.00     0.350 C  
BRANCH  12  13
HETATM   13  N   UNL     1     -12.055  11.736  70.518  1.00  0.00    -0.374 N  
HETATM   14  O   UNL     1     -13.648  10.178  71.147  1.00  0.00    -0.284 OA 
HETATM   15  C   UNL     1     -12.516  10.410  70.703  1.00  0.00    -0.348 C  
BRANCH  13  16
HETATM   16  C   UNL     1     -13.023  12.843  70.734  1.00  0.00     0.059 C  
HETATM   17  C   UNL     1     -13.650  12.866  72.141  1.00  0.00    -0.589 C  
BRANCH  16  18
HETATM   18  C   UNL     1     -12.378  14.193  70.494  1.00  0.00    -0.364 A  
HETATM   19  C   UNL     1     -10.955  15.859  70.860  1.00  0.00    -0.187 A  
HETATM   20  C   UNL     1     -11.304  15.803  69.528  1.00  0.00    -0.328 A  
HETATM   21  N   UNL     1     -12.222  14.796  69.331  1.00  0.00    -0.513 NA 
HETATM   22  H   UNL     1     -12.690  14.562  68.455  1.00  0.00     0.000 HD 
HETATM   23  N   UNL     1     -11.667  14.854  71.468  1.00  0.00    -0.347 NA 
BRANCH  20  24
HETATM   24  C   UNL     1     -10.746  16.579  68.429  1.00  0.00    -0.339 A  
HETATM   25  C   UNL     1     -10.196  16.719  66.054  1.00  0.00    -0.361 A  
HETATM   26  C   UNL     1      -9.562  17.940  66.260  1.00  0.00    -0.252 A  
HETATM   27  C   UNL     1      -9.530  18.494  67.540  1.00  0.00    -0.291 A  
HETATM   28  C   UNL     1     -10.784  16.047  67.129  1.00  0.00    -0.283 A  
HETATM   29  C   UNL     1     -10.123  17.821  68.618  1.00  0.00    -0.384 A  
ENDBRANCH  20  24
ENDBRANCH  16  18
ENDBRANCH  13  16
BRANCH  15  30
HETATM   30  C   UNL     1     -11.528   9.232  70.360  1.00  0.00    -0.213 C  
HETATM   31  H2  UNL     1     -10.651   9.245  72.264  1.00  0.00     0.000 HD 
HETATM   32  N   UNL     1     -10.363   9.261  71.286  1.00  0.00    -0.325 NA 
HETATM   33  H1  UNL     1      -9.723   8.498  71.064  1.00  0.00     0.000 HD 
BRANCH  30  34
HETATM   34  C   UNL     1     -12.112   7.806  70.462  1.00  0.00     0.069 C  
BRANCH  34  35
HETATM   35  C   UNL     1     -11.256   6.623  70.049  1.00  0.00    -0.425 A  
HETATM   36  C   UNL     1     -11.068   5.897  72.517  1.00  0.00    -0.328 C  
HETATM   37  C   UNL     1     -10.053   5.307  68.376  1.00  0.00    -0.224 A  
HETATM   38  C   UNL     1     -11.078   7.400  67.578  1.00  0.00    -0.045 C  
HETATM   39  C   UNL     1     -10.789   5.722  71.043  1.00  0.00    -0.316 A  
HETATM   40  C   UNL     1     -10.818   6.442  68.713  1.00  0.00    -0.378 A  
HETATM   41  C   UNL     1      -9.670   4.379  69.340  1.00  0.00    -0.267 A  
HETATM   42  C   UNL     1     -10.025   4.605  70.671  1.00  0.00    -0.293 A  
BRANCH  41  43
HETATM   43  C   UNL     1      -8.858   3.168  69.038  1.00  0.00    -0.107 C  
HETATM   44  H2  UNL     1      -8.009   3.081  70.934  1.00  0.00     0.000 HD 
HETATM   45  H1  UNL     1      -7.497   1.816  69.805  1.00  0.00     0.000 HD 
HETATM   46  N   UNL     1      -8.052   2.646  70.012  1.00  0.00    -0.042 N  
HETATM   47  O   UNL     1      -8.894   2.628  67.936  1.00  0.00    -0.100 OA 
ENDBRANCH  41  43
ENDBRANCH  34  35
ENDBRANCH  30  34
ENDBRANCH  15  30
ENDBRANCH  12  13
ENDBRANCH   6  12
ENDBRANCH   2   3
TORSDOF 10
ENDMDL
MODEL       61
REMARK 921   NORMALIZED FREE ENERGY PREDICTED BY IDOCK:   -5.47 KCAL/MOL
REMARK 922        TOTAL FREE ENERGY PREDICTED BY IDOCK:  -11.54 KCAL/MOL
REMARK 923 INTER-LIGAND FREE ENERGY PREDICTED BY IDOCK:   -8.81 KCAL/MOL
REMARK 924 INTRA-LIGAND FREE ENERGY PREDICTED BY IDOCK:   -2.73 KCAL/MOL
REMARK 927      BINDING AFFINITY PREDICTED BY RF-SCORE:    0.00 PKD
ROOT
HETATM    1  C   UNL     1      -9.557   8.170  72.984  1.00  0.00    -0.266 C  
HETATM    2  O   UNL     1      -8.823   8.967  72.053  1.00  0.00    -0.373 OA 
ENDROOT
BRANCH   2   3
HETATM    3  C   UNL     1      -9.230   8.926  70.742  1.00  0.00    -0.223 A  
HETATM    4  C   UNL     1     -10.526   8.590  70.341  1.00  0.00    -0.227 A  
HETATM    5  C   UNL     1     -10.901   8.664  68.996  1.00  0.00    -0.043 A  
HETATM    6  C   UNL     1      -9.987   9.040  68.008  1.00  0.00    -0.213 A  
HETATM    7  C   UNL     1      -8.669   9.318  68.402  1.00  0.00    -0.129 A  
HETATM    8  C   UNL     1      -6.866   9.603  70.055  1.00  0.00    -0.085 C  
HETATM    9  O   UNL     1      -6.657  10.172  71.259  1.00  0.00    -0.326 OA 
HETATM   10  C   UNL     1      -8.289   9.276  69.758  1.00  0.00    -0.143 A  
HETATM   11  O   UNL     1      -5.973   9.432  69.239  1.00  0.00    -0.037 OA 
BRANCH   6  12
HETATM   12  C   UNL     1     -10.388   9.188  66.553  1.00  0.00    -0.199 C  
BRANCH  12  13
HETATM   13  N   UNL     1      -9.280   9.304  65.588  1.00  0.00    -0.215 N  
HETATM   14  O   UNL     1      -7.389   8.412  64.594  1.00  0.00    -0.086 OA 
HETATM   15  C   UNL     1      -8.399   8.236  65.288  1.00  0.00    -0.166 C  
BRANCH  13  16
HETATM   16  C   UNL     1      -8.881  10.672  65.167  1.00  0.00    -0.193 C  
HETATM   17  C   UNL     1      -8.755  10.850  63.643  1.00  0.00    -0.030 C  
BRANCH  16  18
HETATM   18  C   UNL     1      -9.859  11.712  65.674  1.00  0.00    -0.240 A  
HETATM   19  C   UNL     1     -11.832  12.710  65.893  1.00  0.00    -0.444 A  
HETATM   20  C   UNL     1     -11.063  12.901  67.022  1.00  0.00    -0.275 A  
HETATM   21  N   UNL     1      -9.829  12.317  66.847  1.00  0.00    -0.206 NA 
HETATM   22  H   UNL     1      -9.044  12.346  67.498  1.00  0.00     0.000 HD 
HETATM   23  N   UNL     1     -11.045  11.983  65.034  1.00  0.00    -0.310 NA 
BRANCH  20  24
HETATM   24  C   UNL     1     -11.467  13.515  68.280  1.00  0.00    -0.345 A  
HETATM   25  C   UNL     1     -12.224  13.227  70.583  1.00  0.00    -0.417 A  
HETATM   26  C   UNL     1     -12.398  14.601  70.711  1.00  0.00    -0.398 A  
HETATM   27  C   UNL     1     -12.093  15.438  69.637  1.00  0.00    -0.354 A  
HETATM   28  C   UNL     1     -11.761  12.690  69.378  1.00  0.00    -0.387 A  
HETATM   29  C   UNL     1     -11.625  14.900  68.430  1.00  0.00    -0.348 A  
ENDBRANCH  20  24
ENDBRANCH  16  18
ENDBRANCH  13  16
BRANCH  15  30
HETATM   30  C   UNL     1      -8.763   6.806  65.837  1.00  0.00    -0.137 C  
HETATM   31  H2  UNL     1      -8.022   5.828  64.137  1.00  0.00     0.000 HD 
HETATM   32  N   UNL     1      -8.867   5.840  64.708  1.00  0.00    -0.363 NA 
HETATM   33  H1  UNL     1      -9.102   4.914  65.064  1.00  0.00     0.000 HD 
BRANCH  30  34
HETATM   34  C   UNL     1      -7.755   6.185  66.830  1.00  0.00    -0.103 C  
BRANCH  34  35
HETATM   35  C   UNL     1      -8.224   5.810  68.224  1.00  0.00    -0.108 A  
HETATM   36  C   UNL     1      -5.799   5.979  69.085  1.00  0.00    -0.019 C  
HETATM   37  C   UNL     1      -9.954   5.121  69.808  1.00  0.00    -0.313 A  
HETATM   38  C   UNL     1     -10.645   5.281  67.449  1.00  0.00    -0.168 C  
HETATM   39  C   UNL     1      -7.277   5.737  69.280  1.00  0.00    -0.066 A  
HETATM   40  C   UNL     1      -9.563   5.427  68.489  1.00  0.00    -0.169 A  
HETATM   41  C   UNL     1      -9.039   5.136  70.857  1.00  0.00    -0.175 A  
HETATM   42  C   UNL     1      -7.701   5.425  70.580  1.00  0.00    -0.089 A  
BRANCH  41  43
HETATM   43  C   UNL     1      -9.399   4.815  72.266  1.00  0.00    -0.127 C  
HETATM   44  H2  UNL     1      -7.422   4.708  72.904  1.00  0.00     0.000 HD 
HETATM   45  H1  UNL     1      -8.647   4.409  74.147  1.00  0.00     0.000 HD 
HETATM   46  N   UNL     1      -8.401   4.629  73.182  1.00  0.00    -0.100 N  
HETATM   47  O   UNL     1     -10.568   4.714  72.624  1.00  0.00    -0.197 OA 
ENDBRANCH  41  43
ENDBRANCH  34  35
ENDBRANCH  30  34
ENDBRANCH  15  30
ENDBRANCH  12  13
ENDBRANCH   6  12
ENDBRANCH   2   3
TORSDOF 10
ENDMDL
MODEL       62
REMARK 921   NORMALIZED FREE ENERGY PREDICTED BY IDOCK:   -5.47 KCAL/MOL
REMARK 922        TOTAL FREE ENERGY PREDICTED BY IDOCK:  -11.53 KCAL/MOL
REMARK 923 INTER-LIGAND FREE ENERGY PREDICTED BY IDOCK:  -10.08 KCAL/MOL
REMARK 924 INTRA-LIGAND FREE ENERGY PREDICTED BY IDOCK:   -1.45 KCAL/MOL
REMARK 927      BINDING AFFINITY PREDICTED BY RF-SCORE:    0.00 PKD
ROOT
HETATM    1  C   UNL     1      -5.449   5.028  67.889  1.00  0.00    -0.012 C  
HETATM    2  O   UNL     1      -5.441   6.285  67.210  1.00  0.00    -0.008 OA 
ENDROOT
BRANCH   2   3
HETATM    3  C   UNL     1      -6.280   7.258  67.692  1.00  0.00    -0.046 A  
HETATM    4  C   UNL     1      -6.329   7.648  69.033  1.00  0.00    -0.036 A  
HETATM    5  C   UNL     1      -7.137   8.715  69.440  1.00  0.00    -0.053 A  
HETATM    6  C   UNL     1      -7.947   9.400  68.529  1.00  0.00    -0.093 A  
HETATM    7  C   UNL     1      -7.944   8.969  67.193  1.00  0.00    -0.102 A  
HETATM    8  C   UNL     1      -7.187   7.556  65.324  1.00  0.00    -0.065 C  
HETATM    9  O   UNL     1      -6.044   7.069  64.803  1.00  0.00    -0.036 OA 
HETATM   10  C   UNL     1      -7.112   7.915  66.768  1.00  0.00    -0.077 A  
HETATM   11  O   UNL     1      -8.188   7.757  64.653  1.00  0.00    -0.140 OA 
BRANCH   6  12
HETATM   12  C   UNL     1      -8.781  10.599  68.935  1.00  0.00    -0.161 C  
BRANCH  12  13
HETATM   13  N   UNL     1     -10.069  10.754  68.235  1.00  0.00    -0.165 N  
HETATM   14  O   UNL     1     -11.468  11.990  66.867  1.00  0.00    -0.327 OA 
HETATM   15  C   UNL     1     -10.331  11.799  67.317  1.00  0.00    -0.206 C  
BRANCH  13  16
HETATM   16  C   UNL     1     -11.227   9.982  68.758  1.00  0.00    -0.122 C  
HETATM   17  C   UNL     1     -10.848   8.635  69.400  1.00  0.00    -0.108 C  
BRANCH  16  18
HETATM   18  C   UNL     1     -12.003  10.780  69.785  1.00  0.00    -0.325 A  
HETATM   19  C   UNL     1     -12.904  11.206  71.771  1.00  0.00    -0.374 A  
HETATM   20  C   UNL     1     -12.575  12.379  71.126  1.00  0.00    -0.251 A  
HETATM   21  N   UNL     1     -12.064  12.096  69.879  1.00  0.00    -0.284 NA 
HETATM   22  H   UNL     1     -11.786  12.771  69.168  1.00  0.00     0.000 HD 
HETATM   23  N   UNL     1     -12.567  10.201  70.897  1.00  0.00    -0.347 NA 
BRANCH  20  24
HETATM   24  C   UNL     1     -12.628  13.733  71.661  1.00  0.00    -0.370 A  
HETATM   25  C   UNL     1     -11.553  15.911  71.908  1.00  0.00    -0.542 A  
HETATM   26  C   UNL     1     -12.566  16.327  72.768  1.00  0.00    -0.419 A  
HETATM   27  C   UNL     1     -13.619  15.460  73.064  1.00  0.00    -0.563 A  
HETATM   28  C   UNL     1     -11.587  14.626  71.360  1.00  0.00    -0.226 A  
HETATM   29  C   UNL     1     -13.654  14.172  72.510  1.00  0.00    -0.644 A  
ENDBRANCH  20  24
ENDBRANCH  16  18
ENDBRANCH  13  16
BRANCH  15  30
HETATM   30  C   UNL     1      -9.120  12.693  66.854  1.00  0.00    -0.218 C  
HETATM   31  H2  UNL     1     -10.331  13.959  65.703  1.00  0.00     0.000 HD 
HETATM   32  N   UNL     1      -9.473  13.418  65.602  1.00  0.00    -0.485 NA 
HETATM   33  H1  UNL     1      -8.688  13.997  65.303  1.00  0.00     0.000 HD 
BRANCH  30  34
HETATM   34  C   UNL     1      -8.658  13.778  67.852  1.00  0.00    -0.183 C  
BRANCH  34  35
HETATM   35  C   UNL     1      -8.849  15.241  67.498  1.00  0.00    -0.188 A  
HETATM   36  C   UNL     1      -6.290  15.543  67.371  1.00  0.00    -0.106 C  
HETATM   37  C   UNL     1     -10.251  17.209  67.129  1.00  0.00    -0.316 A  
HETATM   38  C   UNL     1     -11.412  15.180  67.905  1.00  0.00    -0.344 C  
HETATM   39  C   UNL     1      -7.708  16.052  67.256  1.00  0.00    -0.215 A  
HETATM   40  C   UNL     1     -10.126  15.855  67.500  1.00  0.00    -0.247 A  
HETATM   41  C   UNL     1      -9.137  17.978  66.808  1.00  0.00    -0.280 A  
HETATM   42  C   UNL     1      -7.870  17.398  66.894  1.00  0.00    -0.258 A  
BRANCH  41  43
HETATM   43  C   UNL     1      -9.213  19.413  66.416  1.00  0.00    -0.360 C  
HETATM   44  H2  UNL     1     -11.247  19.570  66.822  1.00  0.00     0.000 HD 
HETATM   45  H1  UNL     1     -10.466  21.045  66.228  1.00  0.00     0.000 HD 
HETATM   46  N   UNL     1     -10.414  20.063  66.497  1.00  0.00    -0.443 N  
HETATM   47  O   UNL     1      -8.225  20.025  66.021  1.00  0.00    -0.333 OA 
ENDBRANCH  41  43
ENDBRANCH  34  35
ENDBRANCH  30  34
ENDBRANCH  15  30
ENDBRANCH  12  13
ENDBRANCH   6  12
ENDBRANCH   2   3
TORSDOF 10
ENDMDL
MODEL       63
REMARK 921   NORMALIZED FREE ENERGY PREDICTED BY IDOCK:   -5.44 KCAL/MOL
REMARK 922        TOTAL FREE ENERGY PREDICTED BY IDOCK:  -11.50 KCAL/MOL
REMARK 923 INTER-LIGAND FREE ENERGY PREDICTED BY IDOCK:  -10.58 KCAL/MOL
REMARK 924 INTRA-LIGAND FREE ENERGY PREDICTED BY IDOCK:   -0.91 KCAL/MOL
REMARK 927      BINDING AFFINITY PREDICTED BY RF-SCORE:    0.00 PKD
ROOT
HETATM    1  C   UNL     1     -10.182   5.719  74.351  1.00  0.00    -0.281 C  
HETATM    2  O   UNL     1     -10.699   5.572  73.028  1.00  0.00    -0.218 OA 
ENDROOT
BRANCH   2   3
HETATM    3  C   UNL     1     -10.647   6.676  72.214  1.00  0.00    -0.214 A  
HETATM    4  C   UNL     1     -10.849   7.984  72.663  1.00  0.00    -0.436 A  
HETATM    5  C   UNL     1     -10.683   9.071  71.800  1.00  0.00    -0.437 A  
HETATM    6  C   UNL     1     -10.348   8.886  70.456  1.00  0.00    -0.246 A  
HETATM    7  C   UNL     1     -10.206   7.570  69.989  1.00  0.00    -0.215 A  
HETATM    8  C   UNL     1     -10.154   5.122  70.248  1.00  0.00    -0.268 C  
HETATM    9  O   UNL     1      -9.659   4.188  71.085  1.00  0.00    -0.154 OA 
HETATM   10  C   UNL     1     -10.341   6.469  70.857  1.00  0.00    -0.243 A  
HETATM   11  O   UNL     1     -10.369   4.905  69.066  1.00  0.00    -0.148 OA 
BRANCH   6  12
HETATM   12  C   UNL     1     -10.102  10.052  69.518  1.00  0.00    -0.227 C  
BRANCH  12  13
HETATM   13  N   UNL     1      -8.813  10.042  68.804  1.00  0.00    -0.130 N  
HETATM   14  O   UNL     1      -7.593   9.634  66.879  1.00  0.00    -0.094 OA 
HETATM   15  C   UNL     1      -8.698   9.788  67.416  1.00  0.00    -0.132 C  
BRANCH  13  16
HETATM   16  C   UNL     1      -7.577   9.975  69.626  1.00  0.00    -0.147 C  
HETATM   17  C   UNL     1      -6.650   8.797  69.274  1.00  0.00    -0.049 C  
BRANCH  16  18
HETATM   18  C   UNL     1      -6.767  11.250  69.511  1.00  0.00    -0.128 A  
HETATM   19  C   UNL     1      -5.155  12.571  68.740  1.00  0.00    -0.055 A  
HETATM   20  C   UNL     1      -6.249  13.315  69.128  1.00  0.00    -0.099 A  
HETATM   21  N   UNL     1      -7.216  12.484  69.646  1.00  0.00    -0.229 NA 
HETATM   22  H   UNL     1      -8.106  12.766  70.056  1.00  0.00     0.000 HD 
HETATM   23  N   UNL     1      -5.483  11.267  69.018  1.00  0.00    -0.040 NA 
BRANCH  20  24
HETATM   24  C   UNL     1      -6.462  14.745  68.945  1.00  0.00    -0.089 A  
HETATM   25  C   UNL     1      -8.031  16.610  68.815  1.00  0.00    -0.239 A  
HETATM   26  C   UNL     1      -6.997  17.472  68.464  1.00  0.00    -0.214 A  
HETATM   27  C   UNL     1      -5.694  16.983  68.368  1.00  0.00    -0.132 A  
HETATM   28  C   UNL     1      -7.764  15.260  69.055  1.00  0.00    -0.183 A  
HETATM   29  C   UNL     1      -5.426  15.628  68.612  1.00  0.00    -0.096 A  
ENDBRANCH  20  24
ENDBRANCH  16  18
ENDBRANCH  13  16
BRANCH  15  30
HETATM   30  C   UNL     1     -10.022   9.743  66.564  1.00  0.00    -0.239 C  
HETATM   31  H2  UNL     1     -10.811   8.130  67.644  1.00  0.00     0.000 HD 
HETATM   32  N   UNL     1     -10.651   8.398  66.674  1.00  0.00    -0.304 NA 
HETATM   33  H1  UNL     1     -11.508   8.369  66.122  1.00  0.00     0.000 HD 
BRANCH  30  34
HETATM   34  C   UNL     1     -11.119  10.755  66.962  1.00  0.00    -0.245 C  
BRANCH  34  35
HETATM   35  C   UNL     1     -11.043  12.176  66.436  1.00  0.00    -0.358 A  
HETATM   36  C   UNL     1     -11.559  13.077  68.797  1.00  0.00    -0.350 C  
HETATM   37  C   UNL     1     -10.786  13.798  64.625  1.00  0.00    -0.416 A  
HETATM   38  C   UNL     1     -10.842  11.427  63.958  1.00  0.00    -0.450 C  
HETATM   39  C   UNL     1     -11.238  13.260  67.333  1.00  0.00    -0.316 A  
HETATM   40  C   UNL     1     -10.886  12.460  65.056  1.00  0.00    -0.331 A  
HETATM   41  C   UNL     1     -10.891  14.857  65.521  1.00  0.00    -0.365 A  
HETATM   42  C   UNL     1     -11.136  14.580  66.867  1.00  0.00    -0.325 A  
BRANCH  41  43
HETATM   43  C   UNL     1     -10.799  16.288  65.117  1.00  0.00    -0.318 C  
HETATM   44  H2  UNL     1      -9.608  16.824  66.735  1.00  0.00     0.000 HD 
HETATM   45  H1  UNL     1     -10.014  18.134  65.614  1.00  0.00     0.000 HD 
HETATM   46  N   UNL     1     -10.077  17.154  65.891  1.00  0.00    -0.279 N  
HETATM   47  O   UNL     1     -11.356  16.708  64.107  1.00  0.00    -1.141 OA 
ENDBRANCH  41  43
ENDBRANCH  34  35
ENDBRANCH  30  34
ENDBRANCH  15  30
ENDBRANCH  12  13
ENDBRANCH   6  12
ENDBRANCH   2   3
TORSDOF 10
ENDMDL
MODEL       64
REMARK 921   NORMALIZED FREE ENERGY PREDICTED BY IDOCK:   -5.42 KCAL/MOL
REMARK 922        TOTAL FREE ENERGY PREDICTED BY IDOCK:  -11.46 KCAL/MOL
REMARK 923 INTER-LIGAND FREE ENERGY PREDICTED BY IDOCK:  -10.13 KCAL/MOL
REMARK 924 INTRA-LIGAND FREE ENERGY PREDICTED BY IDOCK:   -1.33 KCAL/MOL
REMARK 927      BINDING AFFINITY PREDICTED BY RF-SCORE:    0.00 PKD
ROOT
HETATM    1  C   UNL     1      -7.108   4.433  65.321  1.00  0.00    -0.066 C  
HETATM    2  O   UNL     1      -8.428   4.952  65.490  1.00  0.00    -0.121 OA 
ENDROOT
BRANCH   2   3
HETATM    3  C   UNL     1      -8.549   6.312  65.634  1.00  0.00    -0.139 A  
HETATM    4  C   UNL     1      -7.694   7.236  65.028  1.00  0.00    -0.115 A  
HETATM    5  C   UNL     1      -7.932   8.610  65.136  1.00  0.00    -0.127 A  
HETATM    6  C   UNL     1      -9.008   9.103  65.880  1.00  0.00    -0.231 A  
HETATM    7  C   UNL     1      -9.831   8.177  66.539  1.00  0.00    -0.309 A  
HETATM    8  C   UNL     1     -10.565   5.907  67.149  1.00  0.00    -0.299 C  
HETATM    9  O   UNL     1     -10.784   4.709  66.571  1.00  0.00    -0.152 OA 
HETATM   10  C   UNL     1      -9.617   6.791  66.413  1.00  0.00    -0.149 A  
HETATM   11  O   UNL     1     -11.147   6.273  68.158  1.00  0.00    -0.329 OA 
BRANCH   6  12
HETATM   12  C   UNL     1      -9.322  10.584  65.958  1.00  0.00    -0.178 C  
BRANCH  12  13
HETATM   13  N   UNL     1      -9.001  11.245  67.236  1.00  0.00    -0.148 N  
HETATM   14  O   UNL     1      -9.537  12.772  68.891  1.00  0.00     0.033 OA 
HETATM   15  C   UNL     1      -9.896  12.115  67.905  1.00  0.00    -0.199 C  
BRANCH  13  16
HETATM   16  C   UNL     1      -7.577  11.251  67.662  1.00  0.00    -0.106 C  
HETATM   17  C   UNL     1      -7.017  12.653  67.966  1.00  0.00    -0.099 C  
BRANCH  16  18
HETATM   18  C   UNL     1      -7.367  10.394  68.893  1.00  0.00    -0.094 A  
HETATM   19  C   UNL     1      -6.507   9.850  70.868  1.00  0.00    -0.038 A  
HETATM   20  C   UNL     1      -7.766   9.308  70.721  1.00  0.00    -0.139 A  
HETATM   21  N   UNL     1      -8.261   9.616  69.474  1.00  0.00    -0.121 NA 
HETATM   22  H   UNL     1      -9.147   9.303  69.077  1.00  0.00     0.000 HD 
HETATM   23  N   UNL     1      -6.252  10.508  69.690  1.00  0.00    -0.053 NA 
BRANCH  20  24
HETATM   24  C   UNL     1      -8.555   8.606  71.725  1.00  0.00    -0.240 A  
HETATM   25  C   UNL     1      -8.658   6.889  73.457  1.00  0.00    -0.152 A  
HETATM   26  C   UNL     1     -10.028   7.091  73.595  1.00  0.00    -0.348 A  
HETATM   27  C   UNL     1     -10.663   8.059  72.815  1.00  0.00    -0.431 A  
HETATM   28  C   UNL     1      -7.930   7.642  72.532  1.00  0.00    -0.131 A  
HETATM   29  C   UNL     1      -9.932   8.816  71.889  1.00  0.00    -0.401 A  
ENDBRANCH  20  24
ENDBRANCH  16  18
ENDBRANCH  13  16
BRANCH  15  30
HETATM   30  C   UNL     1     -11.377  12.196  67.376  1.00  0.00    -0.326 C  
HETATM   31  H2  UNL     1     -12.160  11.195  69.043  1.00  0.00     0.000 HD 
HETATM   32  N   UNL     1     -12.207  11.145  68.026  1.00  0.00    -0.567 NA 
HETATM   33  H1  UNL     1     -13.166  11.198  67.683  1.00  0.00     0.000 HD 
BRANCH  30  34
HETATM   34  C   UNL     1     -12.114  13.530  67.630  1.00  0.00    -0.321 C  
BRANCH  34  35
HETATM   35  C   UNL     1     -11.456  14.832  67.213  1.00  0.00    -0.378 A  
HETATM   36  C   UNL     1     -11.558  15.663  69.653  1.00  0.00    -0.364 C  
HETATM   37  C   UNL     1     -10.547  16.350  65.526  1.00  0.00    -0.346 A  
HETATM   38  C   UNL     1     -11.578  14.279  64.680  1.00  0.00    -0.415 C  
HETATM   39  C   UNL     1     -11.186  15.820  68.197  1.00  0.00    -0.344 A  
HETATM   40  C   UNL     1     -11.192  15.141  65.855  1.00  0.00    -0.280 A  
HETATM   41  C   UNL     1     -10.206  17.278  66.504  1.00  0.00    -0.325 A  
HETATM   42  C   UNL     1     -10.547  17.015  67.832  1.00  0.00    -0.365 A  
BRANCH  41  43
HETATM   43  C   UNL     1      -9.529  18.572  66.209  1.00  0.00    -0.250 C  
HETATM   44  H2  UNL     1     -11.257  19.703  66.451  1.00  0.00     0.000 HD 
HETATM   45  H1  UNL     1      -9.796  20.613  66.032  1.00  0.00     0.000 HD 
HETATM   46  N   UNL     1     -10.260  19.727  66.234  1.00  0.00    -0.472 N  
HETATM   47  O   UNL     1      -8.331  18.625  65.944  1.00  0.00    -0.494 OA 
ENDBRANCH  41  43
ENDBRANCH  34  35
ENDBRANCH  30  34
ENDBRANCH  15  30
ENDBRANCH  12  13
ENDBRANCH   6  12
ENDBRANCH   2   3
TORSDOF 10
ENDMDL
MODEL       65
REMARK 921   NORMALIZED FREE ENERGY PREDICTED BY IDOCK:   -5.38 KCAL/MOL
REMARK 922        TOTAL FREE ENERGY PREDICTED BY IDOCK:  -11.40 KCAL/MOL
REMARK 923 INTER-LIGAND FREE ENERGY PREDICTED BY IDOCK:  -10.28 KCAL/MOL
REMARK 924 INTRA-LIGAND FREE ENERGY PREDICTED BY IDOCK:   -1.12 KCAL/MOL
REMARK 927      BINDING AFFINITY PREDICTED BY RF-SCORE:    0.00 PKD
ROOT
HETATM    1  C   UNL     1     -10.994   7.185  73.194  1.00  0.00    -0.305 C  
HETATM    2  O   UNL     1     -11.948   7.368  72.147  1.00  0.00    -0.286 OA 
ENDROOT
BRANCH   2   3
HETATM    3  C   UNL     1     -11.549   8.115  71.066  1.00  0.00    -0.279 A  
HETATM    4  C   UNL     1     -10.630   7.671  70.112  1.00  0.00    -0.239 A  
HETATM    5  C   UNL     1     -10.344   8.443  68.981  1.00  0.00    -0.231 A  
HETATM    6  C   UNL     1     -10.936   9.694  68.787  1.00  0.00    -0.153 A  
HETATM    7  C   UNL     1     -11.812  10.167  69.777  1.00  0.00    -0.158 A  
HETATM    8  C   UNL     1     -13.083   9.988  71.878  1.00  0.00    -0.460 C  
HETATM    9  O   UNL     1     -13.850   9.100  72.542  1.00  0.00    -0.475 OA 
HETATM   10  C   UNL     1     -12.131   9.385  70.904  1.00  0.00    -0.327 A  
HETATM   11  O   UNL     1     -13.204  11.196  72.009  1.00  0.00    -0.493 OA 
BRANCH   6  12
HETATM   12  C   UNL     1     -10.689  10.519  67.540  1.00  0.00    -0.276 C  
BRANCH  12  13
HETATM   13  N   UNL     1      -9.585  11.493  67.619  1.00  0.00    -0.169 N  
HETATM   14  O   UNL     1      -8.855  13.674  67.879  1.00  0.00    -0.168 OA 
HETATM   15  C   UNL     1      -9.775  12.851  67.973  1.00  0.00    -0.224 C  
BRANCH  13  16
HETATM   16  C   UNL     1      -8.291  11.112  66.994  1.00  0.00    -0.144 C  
HETATM   17  C   UNL     1      -7.287  10.469  67.969  1.00  0.00    -0.089 C  
BRANCH  16  18
HETATM   18  C   UNL     1      -8.498  10.151  65.842  1.00  0.00    -0.141 A  
HETATM   19  C   UNL     1      -8.547   9.507  63.716  1.00  0.00    -0.211 A  
HETATM   20  C   UNL     1      -8.261   8.439  64.540  1.00  0.00    -0.146 A  
HETATM   21  N   UNL     1      -8.283   8.848  65.854  1.00  0.00    -0.115 NA 
HETATM   22  H   UNL     1      -8.157   8.259  66.678  1.00  0.00     0.000 HD 
HETATM   23  N   UNL     1      -8.726  10.579  64.556  1.00  0.00    -0.186 NA 
BRANCH  20  24
HETATM   24  C   UNL     1      -7.877   7.090  64.147  1.00  0.00    -0.106 A  
HETATM   25  C   UNL     1      -7.287   4.819  64.821  1.00  0.00    -0.071 A  
HETATM   26  C   UNL     1      -6.994   4.490  63.501  1.00  0.00    -0.044 A  
HETATM   27  C   UNL     1      -7.155   5.448  62.499  1.00  0.00    -0.043 A  
HETATM   28  C   UNL     1      -7.726   6.107  65.139  1.00  0.00    -0.097 A  
HETATM   29  C   UNL     1      -7.599   6.739  62.818  1.00  0.00    -0.096 A  
ENDBRANCH  20  24
ENDBRANCH  16  18
ENDBRANCH  13  16
BRANCH  15  30
HETATM   30  C   UNL     1     -11.186  13.278  68.525  1.00  0.00    -0.271 C  
HETATM   31  H2  UNL     1     -10.375  14.317  70.155  1.00  0.00     0.000 HD 
HETATM   32  N   UNL     1     -11.087  13.610  69.973  1.00  0.00    -0.455 NA 
HETATM   33  H1  UNL     1     -12.001  13.886  70.330  1.00  0.00     0.000 HD 
BRANCH  30  34
HETATM   34  C   UNL     1     -11.831  14.511  67.855  1.00  0.00    -0.370 C  
BRANCH  34  35
HETATM   35  C   UNL     1     -10.957  15.694  67.481  1.00  0.00    -0.309 A  
HETATM   36  C   UNL     1     -11.092  16.560  69.907  1.00  0.00    -0.241 C  
HETATM   37  C   UNL     1      -9.720  17.037  65.856  1.00  0.00    -0.170 A  
HETATM   38  C   UNL     1     -10.995  15.136  64.946  1.00  0.00    -0.434 C  
HETATM   39  C   UNL     1     -10.607  16.642  68.479  1.00  0.00    -0.338 A  
HETATM   40  C   UNL     1     -10.561  15.943  66.143  1.00  0.00    -0.310 A  
HETATM   41  C   UNL     1      -9.308  17.915  66.853  1.00  0.00    -0.276 A  
HETATM   42  C   UNL     1      -9.771  17.722  68.156  1.00  0.00    -0.313 A  
BRANCH  41  43
HETATM   43  C   UNL     1      -8.425  19.089  66.602  1.00  0.00    -0.304 C  
HETATM   44  H2  UNL     1      -9.411  20.312  67.965  1.00  0.00     0.000 HD 
HETATM   45  H1  UNL     1      -8.044  21.053  67.116  1.00  0.00     0.000 HD 
HETATM   46  N   UNL     1      -8.649  20.250  67.288  1.00  0.00    -0.342 N  
HETATM   47  O   UNL     1      -7.503  19.038  65.793  1.00  0.00    -0.415 OA 
ENDBRANCH  41  43
ENDBRANCH  34  35
ENDBRANCH  30  34
ENDBRANCH  15  30
ENDBRANCH  12  13
ENDBRANCH   6  12
ENDBRANCH   2   3
TORSDOF 10
ENDMDL
MODEL       66
REMARK 921   NORMALIZED FREE ENERGY PREDICTED BY IDOCK:   -5.37 KCAL/MOL
REMARK 922        TOTAL FREE ENERGY PREDICTED BY IDOCK:  -11.38 KCAL/MOL
REMARK 923 INTER-LIGAND FREE ENERGY PREDICTED BY IDOCK:  -10.43 KCAL/MOL
REMARK 924 INTRA-LIGAND FREE ENERGY PREDICTED BY IDOCK:   -0.95 KCAL/MOL
REMARK 927      BINDING AFFINITY PREDICTED BY RF-SCORE:    0.00 PKD
ROOT
HETATM    1  C   UNL     1      -9.531   4.242  67.771  1.00  0.00    -0.168 C  
HETATM    2  O   UNL     1      -9.127   4.781  66.511  1.00  0.00    -0.117 OA 
ENDROOT
BRANCH   2   3
HETATM    3  C   UNL     1      -9.303   6.130  66.327  1.00  0.00    -0.134 A  
HETATM    4  C   UNL     1     -10.321   6.871  66.933  1.00  0.00    -0.332 A  
HETATM    5  C   UNL     1     -10.384   8.260  66.781  1.00  0.00    -0.361 A  
HETATM    6  C   UNL     1      -9.456   8.946  65.993  1.00  0.00    -0.320 A  
HETATM    7  C   UNL     1      -8.470   8.195  65.334  1.00  0.00    -0.164 A  
HETATM    8  C   UNL     1      -7.283   6.114  64.765  1.00  0.00    -0.063 C  
HETATM    9  O   UNL     1      -6.800   5.009  65.368  1.00  0.00    -0.057 OA 
HETATM   10  C   UNL     1      -8.380   6.800  65.504  1.00  0.00    -0.143 A  
HETATM   11  O   UNL     1      -6.815   6.562  63.729  1.00  0.00    -0.042 OA 
BRANCH   6  12
HETATM   12  C   UNL     1      -9.466  10.457  65.866  1.00  0.00    -0.189 C  
BRANCH  12  13
HETATM   13  N   UNL     1      -9.044  11.207  67.062  1.00  0.00    -0.151 N  
HETATM   14  O   UNL     1      -9.424  12.885  68.611  1.00  0.00    -0.130 OA 
HETATM   15  C   UNL     1      -9.865  12.163  67.707  1.00  0.00    -0.199 C  
BRANCH  13  16
HETATM   16  C   UNL     1      -7.598  11.192  67.402  1.00  0.00    -0.113 C  
HETATM   17  C   UNL     1      -6.973  12.591  67.558  1.00  0.00    -0.149 C  
BRANCH  16  18
HETATM   18  C   UNL     1      -7.340  10.426  68.684  1.00  0.00    -0.085 A  
HETATM   19  C   UNL     1      -6.485  10.074  70.704  1.00  0.00    -0.098 A  
HETATM   20  C   UNL     1      -7.685   9.410  70.563  1.00  0.00    -0.161 A  
HETATM   21  N   UNL     1      -8.174   9.602  69.291  1.00  0.00    -0.113 NA 
HETATM   22  H   UNL     1      -9.017   9.187  68.894  1.00  0.00     0.000 HD 
HETATM   23  N   UNL     1      -6.262  10.688  69.496  1.00  0.00    -0.051 NA 
BRANCH  20  24
HETATM   24  C   UNL     1      -8.431   8.694  71.589  1.00  0.00    -0.230 A  
HETATM   25  C   UNL     1     -10.597   8.079  72.532  1.00  0.00    -0.397 A  
HETATM   26  C   UNL     1      -9.967   7.461  73.608  1.00  0.00    -0.379 A  
HETATM   27  C   UNL     1      -8.573   7.441  73.673  1.00  0.00    -0.216 A  
HETATM   28  C   UNL     1      -9.834   8.688  71.532  1.00  0.00    -0.342 A  
HETATM   29  C   UNL     1      -7.808   8.049  72.667  1.00  0.00    -0.169 A  
ENDBRANCH  20  24
ENDBRANCH  16  18
ENDBRANCH  13  16
BRANCH  15  30
HETATM   30  C   UNL     1     -11.373  12.259  67.261  1.00  0.00    -0.328 C  
HETATM   31  H2  UNL     1     -12.057  11.131  68.890  1.00  0.00     0.000 HD 
HETATM   32  N   UNL     1     -12.156  11.152  67.875  1.00  0.00    -0.631 NA 
HETATM   33  H1  UNL     1     -13.132  11.215  67.586  1.00  0.00     0.000 HD 
BRANCH  30  34
HETATM   34  C   UNL     1     -12.112  13.561  67.646  1.00  0.00    -0.321 C  
BRANCH  34  35
HETATM   35  C   UNL     1     -11.466  14.898  67.338  1.00  0.00    -0.354 A  
HETATM   36  C   UNL     1     -11.169  14.188  64.876  1.00  0.00    -0.373 C  
HETATM   37  C   UNL     1     -10.604  17.086  68.007  1.00  0.00    -0.373 A  
HETATM   38  C   UNL     1     -11.394  15.628  69.829  1.00  0.00    -0.327 C  
HETATM   39  C   UNL     1     -11.044  15.178  66.010  1.00  0.00    -0.312 A  
HETATM   40  C   UNL     1     -11.173  15.844  68.353  1.00  0.00    -0.368 A  
HETATM   41  C   UNL     1     -10.271  17.390  66.691  1.00  0.00    -0.324 A  
HETATM   42  C   UNL     1     -10.476  16.424  65.704  1.00  0.00    -0.364 A  
BRANCH  41  43
HETATM   43  C   UNL     1      -9.663  18.684  66.274  1.00  0.00    -0.307 C  
HETATM   44  H2  UNL     1     -11.396  19.781  66.618  1.00  0.00     0.000 HD 
HETATM   45  H1  UNL     1     -10.007  20.706  66.024  1.00  0.00     0.000 HD 
HETATM   46  N   UNL     1     -10.424  19.820  66.309  1.00  0.00    -0.495 N  
HETATM   47  O   UNL     1      -8.497  18.754  65.898  1.00  0.00    -0.481 OA 
ENDBRANCH  41  43
ENDBRANCH  34  35
ENDBRANCH  30  34
ENDBRANCH  15  30
ENDBRANCH  12  13
ENDBRANCH   6  12
ENDBRANCH   2   3
TORSDOF 10
ENDMDL
MODEL       67
REMARK 921   NORMALIZED FREE ENERGY PREDICTED BY IDOCK:   -5.36 KCAL/MOL
REMARK 922        TOTAL FREE ENERGY PREDICTED BY IDOCK:  -11.37 KCAL/MOL
REMARK 923 INTER-LIGAND FREE ENERGY PREDICTED BY IDOCK:   -8.19 KCAL/MOL
REMARK 924 INTRA-LIGAND FREE ENERGY PREDICTED BY IDOCK:   -3.18 KCAL/MOL
REMARK 927      BINDING AFFINITY PREDICTED BY RF-SCORE:    0.00 PKD
ROOT
HETATM    1  C   UNL     1      -9.607   3.326  69.632  1.00  0.00    -0.067 C  
HETATM    2  O   UNL     1      -9.706   4.137  70.803  1.00  0.00    -0.176 OA 
ENDROOT
BRANCH   2   3
HETATM    3  C   UNL     1      -9.884   5.485  70.614  1.00  0.00    -0.192 A  
HETATM    4  C   UNL     1     -11.073   6.054  70.150  1.00  0.00    -0.432 A  
HETATM    5  C   UNL     1     -11.221   7.443  70.074  1.00  0.00    -0.200 A  
HETATM    6  C   UNL     1     -10.176   8.303  70.423  1.00  0.00    -0.209 A  
HETATM    7  C   UNL     1      -8.961   7.731  70.831  1.00  0.00    -0.148 A  
HETATM    8  C   UNL     1      -7.480   5.846  71.395  1.00  0.00    -0.096 C  
HETATM    9  O   UNL     1      -7.509   4.688  72.085  1.00  0.00    -0.077 OA 
HETATM   10  C   UNL     1      -8.812   6.335  70.940  1.00  0.00    -0.136 A  
HETATM   11  O   UNL     1      -6.455   6.485  71.216  1.00  0.00    -0.047 OA 
BRANCH   6  12
HETATM   12  C   UNL     1     -10.334   9.811  70.409  1.00  0.00    -0.293 C  
BRANCH  12  13
HETATM   13  N   UNL     1     -11.391  10.340  69.528  1.00  0.00    -0.249 N  
HETATM   14  O   UNL     1     -12.046  11.207  67.484  1.00  0.00    -0.444 OA 
HETATM   15  C   UNL     1     -11.187  10.621  68.155  1.00  0.00    -0.302 C  
BRANCH  13  16
HETATM   16  C   UNL     1     -12.606  10.898  70.178  1.00  0.00    -0.234 C  
HETATM   17  C   UNL     1     -12.906  10.304  71.566  1.00  0.00    -0.557 C  
BRANCH  16  18
HETATM   18  C   UNL     1     -12.508  12.402  70.331  1.00  0.00    -0.136 A  
HETATM   19  C   UNL     1     -12.122  14.316  71.391  1.00  0.00    -0.279 A  
HETATM   20  C   UNL     1     -11.870  14.449  70.042  1.00  0.00    -0.315 A  
HETATM   21  N   UNL     1     -12.161  13.268  69.397  1.00  0.00    -0.283 NA 
HETATM   22  H   UNL     1     -12.116  13.096  68.393  1.00  0.00     0.000 HD 
HETATM   23  N   UNL     1     -12.556  13.024  71.556  1.00  0.00    -0.242 NA 
BRANCH  20  24
HETATM   24  C   UNL     1     -11.282  15.592  69.355  1.00  0.00    -0.302 A  
HETATM   25  C   UNL     1     -11.198  16.998  67.362  1.00  0.00     0.194 A  
HETATM   26  C   UNL     1     -10.113  17.696  67.884  1.00  0.00    -0.345 A  
HETATM   27  C   UNL     1      -9.620  17.360  69.145  1.00  0.00    -0.069 A  
HETATM   28  C   UNL     1     -11.777  15.957  68.093  1.00  0.00    -0.134 A  
HETATM   29  C   UNL     1     -10.203  16.317  69.880  1.00  0.00    -0.092 A  
ENDBRANCH  20  24
ENDBRANCH  16  18
ENDBRANCH  13  16
BRANCH  15  30
HETATM   30  C   UNL     1      -9.844  10.131  67.495  1.00  0.00    -0.177 C  
HETATM   31  H2  UNL     1     -10.819   8.812  66.190  1.00  0.00     0.000 HD 
HETATM   32  N   UNL     1     -10.047   8.802  66.856  1.00  0.00    -0.252 NA 
HETATM   33  H1  UNL     1      -9.176   8.486  66.429  1.00  0.00     0.000 HD 
BRANCH  30  34
HETATM   34  C   UNL     1      -9.258  11.043  66.394  1.00  0.00    -0.192 C  
BRANCH  34  35
HETATM   35  C   UNL     1      -8.517  12.305  66.793  1.00  0.00    -0.119 A  
HETATM   36  C   UNL     1     -10.328  13.734  65.640  1.00  0.00    -0.321 C  
HETATM   37  C   UNL     1      -6.617  13.466  67.802  1.00  0.00    -0.168 A  
HETATM   38  C   UNL     1      -6.460  11.009  67.705  1.00  0.00    -0.060 C  
HETATM   39  C   UNL     1      -9.057  13.570  66.438  1.00  0.00    -0.064 A  
HETATM   40  C   UNL     1      -7.247  12.264  67.421  1.00  0.00    -0.147 A  
HETATM   41  C   UNL     1      -7.191  14.703  67.529  1.00  0.00    -0.216 A  
HETATM   42  C   UNL     1      -8.399  14.746  66.830  1.00  0.00    -0.184 A  
BRANCH  41  43
HETATM   43  C   UNL     1      -6.565  16.001  67.905  1.00  0.00    -0.144 C  
HETATM   44  H2  UNL     1      -6.082  15.382  69.831  1.00  0.00     0.000 HD 
HETATM   45  H1  UNL     1      -5.614  17.040  69.417  1.00  0.00     0.000 HD 
HETATM   46  N   UNL     1      -6.043  16.151  69.160  1.00  0.00    -0.132 N  
HETATM   47  O   UNL     1      -6.508  16.940  67.116  1.00  0.00    -0.151 OA 
ENDBRANCH  41  43
ENDBRANCH  34  35
ENDBRANCH  30  34
ENDBRANCH  15  30
ENDBRANCH  12  13
ENDBRANCH   6  12
ENDBRANCH   2   3
TORSDOF 10
ENDMDL
MODEL       68
REMARK 921   NORMALIZED FREE ENERGY PREDICTED BY IDOCK:   -5.35 KCAL/MOL
REMARK 922        TOTAL FREE ENERGY PREDICTED BY IDOCK:  -11.34 KCAL/MOL
REMARK 923 INTER-LIGAND FREE ENERGY PREDICTED BY IDOCK:   -9.55 KCAL/MOL
REMARK 924 INTRA-LIGAND FREE ENERGY PREDICTED BY IDOCK:   -1.79 KCAL/MOL
REMARK 927      BINDING AFFINITY PREDICTED BY RF-SCORE:    0.00 PKD
ROOT
HETATM    1  C   UNL     1     -12.376  14.534  64.432  1.00  0.00    -0.413 C  
HETATM    2  O   UNL     1     -12.349  13.815  65.666  1.00  0.00    -0.421 OA 
ENDROOT
BRANCH   2   3
HETATM    3  C   UNL     1     -11.652  12.633  65.683  1.00  0.00    -0.377 A  
HETATM    4  C   UNL     1     -11.171  11.999  64.534  1.00  0.00    -0.390 A  
HETATM    5  C   UNL     1     -10.383  10.848  64.628  1.00  0.00    -0.407 A  
HETATM    6  C   UNL     1     -10.082  10.274  65.867  1.00  0.00    -0.319 A  
HETATM    7  C   UNL     1     -10.616  10.875  67.017  1.00  0.00    -0.307 A  
HETATM    8  C   UNL     1     -11.887  12.604  68.225  1.00  0.00    -0.306 C  
HETATM    9  O   UNL     1     -12.034  13.945  68.247  1.00  0.00    -0.359 OA 
HETATM   10  C   UNL     1     -11.386  12.052  66.935  1.00  0.00    -0.400 A  
HETATM   11  O   UNL     1     -12.081  11.901  69.204  1.00  0.00    -0.282 OA 
BRANCH   6  12
HETATM   12  C   UNL     1      -9.177   9.064  65.997  1.00  0.00    -0.226 C  
BRANCH  12  13
HETATM   13  N   UNL     1      -8.062   9.194  66.952  1.00  0.00    -0.111 N  
HETATM   14  O   UNL     1      -7.258   9.075  69.119  1.00  0.00    -0.065 OA 
HETATM   15  C   UNL     1      -8.158   8.810  68.312  1.00  0.00    -0.114 C  
BRANCH  13  16
HETATM   16  C   UNL     1      -6.916  10.051  66.552  1.00  0.00    -0.095 C  
HETATM   17  C   UNL     1      -6.761  10.224  65.029  1.00  0.00    -0.108 C  
BRANCH  16  18
HETATM   18  C   UNL     1      -7.021  11.433  67.165  1.00  0.00    -0.128 A  
HETATM   19  C   UNL     1      -6.303  13.236  68.246  1.00  0.00    -0.099 A  
HETATM   20  C   UNL     1      -7.300  13.570  67.354  1.00  0.00    -0.109 A  
HETATM   21  N   UNL     1      -7.763  12.434  66.730  1.00  0.00    -0.385 NA 
HETATM   22  H   UNL     1      -8.532  12.377  66.062  1.00  0.00     0.000 HD 
HETATM   23  N   UNL     1      -6.158  11.874  68.140  1.00  0.00    -0.050 NA 
BRANCH  20  24
HETATM   24  C   UNL     1      -7.762  14.904  66.995  1.00  0.00    -0.079 A  
HETATM   25  C   UNL     1      -7.331  17.306  66.944  1.00  0.00    -0.240 A  
HETATM   26  C   UNL     1      -8.618  17.540  66.469  1.00  0.00    -0.293 A  
HETATM   27  C   UNL     1      -9.475  16.462  66.239  1.00  0.00    -0.347 A  
HETATM   28  C   UNL     1      -6.908  16.000  67.202  1.00  0.00    -0.223 A  
HETATM   29  C   UNL     1      -9.048  15.151  66.495  1.00  0.00    -0.328 A  
ENDBRANCH  20  24
ENDBRANCH  16  18
ENDBRANCH  13  16
BRANCH  15  30
HETATM   30  C   UNL     1      -9.432   8.002  68.761  1.00  0.00    -0.147 C  
HETATM   31  H2  UNL     1      -8.339   6.260  69.168  1.00  0.00     0.000 HD 
HETATM   32  N   UNL     1      -9.172   6.540  68.650  1.00  0.00    -0.128 NA 
HETATM   33  H1  UNL     1      -9.998   6.017  68.942  1.00  0.00     0.000 HD 
BRANCH  30  34
HETATM   34  C   UNL     1      -9.906   8.236  70.213  1.00  0.00    -0.186 C  
BRANCH  34  35
HETATM   35  C   UNL     1     -10.028   7.051  71.153  1.00  0.00    -0.191 A  
HETATM   36  C   UNL     1     -12.598   7.184  70.987  1.00  0.00    -0.335 C  
HETATM   37  C   UNL     1      -9.064   5.357  72.629  1.00  0.00    -0.139 A  
HETATM   38  C   UNL     1      -7.486   6.994  71.679  1.00  0.00    -0.088 C  
HETATM   39  C   UNL     1     -11.318   6.561  71.489  1.00  0.00    -0.339 A  
HETATM   40  C   UNL     1      -8.899   6.479  71.791  1.00  0.00    -0.138 A  
HETATM   41  C   UNL     1     -10.323   4.825  72.888  1.00  0.00    -0.237 A  
HETATM   42  C   UNL     1     -11.444   5.445  72.331  1.00  0.00    -0.212 A  
BRANCH  41  43
HETATM   43  C   UNL     1     -10.553   3.646  73.769  1.00  0.00    -0.207 C  
HETATM   44  H2  UNL     1      -8.619   3.654  74.535  1.00  0.00     0.000 HD 
HETATM   45  H1  UNL     1      -9.686   2.384  75.156  1.00  0.00     0.000 HD 
HETATM   46  N   UNL     1      -9.529   3.192  74.553  1.00  0.00    -0.090 N  
HETATM   47  O   UNL     1     -11.638   3.074  73.806  1.00  0.00    -0.132 OA 
ENDBRANCH  41  43
ENDBRANCH  34  35
ENDBRANCH  30  34
ENDBRANCH  15  30
ENDBRANCH  12  13
ENDBRANCH   6  12
ENDBRANCH   2   3
TORSDOF 10
ENDMDL
MODEL       69
REMARK 921   NORMALIZED FREE ENERGY PREDICTED BY IDOCK:   -5.34 KCAL/MOL
REMARK 922        TOTAL FREE ENERGY PREDICTED BY IDOCK:  -11.33 KCAL/MOL
REMARK 923 INTER-LIGAND FREE ENERGY PREDICTED BY IDOCK:   -8.42 KCAL/MOL
REMARK 924 INTRA-LIGAND FREE ENERGY PREDICTED BY IDOCK:   -2.91 KCAL/MOL
REMARK 927      BINDING AFFINITY PREDICTED BY RF-SCORE:    0.00 PKD
ROOT
HETATM    1  C   UNL     1     -12.141  12.480  65.497  1.00  0.00    -0.419 C  
HETATM    2  O   UNL     1     -11.178  12.694  66.530  1.00  0.00    -0.270 OA 
ENDROOT
BRANCH   2   3
HETATM    3  C   UNL     1     -11.188  11.813  67.583  1.00  0.00    -0.281 A  
HETATM    4  C   UNL     1     -10.900  10.451  67.459  1.00  0.00    -0.358 A  
HETATM    5  C   UNL     1     -10.830   9.628  68.587  1.00  0.00    -0.203 A  
HETATM    6  C   UNL     1     -11.082  10.129  69.868  1.00  0.00    -0.346 A  
HETATM    7  C   UNL     1     -11.433  11.483  69.986  1.00  0.00    -0.304 A  
HETATM    8  C   UNL     1     -11.847  13.748  69.112  1.00  0.00    -0.354 C  
HETATM    9  O   UNL     1     -11.298  14.636  68.259  1.00  0.00    -0.270 OA 
HETATM   10  C   UNL     1     -11.475  12.327  68.859  1.00  0.00    -0.355 A  
HETATM   11  O   UNL     1     -12.538  14.082  70.063  1.00  0.00    -0.317 OA 
BRANCH   6  12
HETATM   12  C   UNL     1     -10.951   9.271  71.110  1.00  0.00    -0.339 C  
BRANCH  12  13
HETATM   13  N   UNL     1     -10.316   7.954  70.920  1.00  0.00    -0.200 N  
HETATM   14  O   UNL     1      -8.469   6.689  70.334  1.00  0.00    -0.131 OA 
HETATM   15  C   UNL     1      -8.937   7.792  70.641  1.00  0.00    -0.145 C  
BRANCH  13  16
HETATM   16  C   UNL     1     -11.212   6.791  70.692  1.00  0.00    -0.312 C  
HETATM   17  C   UNL     1     -12.704   7.090  70.922  1.00  0.00    -0.226 C  
BRANCH  16  18
HETATM   18  C   UNL     1     -11.062   6.247  69.286  1.00  0.00    -0.393 A  
HETATM   19  C   UNL     1     -10.966   6.346  67.068  1.00  0.00    -0.389 A  
HETATM   20  C   UNL     1     -10.203   5.299  67.541  1.00  0.00    -0.178 A  
HETATM   21  N   UNL     1     -10.315   5.225  68.911  1.00  0.00    -0.187 NA 
HETATM   22  H   UNL     1      -9.900   4.519  69.518  1.00  0.00     0.000 HD 
HETATM   23  N   UNL     1     -11.530   6.919  68.181  1.00  0.00     0.175 NA 
BRANCH  20  24
HETATM   24  C   UNL     1      -9.308   4.437  66.781  1.00  0.00    -0.173 A  
HETATM   25  C   UNL     1      -7.458   2.844  66.787  1.00  0.00    -0.071 A  
HETATM   26  C   UNL     1      -7.436   2.845  65.395  1.00  0.00    -0.072 A  
HETATM   27  C   UNL     1      -8.356   3.623  64.691  1.00  0.00    -0.093 A  
HETATM   28  C   UNL     1      -8.387   3.632  67.471  1.00  0.00    -0.098 A  
HETATM   29  C   UNL     1      -9.291   4.411  65.379  1.00  0.00    -0.164 A  
ENDBRANCH  20  24
ENDBRANCH  16  18
ENDBRANCH  13  16
BRANCH  15  30
HETATM   30  C   UNL     1      -8.007   9.056  70.769  1.00  0.00    -0.148 C  
HETATM   31  H2  UNL     1      -6.851   8.208  72.298  1.00  0.00     0.000 HD 
HETATM   32  N   UNL     1      -7.354   9.074  72.107  1.00  0.00    -0.332 NA 
HETATM   33  H1  UNL     1      -6.751   9.893  72.189  1.00  0.00     0.000 HD 
BRANCH  30  34
HETATM   34  C   UNL     1      -6.859   9.160  69.740  1.00  0.00    -0.051 C  
BRANCH  34  35
HETATM   35  C   UNL     1      -7.188   9.469  68.291  1.00  0.00    -0.076 A  
HETATM   36  C   UNL     1      -6.889   6.978  67.692  1.00  0.00    -0.074 C  
HETATM   37  C   UNL     1      -7.710  11.025  66.479  1.00  0.00    -0.154 A  
HETATM   38  C   UNL     1      -7.203  12.038  68.667  1.00  0.00    -0.110 C  
HETATM   39  C   UNL     1      -7.214   8.411  67.343  1.00  0.00    -0.088 A  
HETATM   40  C   UNL     1      -7.371  10.796  67.828  1.00  0.00    -0.093 A  
HETATM   41  C   UNL     1      -7.819   9.976  65.572  1.00  0.00    -0.134 A  
HETATM   42  C   UNL     1      -7.550   8.677  66.007  1.00  0.00    -0.093 A  
BRANCH  41  43
HETATM   43  C   UNL     1      -8.168  10.164  64.136  1.00  0.00    -0.165 C  
HETATM   44  H2  UNL     1     -10.211  10.303  64.496  1.00  0.00     0.000 HD 
HETATM   45  H1  UNL     1      -9.719  10.446  62.800  1.00  0.00     0.000 HD 
HETATM   46  N   UNL     1      -9.480  10.317  63.784  1.00  0.00    -0.290 N  
HETATM   47  O   UNL     1      -7.306  10.184  63.262  1.00  0.00    -0.138 OA 
ENDBRANCH  41  43
ENDBRANCH  34  35
ENDBRANCH  30  34
ENDBRANCH  15  30
ENDBRANCH  12  13
ENDBRANCH   6  12
ENDBRANCH   2   3
TORSDOF 10
ENDMDL
MODEL       70
REMARK 921   NORMALIZED FREE ENERGY PREDICTED BY IDOCK:   -5.30 KCAL/MOL
REMARK 922        TOTAL FREE ENERGY PREDICTED BY IDOCK:  -11.27 KCAL/MOL
REMARK 923 INTER-LIGAND FREE ENERGY PREDICTED BY IDOCK:   -7.63 KCAL/MOL
REMARK 924 INTRA-LIGAND FREE ENERGY PREDICTED BY IDOCK:   -3.64 KCAL/MOL
REMARK 927      BINDING AFFINITY PREDICTED BY RF-SCORE:    0.00 PKD
ROOT
HETATM    1  C   UNL     1      -7.389  12.796  67.483  1.00  0.00    -0.153 C  
HETATM    2  O   UNL     1      -8.298  11.956  68.195  1.00  0.00    -0.146 OA 
ENDROOT
BRANCH   2   3
HETATM    3  C   UNL     1      -7.787  10.800  68.732  1.00  0.00    -0.129 A  
HETATM    4  C   UNL     1      -6.431  10.462  68.700  1.00  0.00    -0.051 A  
HETATM    5  C   UNL     1      -5.963   9.318  69.353  1.00  0.00    -0.037 A  
HETATM    6  C   UNL     1      -6.836   8.458  70.026  1.00  0.00    -0.042 A  
HETATM    7  C   UNL     1      -8.206   8.764  70.006  1.00  0.00    -0.120 A  
HETATM    8  C   UNL     1     -10.155  10.156  69.435  1.00  0.00    -0.231 C  
HETATM    9  O   UNL     1     -10.529  11.451  69.437  1.00  0.00    -0.138 OA 
HETATM   10  C   UNL     1      -8.684   9.931  69.378  1.00  0.00    -0.186 A  
HETATM   11  O   UNL     1     -10.952   9.236  69.542  1.00  0.00    -0.227 OA 
BRANCH   6  12
HETATM   12  C   UNL     1      -6.343   7.247  70.793  1.00  0.00    -0.039 C  
BRANCH  12  13
HETATM   13  N   UNL     1      -7.013   5.971  70.483  1.00  0.00    -0.057 N  
HETATM   14  O   UNL     1      -8.110   4.601  68.974  1.00  0.00    -0.077 OA 
HETATM   15  C   UNL     1      -7.415   5.605  69.175  1.00  0.00    -0.083 C  
BRANCH  13  16
HETATM   16  C   UNL     1      -7.571   5.197  71.623  1.00  0.00    -0.101 C  
HETATM   17  C   UNL     1      -6.538   4.842  72.708  1.00  0.00    -0.056 C  
BRANCH  16  18
HETATM   18  C   UNL     1      -8.706   5.944  72.292  1.00  0.00    -0.128 A  
HETATM   19  C   UNL     1      -9.642   7.536  73.527  1.00  0.00    -0.285 A  
HETATM   20  C   UNL     1     -10.521   7.090  72.563  1.00  0.00    -0.216 A  
HETATM   21  N   UNL     1      -9.940   6.073  71.841  1.00  0.00    -0.168 NA 
HETATM   22  H   UNL     1     -10.378   5.524  71.100  1.00  0.00     0.000 HD 
HETATM   23  N   UNL     1      -8.508   6.780  73.366  1.00  0.00    -0.117 NA 
BRANCH  20  24
HETATM   24  C   UNL     1     -11.829   7.638  72.230  1.00  0.00    -0.354 A  
HETATM   25  C   UNL     1     -13.367   9.533  72.303  1.00  0.00    -0.526 A  
HETATM   26  C   UNL     1     -14.379   8.749  71.758  1.00  0.00    -0.414 A  
HETATM   27  C   UNL     1     -14.120   7.417  71.431  1.00  0.00    -0.491 A  
HETATM   28  C   UNL     1     -12.104   8.981  72.535  1.00  0.00    -0.183 A  
HETATM   29  C   UNL     1     -12.851   6.865  71.660  1.00  0.00    -0.383 A  
ENDBRANCH  20  24
ENDBRANCH  16  18
ENDBRANCH  13  16
BRANCH  15  30
HETATM   30  C   UNL     1      -6.919   6.497  67.976  1.00  0.00    -0.077 C  
HETATM   31  H2  UNL     1      -5.564   5.050  67.294  1.00  0.00     0.000 HD 
HETATM   32  N   UNL     1      -5.574   6.042  67.526  1.00  0.00    -0.008 NA 
HETATM   33  H1  UNL     1      -5.254   6.620  66.750  1.00  0.00     0.000 HD 
BRANCH  30  34
HETATM   34  C   UNL     1      -7.809   6.490  66.713  1.00  0.00    -0.104 C  
BRANCH  34  35
HETATM   35  C   UNL     1      -8.464   7.782  66.262  1.00  0.00    -0.143 A  
HETATM   36  C   UNL     1     -10.744   6.921  67.107  1.00  0.00    -0.436 C  
HETATM   37  C   UNL     1      -8.403   9.969  65.171  1.00  0.00    -0.156 A  
HETATM   38  C   UNL     1      -6.325   8.650  65.074  1.00  0.00    -0.061 C  
HETATM   39  C   UNL     1      -9.856   7.968  66.478  1.00  0.00    -0.289 A  
HETATM   40  C   UNL     1      -7.755   8.772  65.536  1.00  0.00    -0.092 A  
HETATM   41  C   UNL     1      -9.747  10.184  65.461  1.00  0.00    -0.344 A  
HETATM   42  C   UNL     1     -10.469   9.171  66.096  1.00  0.00     0.112 A  
BRANCH  41  43
HETATM   43  C   UNL     1     -10.479  11.427  65.093  1.00  0.00    -0.295 C  
HETATM   44  H2  UNL     1     -10.869  11.961  67.065  1.00  0.00     0.000 HD 
HETATM   45  H1  UNL     1     -11.491  13.070  65.832  1.00  0.00     0.000 HD 
HETATM   46  N   UNL     1     -10.989  12.219  66.085  1.00  0.00    -0.281 N  
HETATM   47  O   UNL     1     -10.637  11.756  63.921  1.00  0.00    -0.316 OA 
ENDBRANCH  41  43
ENDBRANCH  34  35
ENDBRANCH  30  34
ENDBRANCH  15  30
ENDBRANCH  12  13
ENDBRANCH   6  12
ENDBRANCH   2   3
TORSDOF 10
ENDMDL
MODEL       71
REMARK 921   NORMALIZED FREE ENERGY PREDICTED BY IDOCK:   -5.30 KCAL/MOL
REMARK 922        TOTAL FREE ENERGY PREDICTED BY IDOCK:  -11.27 KCAL/MOL
REMARK 923 INTER-LIGAND FREE ENERGY PREDICTED BY IDOCK:   -7.54 KCAL/MOL
REMARK 924 INTRA-LIGAND FREE ENERGY PREDICTED BY IDOCK:   -3.72 KCAL/MOL
REMARK 927      BINDING AFFINITY PREDICTED BY RF-SCORE:    0.00 PKD
ROOT
HETATM    1  C   UNL     1      -7.245  12.808  68.312  1.00  0.00    -0.114 C  
HETATM    2  O   UNL     1      -8.261  11.895  68.729  1.00  0.00    -0.106 OA 
ENDROOT
BRANCH   2   3
HETATM    3  C   UNL     1      -7.855  10.632  69.082  1.00  0.00    -0.142 A  
HETATM    4  C   UNL     1      -6.519  10.223  69.105  1.00  0.00    -0.050 A  
HETATM    5  C   UNL     1      -6.166   8.953  69.570  1.00  0.00    -0.043 A  
HETATM    6  C   UNL     1      -7.137   8.039  69.991  1.00  0.00    -0.049 A  
HETATM    7  C   UNL     1      -8.484   8.427  69.911  1.00  0.00    -0.126 A  
HETATM    8  C   UNL     1     -10.306  10.015  69.442  1.00  0.00    -0.227 C  
HETATM    9  O   UNL     1     -10.622  11.309  69.655  1.00  0.00    -0.120 OA 
HETATM   10  C   UNL     1      -8.847   9.715  69.472  1.00  0.00    -0.197 A  
HETATM   11  O   UNL     1     -11.149   9.142  69.306  1.00  0.00    -0.127 OA 
BRANCH   6  12
HETATM   12  C   UNL     1      -6.774   6.681  70.559  1.00  0.00    -0.057 C  
BRANCH  12  13
HETATM   13  N   UNL     1      -7.344   5.517  69.857  1.00  0.00    -0.067 N  
HETATM   14  O   UNL     1      -8.032   4.502  67.893  1.00  0.00    -0.087 OA 
HETATM   15  C   UNL     1      -7.409   5.418  68.446  1.00  0.00    -0.072 C  
BRANCH  13  16
HETATM   16  C   UNL     1      -8.165   4.571  70.657  1.00  0.00    -0.075 C  
HETATM   17  C   UNL     1      -7.343   3.607  71.531  1.00  0.00    -0.043 C  
BRANCH  16  18
HETATM   18  C   UNL     1      -9.128   5.309  71.565  1.00  0.00    -0.145 A  
HETATM   19  C   UNL     1      -9.729   6.724  73.169  1.00  0.00    -0.168 A  
HETATM   20  C   UNL     1     -10.727   6.608  72.225  1.00  0.00    -0.221 A  
HETATM   21  N   UNL     1     -10.356   5.693  71.267  1.00  0.00    -0.220 NA 
HETATM   22  H   UNL     1     -10.919   5.373  70.480  1.00  0.00     0.000 HD 
HETATM   23  N   UNL     1      -8.734   5.872  72.756  1.00  0.00    -0.125 NA 
BRANCH  20  24
HETATM   24  C   UNL     1     -11.957   7.384  72.132  1.00  0.00    -0.307 A  
HETATM   25  C   UNL     1     -14.312   7.473  71.495  1.00  0.00    -0.603 A  
HETATM   26  C   UNL     1     -14.350   8.835  71.778  1.00  0.00    -0.414 A  
HETATM   27  C   UNL     1     -13.203   9.473  72.252  1.00  0.00    -0.507 A  
HETATM   28  C   UNL     1     -13.126   6.755  71.673  1.00  0.00    -0.258 A  
HETATM   29  C   UNL     1     -12.014   8.752  72.434  1.00  0.00    -0.369 A  
ENDBRANCH  20  24
ENDBRANCH  16  18
ENDBRANCH  13  16
BRANCH  15  30
HETATM   30  C   UNL     1      -6.633   6.493  67.596  1.00  0.00    -0.061 C  
HETATM   31  H2  UNL     1      -5.209   5.113  66.917  1.00  0.00     0.000 HD 
HETATM   32  N   UNL     1      -5.238   6.036  67.350  1.00  0.00    -0.005 NA 
HETATM   33  H1  UNL     1      -4.736   6.733  66.799  1.00  0.00     0.000 HD 
BRANCH  30  34
HETATM   34  C   UNL     1      -7.223   6.812  66.204  1.00  0.00    -0.067 C  
BRANCH  34  35
HETATM   35  C   UNL     1      -8.090   8.046  66.032  1.00  0.00    -0.110 A  
HETATM   36  C   UNL     1      -5.992   9.442  65.483  1.00  0.00    -0.059 C  
HETATM   37  C   UNL     1     -10.243   9.202  66.109  1.00  0.00    -0.189 A  
HETATM   38  C   UNL     1     -10.239   6.861  66.879  1.00  0.00    -0.310 C  
HETATM   39  C   UNL     1      -7.481   9.278  65.671  1.00  0.00    -0.094 A  
HETATM   40  C   UNL     1      -9.478   8.037  66.319  1.00  0.00    -0.241 A  
HETATM   41  C   UNL     1      -9.656  10.385  65.671  1.00  0.00    -0.281 A  
HETATM   42  C   UNL     1      -8.274  10.419  65.475  1.00  0.00    -0.162 A  
BRANCH  41  43
HETATM   43  C   UNL     1     -10.417  11.643  65.439  1.00  0.00    -0.275 C  
HETATM   44  H2  UNL     1      -9.525  12.020  63.599  1.00  0.00     0.000 HD 
HETATM   45  H1  UNL     1     -10.722  13.213  64.130  1.00  0.00     0.000 HD 
HETATM   46  N   UNL     1     -10.200  12.351  64.289  1.00  0.00    -0.337 N  
HETATM   47  O   UNL     1     -11.233  12.061  66.256  1.00  0.00    -0.313 OA 
ENDBRANCH  41  43
ENDBRANCH  34  35
ENDBRANCH  30  34
ENDBRANCH  15  30
ENDBRANCH  12  13
ENDBRANCH   6  12
ENDBRANCH   2   3
TORSDOF 10
ENDMDL
MODEL       72
REMARK 921   NORMALIZED FREE ENERGY PREDICTED BY IDOCK:   -5.28 KCAL/MOL
REMARK 922        TOTAL FREE ENERGY PREDICTED BY IDOCK:  -11.24 KCAL/MOL
REMARK 923 INTER-LIGAND FREE ENERGY PREDICTED BY IDOCK:  -10.40 KCAL/MOL
REMARK 924 INTRA-LIGAND FREE ENERGY PREDICTED BY IDOCK:   -0.84 KCAL/MOL
REMARK 927      BINDING AFFINITY PREDICTED BY RF-SCORE:    0.00 PKD
ROOT
HETATM    1  C   UNL     1     -10.478   4.766  65.964  1.00  0.00    -0.292 C  
HETATM    2  O   UNL     1      -9.292   5.556  66.057  1.00  0.00    -0.159 OA 
ENDROOT
BRANCH   2   3
HETATM    3  C   UNL     1      -9.374   6.720  66.779  1.00  0.00    -0.160 A  
HETATM    4  C   UNL     1     -10.502   7.546  66.796  1.00  0.00    -0.319 A  
HETATM    5  C   UNL     1     -10.557   8.666  67.631  1.00  0.00    -0.272 A  
HETATM    6  C   UNL     1      -9.476   9.018  68.445  1.00  0.00    -0.154 A  
HETATM    7  C   UNL     1      -8.320   8.224  68.383  1.00  0.00    -0.132 A  
HETATM    8  C   UNL     1      -6.990   6.307  67.595  1.00  0.00    -0.075 C  
HETATM    9  O   UNL     1      -7.124   4.983  67.380  1.00  0.00    -0.064 OA 
HETATM   10  C   UNL     1      -8.266   7.076  67.568  1.00  0.00    -0.116 A  
HETATM   11  O   UNL     1      -5.919   6.830  67.862  1.00  0.00    -0.028 OA 
BRANCH   6  12
HETATM   12  C   UNL     1      -9.537  10.190  69.405  1.00  0.00    -0.232 C  
BRANCH  12  13
HETATM   13  N   UNL     1     -10.878  10.546  69.903  1.00  0.00    -0.281 N  
HETATM   14  O   UNL     1     -12.660  12.021  69.976  1.00  0.00    -0.041 OA 
HETATM   15  C   UNL     1     -11.610  11.662  69.429  1.00  0.00    -0.327 C  
BRANCH  13  16
HETATM   16  C   UNL     1     -11.330   9.904  71.165  1.00  0.00    -0.370 C  
HETATM   17  C   UNL     1     -12.788   9.409  71.132  1.00  0.00    -0.322 C  
BRANCH  16  18
HETATM   18  C   UNL     1     -10.451   8.727  71.530  1.00  0.00    -0.303 A  
HETATM   19  C   UNL     1      -8.897   7.629  72.679  1.00  0.00    -0.149 A  
HETATM   20  C   UNL     1      -9.838   6.755  72.179  1.00  0.00    -0.148 A  
HETATM   21  N   UNL     1     -10.764   7.448  71.431  1.00  0.00    -0.220 NA 
HETATM   22  H   UNL     1     -11.540   7.050  70.903  1.00  0.00     0.000 HD 
HETATM   23  N   UNL     1      -9.279   8.871  72.235  1.00  0.00    -0.357 NA 
BRANCH  20  24
HETATM   24  C   UNL     1      -9.961   5.329  72.450  1.00  0.00    -0.219 A  
HETATM   25  C   UNL     1      -9.378   3.041  71.832  1.00  0.00    -0.189 A  
HETATM   26  C   UNL     1     -10.244   2.544  72.801  1.00  0.00    -0.234 A  
HETATM   27  C   UNL     1     -10.957   3.432  73.608  1.00  0.00    -0.329 A  
HETATM   28  C   UNL     1      -9.237   4.420  71.660  1.00  0.00    -0.186 A  
HETATM   29  C   UNL     1     -10.813   4.817  73.438  1.00  0.00    -0.361 A  
ENDBRANCH  20  24
ENDBRANCH  16  18
ENDBRANCH  13  16
BRANCH  15  30
HETATM   30  C   UNL     1     -11.063  12.415  68.159  1.00  0.00    -0.247 C  
HETATM   31  H2  UNL     1     -12.575  13.866  68.213  1.00  0.00     0.000 HD 
HETATM   32  N   UNL     1     -12.149  13.226  67.543  1.00  0.00    -0.314 NA 
HETATM   33  H1  UNL     1     -11.795  13.714  66.720  1.00  0.00     0.000 HD 
BRANCH  30  34
HETATM   34  C   UNL     1      -9.893  13.394  68.402  1.00  0.00    -0.216 C  
BRANCH  34  35
HETATM   35  C   UNL     1     -10.048  14.849  68.001  1.00  0.00    -0.221 A  
HETATM   36  C   UNL     1     -10.742  15.441  70.413  1.00  0.00    -0.312 C  
HETATM   37  C   UNL     1     -10.041  16.645  66.342  1.00  0.00    -0.325 A  
HETATM   38  C   UNL     1      -9.689  14.365  65.475  1.00  0.00    -0.214 C  
HETATM   39  C   UNL     1     -10.435  15.803  68.980  1.00  0.00    -0.225 A  
HETATM   40  C   UNL     1      -9.921  15.276  66.655  1.00  0.00    -0.264 A  
HETATM   41  C   UNL     1     -10.335  17.589  67.320  1.00  0.00    -0.337 A  
HETATM   42  C   UNL     1     -10.549  17.157  68.630  1.00  0.00    -0.352 A  
BRANCH  41  43
HETATM   43  C   UNL     1     -10.477  19.045  67.041  1.00  0.00    -0.434 C  
HETATM   44  H2  UNL     1     -10.546  18.796  64.978  1.00  0.00     0.000 HD 
HETATM   45  H1  UNL     1     -10.670  20.466  65.554  1.00  0.00     0.000 HD 
HETATM   46  N   UNL     1     -10.572  19.469  65.744  1.00  0.00    -0.489 N  
HETATM   47  O   UNL     1     -10.511  19.873  67.947  1.00  0.00    -0.413 OA 
ENDBRANCH  41  43
ENDBRANCH  34  35
ENDBRANCH  30  34
ENDBRANCH  15  30
ENDBRANCH  12  13
ENDBRANCH   6  12
ENDBRANCH   2   3
TORSDOF 10
ENDMDL
MODEL       73
REMARK 921   NORMALIZED FREE ENERGY PREDICTED BY IDOCK:   -5.28 KCAL/MOL
REMARK 922        TOTAL FREE ENERGY PREDICTED BY IDOCK:  -11.24 KCAL/MOL
REMARK 923 INTER-LIGAND FREE ENERGY PREDICTED BY IDOCK:   -9.74 KCAL/MOL
REMARK 924 INTRA-LIGAND FREE ENERGY PREDICTED BY IDOCK:   -1.50 KCAL/MOL
REMARK 927      BINDING AFFINITY PREDICTED BY RF-SCORE:    0.00 PKD
ROOT
HETATM    1  C   UNL     1     -10.522   5.073  72.745  1.00  0.00    -0.211 C  
HETATM    2  O   UNL     1      -9.872   5.478  71.539  1.00  0.00    -0.162 OA 
ENDROOT
BRANCH   2   3
HETATM    3  C   UNL     1     -10.058   6.778  71.139  1.00  0.00    -0.181 A  
HETATM    4  C   UNL     1     -10.003   7.873  72.005  1.00  0.00    -0.251 A  
HETATM    5  C   UNL     1     -10.103   9.179  71.515  1.00  0.00    -0.381 A  
HETATM    6  C   UNL     1     -10.296   9.431  70.154  1.00  0.00    -0.273 A  
HETATM    7  C   UNL     1     -10.412   8.330  69.292  1.00  0.00    -0.218 A  
HETATM    8  C   UNL     1     -10.413   5.926  68.758  1.00  0.00    -0.249 C  
HETATM    9  O   UNL     1      -9.701   4.813  69.029  1.00  0.00    -0.155 OA 
HETATM   10  C   UNL     1     -10.284   7.011  69.770  1.00  0.00    -0.213 A  
HETATM   11  O   UNL     1     -11.059   6.065  67.731  1.00  0.00    -0.300 OA 
BRANCH   6  12
HETATM   12  C   UNL     1     -10.343  10.839  69.593  1.00  0.00    -0.101 C  
BRANCH  12  13
HETATM   13  N   UNL     1      -9.239  11.208  68.688  1.00  0.00    -0.178 N  
HETATM   14  O   UNL     1      -8.438  11.556  66.545  1.00  0.00    -0.170 OA 
HETATM   15  C   UNL     1      -9.409  11.400  67.296  1.00  0.00    -0.167 C  
BRANCH  13  16
HETATM   16  C   UNL     1      -7.853  11.055  69.203  1.00  0.00    -0.091 C  
HETATM   17  C   UNL     1      -7.077   9.880  68.580  1.00  0.00    -0.071 C  
BRANCH  16  18
HETATM   18  C   UNL     1      -7.041  12.314  68.984  1.00  0.00    -0.051 A  
HETATM   19  C   UNL     1      -5.462  13.580  68.065  1.00  0.00    -0.117 A  
HETATM   20  C   UNL     1      -6.527  14.353  68.476  1.00  0.00    -0.094 A  
HETATM   21  N   UNL     1      -7.471  13.558  69.084  1.00  0.00    -0.312 NA 
HETATM   22  H   UNL     1      -8.336  13.869  69.527  1.00  0.00     0.000 HD 
HETATM   23  N   UNL     1      -5.786  12.294  68.422  1.00  0.00    -0.053 NA 
BRANCH  20  24
HETATM   24  C   UNL     1      -6.738  15.775  68.237  1.00  0.00    -0.123 A  
HETATM   25  C   UNL     1      -6.980  17.597  66.630  1.00  0.00    -0.257 A  
HETATM   26  C   UNL     1      -7.001  18.525  67.666  1.00  0.00    -0.212 A  
HETATM   27  C   UNL     1      -6.909  18.086  68.987  1.00  0.00    -0.250 A  
HETATM   28  C   UNL     1      -6.851  16.235  66.914  1.00  0.00    -0.195 A  
HETATM   29  C   UNL     1      -6.783  16.719  69.273  1.00  0.00    -0.229 A  
ENDBRANCH  20  24
ENDBRANCH  16  18
ENDBRANCH  13  16
BRANCH  15  30
HETATM   30  C   UNL     1     -10.880  11.445  66.733  1.00  0.00    -0.286 C  
HETATM   31  H2  UNL     1     -11.480   9.753  67.816  1.00  0.00     0.000 HD 
HETATM   32  N   UNL     1     -11.512  10.103  66.858  1.00  0.00     0.053 NA 
HETATM   33  H1  UNL     1     -12.465  10.133  66.494  1.00  0.00     0.000 HD 
BRANCH  30  34
HETATM   34  C   UNL     1     -11.843  12.431  67.431  1.00  0.00    -0.360 C  
BRANCH  34  35
HETATM   35  C   UNL     1     -11.502  13.909  67.452  1.00  0.00    -0.374 A  
HETATM   36  C   UNL     1     -12.365  14.074  69.877  1.00  0.00    -0.367 C  
HETATM   37  C   UNL     1     -10.711  15.959  66.380  1.00  0.00    -0.256 A  
HETATM   38  C   UNL     1     -10.906  13.980  64.926  1.00  0.00    -0.421 C  
HETATM   39  C   UNL     1     -11.744  14.661  68.632  1.00  0.00    -0.362 A  
HETATM   40  C   UNL     1     -11.046  14.593  66.297  1.00  0.00    -0.336 A  
HETATM   41  C   UNL     1     -10.867  16.673  67.564  1.00  0.00    -0.221 A  
HETATM   42  C   UNL     1     -11.402  16.022  68.677  1.00  0.00    -0.383 A  
BRANCH  41  43
HETATM   43  C   UNL     1     -10.534  18.118  67.703  1.00  0.00    -0.416 C  
HETATM   44  H2  UNL     1     -10.645  18.494  65.661  1.00  0.00     0.000 HD 
HETATM   45  H1  UNL     1     -10.240  19.887  66.677  1.00  0.00     0.000 HD 
HETATM   46  N   UNL     1     -10.468  18.897  66.582  1.00  0.00    -0.408 N  
HETATM   47  O   UNL     1     -10.317  18.624  68.800  1.00  0.00    -0.334 OA 
ENDBRANCH  41  43
ENDBRANCH  34  35
ENDBRANCH  30  34
ENDBRANCH  15  30
ENDBRANCH  12  13
ENDBRANCH   6  12
ENDBRANCH   2   3
TORSDOF 10
ENDMDL
MODEL       74
REMARK 921   NORMALIZED FREE ENERGY PREDICTED BY IDOCK:   -5.28 KCAL/MOL
REMARK 922        TOTAL FREE ENERGY PREDICTED BY IDOCK:  -11.23 KCAL/MOL
REMARK 923 INTER-LIGAND FREE ENERGY PREDICTED BY IDOCK:   -9.82 KCAL/MOL
REMARK 924 INTRA-LIGAND FREE ENERGY PREDICTED BY IDOCK:   -1.41 KCAL/MOL
REMARK 927      BINDING AFFINITY PREDICTED BY RF-SCORE:    0.00 PKD
ROOT
HETATM    1  C   UNL     1     -13.259  15.381  71.389  1.00  0.00    -0.500 C  
HETATM    2  O   UNL     1     -13.239  14.003  71.011  1.00  0.00    -0.308 OA 
ENDROOT
BRANCH   2   3
HETATM    3  C   UNL     1     -12.409  13.654  69.976  1.00  0.00    -0.278 A  
HETATM    4  C   UNL     1     -11.902  14.564  69.045  1.00  0.00    -0.354 A  
HETATM    5  C   UNL     1     -10.981  14.159  68.074  1.00  0.00    -0.269 A  
HETATM    6  C   UNL     1     -10.566  12.827  67.979  1.00  0.00    -0.238 A  
HETATM    7  C   UNL     1     -11.122  11.900  68.875  1.00  0.00    -0.299 A  
HETATM    8  C   UNL     1     -12.538  11.232  70.775  1.00  0.00    -0.332 C  
HETATM    9  O   UNL     1     -12.840  11.639  72.025  1.00  0.00    -0.335 OA 
HETATM   10  C   UNL     1     -12.027  12.304  69.875  1.00  0.00    -0.377 A  
HETATM   11  O   UNL     1     -12.610  10.065  70.424  1.00  0.00    -0.197 OA 
BRANCH   6  12
HETATM   12  C   UNL     1      -9.522  12.377  66.976  1.00  0.00    -0.211 C  
BRANCH  12  13
HETATM   13  N   UNL     1      -8.126  12.395  67.449  1.00  0.00    -0.169 N  
HETATM   14  O   UNL     1      -6.050  11.382  67.599  1.00  0.00    -0.048 OA 
HETATM   15  C   UNL     1      -7.166  11.427  67.065  1.00  0.00    -0.141 C  
BRANCH  13  16
HETATM   16  C   UNL     1      -7.810  13.262  68.613  1.00  0.00    -0.063 C  
HETATM   17  C   UNL     1      -6.587  12.801  69.428  1.00  0.00    -0.064 C  
BRANCH  16  18
HETATM   18  C   UNL     1      -7.564  14.694  68.183  1.00  0.00    -0.122 A  
HETATM   19  C   UNL     1      -6.854  16.322  66.848  1.00  0.00    -0.160 A  
HETATM   20  C   UNL     1      -7.930  16.745  67.599  1.00  0.00    -0.176 A  
HETATM   21  N   UNL     1      -8.324  15.739  68.453  1.00  0.00    -0.159 NA 
HETATM   22  H   UNL     1      -9.061  15.792  69.156  1.00  0.00     0.000 HD 
HETATM   23  N   UNL     1      -6.612  15.032  67.251  1.00  0.00    -0.285 NA 
BRANCH  20  24
HETATM   24  C   UNL     1      -8.658  18.001  67.481  1.00  0.00    -0.244 A  
HETATM   25  C   UNL     1      -9.010  20.091  66.270  1.00  0.00    -0.383 A  
HETATM   26  C   UNL     1      -9.907  20.519  67.243  1.00  0.00    -0.581 A  
HETATM   27  C   UNL     1     -10.197  19.689  68.327  1.00  0.00    -0.567 A  
HETATM   28  C   UNL     1      -8.394  18.843  66.388  1.00  0.00    -0.306 A  
HETATM   29  C   UNL     1      -9.581  18.435  68.444  1.00  0.00    -0.366 A  
ENDBRANCH  20  24
ENDBRANCH  16  18
ENDBRANCH  13  16
BRANCH  15  30
HETATM   30  C   UNL     1      -7.548  10.430  65.908  1.00  0.00    -0.146 C  
HETATM   31  H2  UNL     1      -5.614  10.430  65.097  1.00  0.00     0.000 HD 
HETATM   32  N   UNL     1      -6.577  10.556  64.786  1.00  0.00    -0.334 NA 
HETATM   33  H1  UNL     1      -6.825   9.910  64.037  1.00  0.00     0.000 HD 
BRANCH  30  34
HETATM   34  C   UNL     1      -7.563   8.931  66.283  1.00  0.00    -0.095 C  
BRANCH  34  35
HETATM   35  C   UNL     1      -8.206   8.500  67.588  1.00  0.00    -0.118 A  
HETATM   36  C   UNL     1      -5.896   7.796  68.494  1.00  0.00    -0.031 C  
HETATM   37  C   UNL     1     -10.155   8.123  69.015  1.00  0.00    -0.211 A  
HETATM   38  C   UNL     1     -10.623   8.852  66.708  1.00  0.00    -0.212 C  
HETATM   39  C   UNL     1      -7.389   7.982  68.628  1.00  0.00    -0.089 A  
HETATM   40  C   UNL     1      -9.612   8.501  67.770  1.00  0.00    -0.185 A  
HETATM   41  C   UNL     1      -9.343   7.698  70.061  1.00  0.00    -0.154 A  
HETATM   42  C   UNL     1      -7.965   7.612  69.852  1.00  0.00    -0.115 A  
BRANCH  41  43
HETATM   43  C   UNL     1      -9.867   7.284  71.392  1.00  0.00    -0.186 C  
HETATM   44  H2  UNL     1     -10.658   9.157  71.831  1.00  0.00     0.000 HD 
HETATM   45  H1  UNL     1     -10.885   7.917  73.075  1.00  0.00     0.000 HD 
HETATM   46  N   UNL     1     -10.527   8.201  72.164  1.00  0.00    -0.259 N  
HETATM   47  O   UNL     1      -9.720   6.141  71.814  1.00  0.00    -0.155 OA 
ENDBRANCH  41  43
ENDBRANCH  34  35
ENDBRANCH  30  34
ENDBRANCH  15  30
ENDBRANCH  12  13
ENDBRANCH   6  12
ENDBRANCH   2   3
TORSDOF 10
ENDMDL
MODEL       75
REMARK 921   NORMALIZED FREE ENERGY PREDICTED BY IDOCK:   -5.27 KCAL/MOL
REMARK 922        TOTAL FREE ENERGY PREDICTED BY IDOCK:  -11.22 KCAL/MOL
REMARK 923 INTER-LIGAND FREE ENERGY PREDICTED BY IDOCK:   -9.38 KCAL/MOL
REMARK 924 INTRA-LIGAND FREE ENERGY PREDICTED BY IDOCK:   -1.83 KCAL/MOL
REMARK 927      BINDING AFFINITY PREDICTED BY RF-SCORE:    0.00 PKD
ROOT
HETATM    1  C   UNL     1     -13.086  11.864  63.099  1.00  0.00     0.310 C  
HETATM    2  O   UNL     1     -11.753  12.375  63.146  1.00  0.00    -0.402 OA 
ENDROOT
BRANCH   2   3
HETATM    3  C   UNL     1     -11.206  12.573  64.389  1.00  0.00    -0.339 A  
HETATM    4  C   UNL     1     -11.757  13.420  65.355  1.00  0.00    -0.354 A  
HETATM    5  C   UNL     1     -11.204  13.500  66.637  1.00  0.00    -0.328 A  
HETATM    6  C   UNL     1     -10.065  12.768  66.983  1.00  0.00    -0.240 A  
HETATM    7  C   UNL     1      -9.475  11.964  65.995  1.00  0.00    -0.241 A  
HETATM    8  C   UNL     1      -9.332  10.960  63.751  1.00  0.00    -0.248 C  
HETATM    9  O   UNL     1     -10.128  10.364  62.839  1.00  0.00    -0.137 OA 
HETATM   10  C   UNL     1     -10.041  11.853  64.710  1.00  0.00    -0.295 A  
HETATM   11  O   UNL     1      -8.135  10.733  63.833  1.00  0.00    -0.012 OA 
BRANCH   6  12
HETATM   12  C   UNL     1      -9.486  12.790  68.384  1.00  0.00    -0.162 C  
BRANCH  12  13
HETATM   13  N   UNL     1      -8.061  13.152  68.486  1.00  0.00    -0.124 N  
HETATM   14  O   UNL     1      -5.871  12.553  68.935  1.00  0.00    -0.065 OA 
HETATM   15  C   UNL     1      -7.034  12.201  68.700  1.00  0.00    -0.097 C  
BRANCH  13  16
HETATM   16  C   UNL     1      -7.733  14.586  68.696  1.00  0.00    -0.137 C  
HETATM   17  C   UNL     1      -7.198  15.300  67.441  1.00  0.00    -0.235 C  
BRANCH  16  18
HETATM   18  C   UNL     1      -8.939  15.360  69.189  1.00  0.00    -0.245 A  
HETATM   19  C   UNL     1     -10.805  16.552  69.000  1.00  0.00    -0.329 A  
HETATM   20  C   UNL     1     -10.811  15.822  70.170  1.00  0.00    -0.351 A  
HETATM   21  N   UNL     1      -9.628  15.129  70.291  1.00  0.00    -0.350 NA 
HETATM   22  H   UNL     1      -9.340  14.550  71.079  1.00  0.00     0.000 HD 
HETATM   23  N   UNL     1      -9.599  16.276  68.403  1.00  0.00    -0.211 NA 
BRANCH  20  24
HETATM   24  C   UNL     1     -11.907  15.672  71.118  1.00  0.00    -0.454 A  
HETATM   25  C   UNL     1     -12.763  16.033  73.375  1.00  0.00    -0.668 A  
HETATM   26  C   UNL     1     -13.910  15.307  73.070  1.00  0.00    -0.307 A  
HETATM   27  C   UNL     1     -14.070  14.776  71.790  1.00  0.00    -0.598 A  
HETATM   28  C   UNL     1     -11.773  16.215  72.407  1.00  0.00    -0.550 A  
HETATM   29  C   UNL     1     -13.077  14.961  70.817  1.00  0.00    -0.398 A  
ENDBRANCH  20  24
ENDBRANCH  16  18
ENDBRANCH  13  16
BRANCH  15  30
HETATM   30  C   UNL     1      -7.409  10.675  68.593  1.00  0.00    -0.094 C  
HETATM   31  H2  UNL     1      -5.420  10.075  68.320  1.00  0.00     0.000 HD 
HETATM   32  N   UNL     1      -6.330   9.935  67.883  1.00  0.00    -0.055 NA 
HETATM   33  H1  UNL     1      -6.574   8.947  67.815  1.00  0.00     0.000 HD 
BRANCH  30  34
HETATM   34  C   UNL     1      -7.618   9.933  69.932  1.00  0.00    -0.167 C  
BRANCH  34  35
HETATM   35  C   UNL     1      -8.192   8.529  69.920  1.00  0.00    -0.121 A  
HETATM   36  C   UNL     1      -5.839   7.563  70.347  1.00  0.00    -0.027 C  
HETATM   37  C   UNL     1     -10.039   6.953  69.631  1.00  0.00    -0.195 A  
HETATM   38  C   UNL     1     -10.549   9.318  69.168  1.00  0.00    -0.228 C  
HETATM   39  C   UNL     1      -7.328   7.423  70.138  1.00  0.00    -0.078 A  
HETATM   40  C   UNL     1      -9.548   8.274  69.595  1.00  0.00    -0.167 A  
HETATM   41  C   UNL     1      -9.207   5.879  69.931  1.00  0.00    -0.163 A  
HETATM   42  C   UNL     1      -7.851   6.121  70.163  1.00  0.00    -0.102 A  
BRANCH  41  43
HETATM   43  C   UNL     1      -9.673   4.465  69.978  1.00  0.00    -0.216 C  
HETATM   44  H2  UNL     1     -10.346   4.595  71.941  1.00  0.00     0.000 HD 
HETATM   45  H1  UNL     1     -10.562   3.021  71.158  1.00  0.00     0.000 HD 
HETATM   46  N   UNL     1     -10.242   3.989  71.126  1.00  0.00    -0.026 N  
HETATM   47  O   UNL     1      -9.557   3.718  69.011  1.00  0.00    -0.175 OA 
ENDBRANCH  41  43
ENDBRANCH  34  35
ENDBRANCH  30  34
ENDBRANCH  15  30
ENDBRANCH  12  13
ENDBRANCH   6  12
ENDBRANCH   2   3
TORSDOF 10
ENDMDL
MODEL       76
REMARK 921   NORMALIZED FREE ENERGY PREDICTED BY IDOCK:   -5.26 KCAL/MOL
REMARK 922        TOTAL FREE ENERGY PREDICTED BY IDOCK:  -11.20 KCAL/MOL
REMARK 923 INTER-LIGAND FREE ENERGY PREDICTED BY IDOCK:  -10.35 KCAL/MOL
REMARK 924 INTRA-LIGAND FREE ENERGY PREDICTED BY IDOCK:   -0.85 KCAL/MOL
REMARK 927      BINDING AFFINITY PREDICTED BY RF-SCORE:    0.00 PKD
ROOT
HETATM    1  C   UNL     1      -5.613  10.864  65.507  1.00  0.00    -0.097 C  
HETATM    2  O   UNL     1      -6.109   9.894  66.432  1.00  0.00    -0.061 OA 
ENDROOT
BRANCH   2   3
HETATM    3  C   UNL     1      -7.417  10.022  66.826  1.00  0.00    -0.096 A  
HETATM    4  C   UNL     1      -8.505   9.905  65.958  1.00  0.00    -0.135 A  
HETATM    5  C   UNL     1      -9.816   9.947  66.442  1.00  0.00    -0.288 A  
HETATM    6  C   UNL     1     -10.082  10.144  67.801  1.00  0.00    -0.216 A  
HETATM    7  C   UNL     1      -8.990  10.324  68.665  1.00  0.00    -0.144 A  
HETATM    8  C   UNL     1      -6.591  10.446  69.205  1.00  0.00    -0.056 C  
HETATM    9  O   UNL     1      -5.445   9.784  68.947  1.00  0.00    -0.036 OA 
HETATM   10  C   UNL     1      -7.666  10.252  68.191  1.00  0.00    -0.092 A  
HETATM   11  O   UNL     1      -6.765  11.096  70.224  1.00  0.00    -0.218 OA 
BRANCH   6  12
HETATM   12  C   UNL     1     -11.492  10.130  68.357  1.00  0.00    -0.015 C  
BRANCH  12  13
HETATM   13  N   UNL     1     -11.767  11.092  69.440  1.00  0.00    -0.296 N  
HETATM   14  O   UNL     1     -11.745  13.263  70.242  1.00  0.00    -0.257 OA 
HETATM   15  C   UNL     1     -11.660  12.494  69.276  1.00  0.00    -0.319 C  
BRANCH  13  16
HETATM   16  C   UNL     1     -11.839  10.558  70.825  1.00  0.00    -0.365 C  
HETATM   17  C   UNL     1     -13.251  10.119  71.257  1.00  0.00    -0.453 C  
BRANCH  16  18
HETATM   18  C   UNL     1     -10.911   9.376  71.010  1.00  0.00    -0.336 A  
HETATM   19  C   UNL     1      -9.138   8.286  71.788  1.00  0.00    -0.193 A  
HETATM   20  C   UNL     1     -10.182   7.415  71.563  1.00  0.00    -0.192 A  
HETATM   21  N   UNL     1     -11.253   8.101  71.037  1.00  0.00    -0.254 NA 
HETATM   22  H   UNL     1     -12.140   7.702  70.728  1.00  0.00     0.000 HD 
HETATM   23  N   UNL     1      -9.601   9.520  71.403  1.00  0.00    -0.163 NA 
BRANCH  20  24
HETATM   24  C   UNL     1     -10.252   6.002  71.909  1.00  0.00    -0.237 A  
HETATM   25  C   UNL     1     -11.310   4.233  73.217  1.00  0.00    -0.301 A  
HETATM   26  C   UNL     1     -10.377   3.312  72.752  1.00  0.00    -0.237 A  
HETATM   27  C   UNL     1      -9.391   3.724  71.854  1.00  0.00    -0.194 A  
HETATM   28  C   UNL     1     -11.248   5.565  72.797  1.00  0.00    -0.358 A  
HETATM   29  C   UNL     1      -9.330   5.059  71.430  1.00  0.00    -0.194 A  
ENDBRANCH  20  24
ENDBRANCH  16  18
ENDBRANCH  13  16
BRANCH  15  30
HETATM   30  C   UNL     1     -11.464  13.052  67.816  1.00  0.00    -0.316 C  
HETATM   31  H2  UNL     1     -12.554  14.800  68.202  1.00  0.00     0.000 HD 
HETATM   32  N   UNL     1     -12.521  14.053  67.508  1.00  0.00    -0.459 NA 
HETATM   33  H1  UNL     1     -12.394  14.414  66.563  1.00  0.00     0.000 HD 
BRANCH  30  34
HETATM   34  C   UNL     1     -10.119  13.761  67.537  1.00  0.00    -0.241 C  
BRANCH  34  35
HETATM   35  C   UNL     1     -10.116  15.243  67.213  1.00  0.00    -0.236 A  
HETATM   36  C   UNL     1      -9.860  15.789  69.721  1.00  0.00    -0.218 C  
HETATM   37  C   UNL     1     -10.307  17.113  65.651  1.00  0.00    -0.198 A  
HETATM   38  C   UNL     1     -10.699  14.870  64.711  1.00  0.00    -0.365 C  
HETATM   39  C   UNL     1      -9.973  16.184  68.268  1.00  0.00    -0.226 A  
HETATM   40  C   UNL     1     -10.355  15.727  65.903  1.00  0.00    -0.372 A  
HETATM   41  C   UNL     1     -10.080  18.028  66.674  1.00  0.00    -0.372 A  
HETATM   42  C   UNL     1      -9.935  17.557  67.980  1.00  0.00    -0.310 A  
BRANCH  41  43
HETATM   43  C   UNL     1     -10.025  19.502  66.462  1.00  0.00    -0.420 C  
HETATM   44  H2  UNL     1      -8.530  19.800  67.876  1.00  0.00     0.000 HD 
HETATM   45  H1  UNL     1      -9.106  21.257  67.048  1.00  0.00     0.000 HD 
HETATM   46  N   UNL     1      -9.143  20.248  67.194  1.00  0.00    -0.371 N  
HETATM   47  O   UNL     1     -10.754  20.062  65.648  1.00  0.00    -0.439 OA 
ENDBRANCH  41  43
ENDBRANCH  34  35
ENDBRANCH  30  34
ENDBRANCH  15  30
ENDBRANCH  12  13
ENDBRANCH   6  12
ENDBRANCH   2   3
TORSDOF 10
ENDMDL
MODEL       77
REMARK 921   NORMALIZED FREE ENERGY PREDICTED BY IDOCK:   -5.22 KCAL/MOL
REMARK 922        TOTAL FREE ENERGY PREDICTED BY IDOCK:  -11.15 KCAL/MOL
REMARK 923 INTER-LIGAND FREE ENERGY PREDICTED BY IDOCK:  -10.55 KCAL/MOL
REMARK 924 INTRA-LIGAND FREE ENERGY PREDICTED BY IDOCK:   -0.59 KCAL/MOL
REMARK 927      BINDING AFFINITY PREDICTED BY RF-SCORE:    0.00 PKD
ROOT
HETATM    1  C   UNL     1      -5.892   8.803  65.641  1.00  0.00    -0.051 C  
HETATM    2  O   UNL     1      -6.342   8.905  66.993  1.00  0.00    -0.058 OA 
ENDROOT
BRANCH   2   3
HETATM    3  C   UNL     1      -7.594   9.429  67.194  1.00  0.00    -0.091 A  
HETATM    4  C   UNL     1      -8.543   9.586  66.180  1.00  0.00    -0.143 A  
HETATM    5  C   UNL     1      -9.836  10.033  66.471  1.00  0.00    -0.267 A  
HETATM    6  C   UNL     1     -10.210  10.372  67.774  1.00  0.00    -0.229 A  
HETATM    7  C   UNL     1      -9.239  10.273  68.784  1.00  0.00    -0.166 A  
HETATM    8  C   UNL     1      -7.005   9.723  69.661  1.00  0.00    -0.078 C  
HETATM    9  O   UNL     1      -6.081   8.744  69.578  1.00  0.00    -0.036 OA 
HETATM   10  C   UNL     1      -7.944   9.795  68.506  1.00  0.00    -0.089 A  
HETATM   11  O   UNL     1      -7.114  10.450  70.636  1.00  0.00    -0.300 OA 
BRANCH   6  12
HETATM   12  C   UNL     1     -11.622  10.798  68.123  1.00  0.00    -0.197 C  
BRANCH  12  13
HETATM   13  N   UNL     1     -11.791  12.208  68.518  1.00  0.00    -0.327 N  
HETATM   14  O   UNL     1     -11.649  14.461  68.007  1.00  0.00    -0.293 OA 
HETATM   15  C   UNL     1     -11.656  13.288  67.612  1.00  0.00    -0.346 C  
BRANCH  13  16
HETATM   16  C   UNL     1     -11.779  12.516  69.972  1.00  0.00    -0.221 C  
HETATM   17  C   UNL     1     -12.783  13.604  70.393  1.00  0.00    -0.210 C  
BRANCH  16  18
HETATM   18  C   UNL     1     -12.064  11.280  70.800  1.00  0.00    -0.349 A  
HETATM   19  C   UNL     1     -13.298   9.627  71.626  1.00  0.00    -0.402 A  
HETATM   20  C   UNL     1     -11.975   9.247  71.537  1.00  0.00    -0.368 A  
HETATM   21  N   UNL     1     -11.221  10.299  71.068  1.00  0.00    -0.316 NA 
HETATM   22  H   UNL     1     -10.208  10.318  70.952  1.00  0.00     0.000 HD 
HETATM   23  N   UNL     1     -13.335  10.927  71.187  1.00  0.00    -0.103 NA 
BRANCH  20  24
HETATM   24  C   UNL     1     -11.412   7.925  71.775  1.00  0.00    -0.313 A  
HETATM   25  C   UNL     1     -10.821   5.729  70.888  1.00  0.00    -0.326 A  
HETATM   26  C   UNL     1     -10.469   5.295  72.162  1.00  0.00    -0.278 A  
HETATM   27  C   UNL     1     -10.569   6.173  73.242  1.00  0.00    -0.278 A  
HETATM   28  C   UNL     1     -11.286   7.033  70.698  1.00  0.00    -0.327 A  
HETATM   29  C   UNL     1     -11.033   7.482  73.051  1.00  0.00    -0.443 A  
ENDBRANCH  20  24
ENDBRANCH  16  18
ENDBRANCH  13  16
BRANCH  15  30
HETATM   30  C   UNL     1     -11.549  12.952  66.077  1.00  0.00    -0.375 C  
HETATM   31  H2  UNL     1     -12.978  14.387  65.535  1.00  0.00     0.000 HD 
HETATM   32  N   UNL     1     -12.782  13.400  65.373  1.00  0.00    -0.595 NA 
HETATM   33  H1  UNL     1     -12.712  13.182  64.378  1.00  0.00     0.000 HD 
BRANCH  30  34
HETATM   34  C   UNL     1     -10.371  13.606  65.321  1.00  0.00    -0.362 C  
BRANCH  34  35
HETATM   35  C   UNL     1      -9.713  14.843  65.902  1.00  0.00    -0.366 A  
HETATM   36  C   UNL     1      -8.199  13.352  67.364  1.00  0.00    -0.188 C  
HETATM   37  C   UNL     1      -9.502  17.267  66.141  1.00  0.00    -0.204 A  
HETATM   38  C   UNL     1     -11.373  16.473  64.750  1.00  0.00    -0.078 C  
HETATM   39  C   UNL     1      -8.672  14.694  66.856  1.00  0.00    -0.251 A  
HETATM   40  C   UNL     1     -10.172  16.151  65.602  1.00  0.00    -0.390 A  
HETATM   41  C   UNL     1      -8.425  17.116  67.010  1.00  0.00    -0.233 A  
HETATM   42  C   UNL     1      -8.031  15.828  67.376  1.00  0.00    -0.194 A  
BRANCH  41  43
HETATM   43  C   UNL     1      -7.688  18.262  67.611  1.00  0.00    -0.228 C  
HETATM   44  H2  UNL     1      -5.822  17.573  67.004  1.00  0.00     0.000 HD 
HETATM   45  H1  UNL     1      -5.821  19.096  67.909  1.00  0.00     0.000 HD 
HETATM   46  N   UNL     1      -6.326  18.312  67.497  1.00  0.00    -0.179 N  
HETATM   47  O   UNL     1      -8.273  19.161  68.209  1.00  0.00    -0.307 OA 
ENDBRANCH  41  43
ENDBRANCH  34  35
ENDBRANCH  30  34
ENDBRANCH  15  30
ENDBRANCH  12  13
ENDBRANCH   6  12
ENDBRANCH   2   3
TORSDOF 10
ENDMDL
MODEL       78
REMARK 921   NORMALIZED FREE ENERGY PREDICTED BY IDOCK:   -5.22 KCAL/MOL
REMARK 922        TOTAL FREE ENERGY PREDICTED BY IDOCK:  -11.14 KCAL/MOL
REMARK 923 INTER-LIGAND FREE ENERGY PREDICTED BY IDOCK:  -10.36 KCAL/MOL
REMARK 924 INTRA-LIGAND FREE ENERGY PREDICTED BY IDOCK:   -0.78 KCAL/MOL
REMARK 927      BINDING AFFINITY PREDICTED BY RF-SCORE:    0.00 PKD
ROOT
HETATM    1  C   UNL     1      -9.539   3.694  68.007  1.00  0.00    -0.112 C  
HETATM    2  O   UNL     1      -9.908   4.177  66.714  1.00  0.00    -0.216 OA 
ENDROOT
BRANCH   2   3
HETATM    3  C   UNL     1      -9.808   5.530  66.504  1.00  0.00    -0.172 A  
HETATM    4  C   UNL     1     -10.629   6.476  67.122  1.00  0.00    -0.398 A  
HETATM    5  C   UNL     1     -10.409   7.845  66.940  1.00  0.00    -0.400 A  
HETATM    6  C   UNL     1      -9.387   8.311  66.108  1.00  0.00    -0.254 A  
HETATM    7  C   UNL     1      -8.601   7.360  65.438  1.00  0.00    -0.058 A  
HETATM    8  C   UNL     1      -7.890   5.069  64.882  1.00  0.00    -0.091 C  
HETATM    9  O   UNL     1      -7.625   3.898  65.496  1.00  0.00    -0.080 OA 
HETATM   10  C   UNL     1      -8.795   5.980  65.638  1.00  0.00    -0.118 A  
HETATM   11  O   UNL     1      -7.376   5.393  63.822  1.00  0.00    -0.049 OA 
BRANCH   6  12
HETATM   12  C   UNL     1      -9.089   9.788  65.945  1.00  0.00    -0.168 C  
BRANCH  12  13
HETATM   13  N   UNL     1      -8.233  10.391  66.983  1.00  0.00    -0.122 N  
HETATM   14  O   UNL     1      -7.489  12.260  68.128  1.00  0.00    -0.095 OA 
HETATM   15  C   UNL     1      -8.323  11.750  67.368  1.00  0.00    -0.159 C  
BRANCH  13  16
HETATM   16  C   UNL     1      -7.027   9.629  67.401  1.00  0.00    -0.084 C  
HETATM   17  C   UNL     1      -5.727  10.454  67.388  1.00  0.00    -0.045 C  
BRANCH  16  18
HETATM   18  C   UNL     1      -7.194   9.051  68.791  1.00  0.00    -0.075 A  
HETATM   19  C   UNL     1      -7.124   9.046  71.012  1.00  0.00    -0.100 A  
HETATM   20  C   UNL     1      -8.114   8.202  70.555  1.00  0.00    -0.104 A  
HETATM   21  N   UNL     1      -8.109   8.182  69.179  1.00  0.00    -0.119 NA 
HETATM   22  H   UNL     1      -8.699   7.608  68.576  1.00  0.00     0.000 HD 
HETATM   23  N   UNL     1      -6.527   9.553  69.884  1.00  0.00    -0.048 NA 
BRANCH  20  24
HETATM   24  C   UNL     1      -9.116   7.497  71.344  1.00  0.00    -0.145 A  
HETATM   25  C   UNL     1     -10.611   5.581  71.569  1.00  0.00    -0.302 A  
HETATM   26  C   UNL     1     -11.161   6.128  72.724  1.00  0.00    -0.294 A  
HETATM   27  C   UNL     1     -10.682   7.348  73.204  1.00  0.00    -0.436 A  
HETATM   28  C   UNL     1      -9.598   6.260  70.888  1.00  0.00    -0.192 A  
HETATM   29  C   UNL     1      -9.662   8.028  72.522  1.00  0.00    -0.325 A  
ENDBRANCH  20  24
ENDBRANCH  16  18
ENDBRANCH  13  16
BRANCH  15  30
HETATM   30  C   UNL     1      -9.541  12.590  66.828  1.00  0.00    -0.231 C  
HETATM   31  H2  UNL     1      -9.511  11.660  64.950  1.00  0.00     0.000 HD 
HETATM   32  N   UNL     1      -9.529  12.602  65.339  1.00  0.00    -0.457 NA 
HETATM   33  H1  UNL     1     -10.318  13.146  64.990  1.00  0.00     0.000 HD 
BRANCH  30  34
HETATM   34  C   UNL     1     -10.944  12.087  67.234  1.00  0.00    -0.313 C  
BRANCH  34  35
HETATM   35  C   UNL     1     -11.534  12.526  68.561  1.00  0.00    -0.346 A  
HETATM   36  C   UNL     1     -11.446  14.985  67.785  1.00  0.00    -0.347 C  
HETATM   37  C   UNL     1     -12.337  12.071  70.824  1.00  0.00    -0.403 A  
HETATM   38  C   UNL     1     -11.384  10.154  69.605  1.00  0.00    -0.289 C  
HETATM   39  C   UNL     1     -11.779  13.907  68.789  1.00  0.00    -0.392 A  
HETATM   40  C   UNL     1     -11.755  11.616  69.624  1.00  0.00    -0.418 A  
HETATM   41  C   UNL     1     -12.656  13.412  71.012  1.00  0.00    -0.425 A  
HETATM   42  C   UNL     1     -12.356  14.324  69.998  1.00  0.00    -0.403 A  
BRANCH  41  43
HETATM   43  C   UNL     1     -13.267  13.945  72.261  1.00  0.00    -0.473 C  
HETATM   44  H2  UNL     1     -11.586  15.048  72.791  1.00  0.00     0.000 HD 
HETATM   45  H1  UNL     1     -12.956  15.152  73.908  1.00  0.00     0.000 HD 
HETATM   46  N   UNL     1     -12.537  14.787  73.053  1.00  0.00    -0.405 N  
HETATM   47  O   UNL     1     -14.409  13.645  72.597  1.00  0.00    -0.703 OA 
ENDBRANCH  41  43
ENDBRANCH  34  35
ENDBRANCH  30  34
ENDBRANCH  15  30
ENDBRANCH  12  13
ENDBRANCH   6  12
ENDBRANCH   2   3
TORSDOF 10
ENDMDL
MODEL       79
REMARK 921   NORMALIZED FREE ENERGY PREDICTED BY IDOCK:   -5.19 KCAL/MOL
REMARK 922        TOTAL FREE ENERGY PREDICTED BY IDOCK:  -11.10 KCAL/MOL
REMARK 923 INTER-LIGAND FREE ENERGY PREDICTED BY IDOCK:  -10.22 KCAL/MOL
REMARK 924 INTRA-LIGAND FREE ENERGY PREDICTED BY IDOCK:   -0.88 KCAL/MOL
REMARK 927      BINDING AFFINITY PREDICTED BY RF-SCORE:    0.00 PKD
ROOT
HETATM    1  C   UNL     1      -9.317  10.587  62.334  1.00  0.00    -0.249 C  
HETATM    2  O   UNL     1      -9.147   9.725  63.461  1.00  0.00    -0.247 OA 
ENDROOT
BRANCH   2   3
HETATM    3  C   UNL     1      -9.313  10.285  64.703  1.00  0.00    -0.266 A  
HETATM    4  C   UNL     1     -10.549  10.688  65.215  1.00  0.00    -0.191 A  
HETATM    5  C   UNL     1     -10.662  11.159  66.526  1.00  0.00    -0.314 A  
HETATM    6  C   UNL     1      -9.542  11.277  67.354  1.00  0.00    -0.182 A  
HETATM    7  C   UNL     1      -8.291  10.930  66.820  1.00  0.00    -0.138 A  
HETATM    8  C   UNL     1      -6.793  10.080  65.060  1.00  0.00    -0.132 C  
HETATM    9  O   UNL     1      -6.727   9.075  64.165  1.00  0.00    -0.082 OA 
HETATM   10  C   UNL     1      -8.170  10.426  65.511  1.00  0.00    -0.162 A  
HETATM   11  O   UNL     1      -5.800  10.622  65.523  1.00  0.00    -0.123 OA 
BRANCH   6  12
HETATM   12  C   UNL     1      -9.649  11.724  68.799  1.00  0.00    -0.042 C  
BRANCH  12  13
HETATM   13  N   UNL     1     -10.998  11.672  69.390  1.00  0.00    -0.196 N  
HETATM   14  O   UNL     1     -12.813  10.441  70.133  1.00  0.00    -0.235 OA 
HETATM   15  C   UNL     1     -11.624  10.465  69.786  1.00  0.00    -0.269 C  
BRANCH  13  16
HETATM   16  C   UNL     1     -11.847  12.886  69.264  1.00  0.00    -0.309 C  
HETATM   17  C   UNL     1     -12.303  13.478  70.611  1.00  0.00    -0.432 C  
BRANCH  16  18
HETATM   18  C   UNL     1     -11.135  13.979  68.496  1.00  0.00    -0.257 A  
HETATM   19  C   UNL     1     -10.868  15.495  66.893  1.00  0.00    -0.301 A  
HETATM   20  C   UNL     1     -10.189  15.869  68.032  1.00  0.00    -0.238 A  
HETATM   21  N   UNL     1     -10.327  14.896  68.996  1.00  0.00    -0.240 NA 
HETATM   22  H   UNL     1      -9.890  14.885  69.917  1.00  0.00     0.000 HD 
HETATM   23  N   UNL     1     -11.437  14.280  67.189  1.00  0.00    -0.341 NA 
BRANCH  20  24
HETATM   24  C   UNL     1      -9.507  17.131  68.287  1.00  0.00    -0.276 A  
HETATM   25  C   UNL     1      -9.654  19.552  68.566  1.00  0.00    -0.476 A  
HETATM   26  C   UNL     1      -8.267  19.642  68.632  1.00  0.00    -0.311 A  
HETATM   27  C   UNL     1      -7.496  18.482  68.544  1.00  0.00    -0.318 A  
HETATM   28  C   UNL     1     -10.267  18.307  68.397  1.00  0.00    -0.402 A  
HETATM   29  C   UNL     1      -8.111  17.233  68.377  1.00  0.00    -0.259 A  
ENDBRANCH  20  24
ENDBRANCH  16  18
ENDBRANCH  13  16
BRANCH  15  30
HETATM   30  C   UNL     1     -10.751   9.155  69.805  1.00  0.00    -0.228 C  
HETATM   31  H2  UNL     1     -10.212   9.393  71.817  1.00  0.00     0.000 HD 
HETATM   32  N   UNL     1      -9.764   9.218  70.918  1.00  0.00    -0.275 NA 
HETATM   33  H1  UNL     1      -9.199   8.369  70.930  1.00  0.00     0.000 HD 
BRANCH  30  34
HETATM   34  C   UNL     1     -11.522   7.830  70.002  1.00  0.00     0.023 C  
BRANCH  34  35
HETATM   35  C   UNL     1     -10.804   6.514  69.770  1.00  0.00    -0.351 A  
HETATM   36  C   UNL     1     -10.906   6.907  67.223  1.00  0.00    -0.426 C  
HETATM   37  C   UNL     1      -9.809   4.426  70.564  1.00  0.00    -0.285 A  
HETATM   38  C   UNL     1     -10.913   5.820  72.269  1.00  0.00    -0.314 C  
HETATM   39  C   UNL     1     -10.507   6.109  68.441  1.00  0.00    -0.280 A  
HETATM   40  C   UNL     1     -10.509   5.621  70.830  1.00  0.00    -0.323 A  
HETATM   41  C   UNL     1      -9.444   4.074  69.269  1.00  0.00    -0.260 A  
HETATM   42  C   UNL     1      -9.814   4.910  68.213  1.00  0.00    -0.198 A  
BRANCH  41  43
HETATM   43  C   UNL     1      -8.709   2.823  68.933  1.00  0.00    -0.085 C  
HETATM   44  H2  UNL     1     -10.430   1.776  68.411  1.00  0.00     0.000 HD 
HETATM   45  H1  UNL     1      -8.911   0.875  68.272  1.00  0.00     0.000 HD 
HETATM   46  N   UNL     1      -9.414   1.732  68.502  1.00  0.00    -0.185 N  
HETATM   47  O   UNL     1      -7.489   2.746  69.035  1.00  0.00    -0.047 OA 
ENDBRANCH  41  43
ENDBRANCH  34  35
ENDBRANCH  30  34
ENDBRANCH  15  30
ENDBRANCH  12  13
ENDBRANCH   6  12
ENDBRANCH   2   3
TORSDOF 10
ENDMDL
MODEL       80
REMARK 921   NORMALIZED FREE ENERGY PREDICTED BY IDOCK:   -5.19 KCAL/MOL
REMARK 922        TOTAL FREE ENERGY PREDICTED BY IDOCK:  -11.09 KCAL/MOL
REMARK 923 INTER-LIGAND FREE ENERGY PREDICTED BY IDOCK:   -9.39 KCAL/MOL
REMARK 924 INTRA-LIGAND FREE ENERGY PREDICTED BY IDOCK:   -1.71 KCAL/MOL
REMARK 927      BINDING AFFINITY PREDICTED BY RF-SCORE:    0.00 PKD
ROOT
HETATM    1  C   UNL     1      -9.806   4.173  70.557  1.00  0.00    -0.182 C  
HETATM    2  O   UNL     1     -10.826   5.165  70.431  1.00  0.00    -0.160 OA 
ENDROOT
BRANCH   2   3
HETATM    3  C   UNL     1     -10.542   6.254  69.646  1.00  0.00    -0.264 A  
HETATM    4  C   UNL     1      -9.981   6.166  68.369  1.00  0.00    -0.162 A  
HETATM    5  C   UNL     1      -9.809   7.309  67.581  1.00  0.00    -0.189 A  
HETATM    6  C   UNL     1     -10.156   8.576  68.057  1.00  0.00    -0.245 A  
HETATM    7  C   UNL     1     -10.662   8.673  69.363  1.00  0.00    -0.169 A  
HETATM    8  C   UNL     1     -11.422   7.752  71.517  1.00  0.00    -0.264 C  
HETATM    9  O   UNL     1     -12.182   6.746  71.993  1.00  0.00    -0.321 OA 
HETATM   10  C   UNL     1     -10.867   7.525  70.153  1.00  0.00    -0.259 A  
HETATM   11  O   UNL     1     -11.255   8.800  72.122  1.00  0.00    -0.353 OA 
BRANCH   6  12
HETATM   12  C   UNL     1     -10.038   9.820  67.199  1.00  0.00    -0.211 C  
BRANCH  12  13
HETATM   13  N   UNL     1      -9.211  10.908  67.752  1.00  0.00    -0.151 N  
HETATM   14  O   UNL     1      -9.024  13.074  68.548  1.00  0.00    -0.152 OA 
HETATM   15  C   UNL     1      -9.753  12.124  68.236  1.00  0.00    -0.216 C  
BRANCH  13  16
HETATM   16  C   UNL     1      -7.749  10.855  67.491  1.00  0.00    -0.109 C  
HETATM   17  C   UNL     1      -7.168  12.153  66.900  1.00  0.00    -0.002 C  
BRANCH  16  18
HETATM   18  C   UNL     1      -6.975  10.536  68.754  1.00  0.00    -0.070 A  
HETATM   19  C   UNL     1      -5.831  10.986  70.604  1.00  0.00    -0.105 A  
HETATM   20  C   UNL     1      -6.502   9.788  70.728  1.00  0.00    -0.097 A  
HETATM   21  N   UNL     1      -7.165   9.505  69.555  1.00  0.00    -0.069 NA 
HETATM   22  H   UNL     1      -7.699   8.661  69.346  1.00  0.00     0.000 HD 
HETATM   23  N   UNL     1      -6.112  11.434  69.337  1.00  0.00    -0.068 NA 
BRANCH  20  24
HETATM   24  C   UNL     1      -6.626   8.957  71.918  1.00  0.00    -0.036 A  
HETATM   25  C   UNL     1      -8.009   7.479  73.283  1.00  0.00    -0.142 A  
HETATM   26  C   UNL     1      -7.020   7.436  74.261  1.00  0.00    -0.107 A  
HETATM   27  C   UNL     1      -5.828   8.135  74.067  1.00  0.00    -0.086 A  
HETATM   28  C   UNL     1      -7.811   8.231  72.122  1.00  0.00    -0.170 A  
HETATM   29  C   UNL     1      -5.629   8.887  72.901  1.00  0.00    -0.083 A  
ENDBRANCH  20  24
ENDBRANCH  16  18
ENDBRANCH  13  16
BRANCH  15  30
HETATM   30  C   UNL     1     -11.316  12.219  68.400  1.00  0.00    -0.292 C  
HETATM   31  H2  UNL     1     -11.189  13.170  70.264  1.00  0.00     0.000 HD 
HETATM   32  N   UNL     1     -11.668  12.377  69.838  1.00  0.00    -0.475 NA 
HETATM   33  H1  UNL     1     -12.680  12.438  69.944  1.00  0.00     0.000 HD 
BRANCH  30  34
HETATM   34  C   UNL     1     -12.004  13.393  67.668  1.00  0.00    -0.362 C  
BRANCH  34  35
HETATM   35  C   UNL     1     -11.196  14.632  67.332  1.00  0.00    -0.351 A  
HETATM   36  C   UNL     1     -11.879  15.688  69.584  1.00  0.00    -0.377 C  
HETATM   37  C   UNL     1      -9.810  15.963  65.821  1.00  0.00    -0.380 A  
HETATM   38  C   UNL     1     -10.691  13.851  64.908  1.00  0.00    -0.422 C  
HETATM   39  C   UNL     1     -11.139  15.700  68.268  1.00  0.00    -0.336 A  
HETATM   40  C   UNL     1     -10.578  14.807  66.069  1.00  0.00    -0.318 A  
HETATM   41  C   UNL     1      -9.685  16.968  66.774  1.00  0.00    -0.276 A  
HETATM   42  C   UNL     1     -10.368  16.838  67.985  1.00  0.00    -0.317 A  
BRANCH  41  43
HETATM   43  C   UNL     1      -8.891  18.210  66.561  1.00  0.00    -0.271 C  
HETATM   44  H2  UNL     1      -9.618  19.148  68.269  1.00  0.00     0.000 HD 
HETATM   45  H1  UNL     1      -8.457  20.084  67.314  1.00  0.00     0.000 HD 
HETATM   46  N   UNL     1      -9.001  19.234  67.461  1.00  0.00    -0.294 N  
HETATM   47  O   UNL     1      -8.143  18.337  65.596  1.00  0.00    -0.477 OA 
ENDBRANCH  41  43
ENDBRANCH  34  35
ENDBRANCH  30  34
ENDBRANCH  15  30
ENDBRANCH  12  13
ENDBRANCH   6  12
ENDBRANCH   2   3
TORSDOF 10
ENDMDL
MODEL       81
REMARK 921   NORMALIZED FREE ENERGY PREDICTED BY IDOCK:   -5.18 KCAL/MOL
REMARK 922        TOTAL FREE ENERGY PREDICTED BY IDOCK:  -11.07 KCAL/MOL
REMARK 923 INTER-LIGAND FREE ENERGY PREDICTED BY IDOCK:   -9.08 KCAL/MOL
REMARK 924 INTRA-LIGAND FREE ENERGY PREDICTED BY IDOCK:   -2.00 KCAL/MOL
REMARK 927      BINDING AFFINITY PREDICTED BY RF-SCORE:    0.00 PKD
ROOT
HETATM    1  C   UNL     1      -5.279   5.835  68.498  1.00  0.00    -0.003 C  
HETATM    2  O   UNL     1      -5.738   6.997  69.190  1.00  0.00    -0.017 OA 
ENDROOT
BRANCH   2   3
HETATM    3  C   UNL     1      -6.175   8.047  68.422  1.00  0.00    -0.049 A  
HETATM    4  C   UNL     1      -5.779   8.259  67.099  1.00  0.00    -0.038 A  
HETATM    5  C   UNL     1      -6.338   9.292  66.340  1.00  0.00    -0.066 A  
HETATM    6  C   UNL     1      -7.280  10.167  66.889  1.00  0.00    -0.092 A  
HETATM    7  C   UNL     1      -7.632   9.993  68.237  1.00  0.00    -0.084 A  
HETATM    8  C   UNL     1      -7.557   8.846  70.415  1.00  0.00    -0.088 C  
HETATM    9  O   UNL     1      -7.589   7.597  70.920  1.00  0.00    -0.077 OA 
HETATM   10  C   UNL     1      -7.098   8.937  69.000  1.00  0.00    -0.064 A  
HETATM   11  O   UNL     1      -7.939   9.824  71.040  1.00  0.00    -0.242 OA 
BRANCH   6  12
HETATM   12  C   UNL     1      -7.946  11.254  66.068  1.00  0.00     0.020 C  
BRANCH  12  13
HETATM   13  N   UNL     1      -9.350  11.007  65.691  1.00  0.00    -0.207 N  
HETATM   14  O   UNL     1     -11.602  11.477  65.942  1.00  0.00    -0.273 OA 
HETATM   15  C   UNL     1     -10.427  11.803  66.151  1.00  0.00    -0.245 C  
BRANCH  13  16
HETATM   16  C   UNL     1      -9.671   9.693  65.077  1.00  0.00    -0.164 C  
HETATM   17  C   UNL     1      -8.568   9.144  64.153  1.00  0.00    -0.191 C  
BRANCH  16  18
HETATM   18  C   UNL     1      -9.953   8.644  66.133  1.00  0.00    -0.134 A  
HETATM   19  C   UNL     1      -9.533   6.858  67.386  1.00  0.00    -0.132 A  
HETATM   20  C   UNL     1     -10.363   7.735  68.053  1.00  0.00    -0.209 A  
HETATM   21  N   UNL     1     -10.649   8.810  67.242  1.00  0.00    -0.368 NA 
HETATM   22  H   UNL     1     -11.277   9.584  67.457  1.00  0.00     0.000 HD 
HETATM   23  N   UNL     1      -9.307   7.431  66.159  1.00  0.00    -0.108 NA 
BRANCH  20  24
HETATM   24  C   UNL     1     -10.814   7.656  69.436  1.00  0.00    -0.136 A  
HETATM   25  C   UNL     1     -11.564   6.268  71.299  1.00  0.00    -0.336 A  
HETATM   26  C   UNL     1     -11.828   7.405  72.056  1.00  0.00    -0.335 A  
HETATM   27  C   UNL     1     -11.571   8.667  71.518  1.00  0.00    -0.368 A  
HETATM   28  C   UNL     1     -11.060   6.394  70.002  1.00  0.00    -0.442 A  
HETATM   29  C   UNL     1     -11.062   8.793  70.218  1.00  0.00    -0.240 A  
ENDBRANCH  20  24
ENDBRANCH  16  18
ENDBRANCH  13  16
BRANCH  15  30
HETATM   30  C   UNL     1     -10.083  13.141  66.908  1.00  0.00    -0.245 C  
HETATM   31  H2  UNL     1     -12.097  13.661  67.165  1.00  0.00     0.000 HD 
HETATM   32  N   UNL     1     -11.233  14.082  66.824  1.00  0.00    -0.307 NA 
HETATM   33  H1  UNL     1     -11.010  14.948  67.315  1.00  0.00     0.000 HD 
BRANCH  30  34
HETATM   34  C   UNL     1      -9.760  13.004  68.413  1.00  0.00    -0.192 C  
BRANCH  34  35
HETATM   35  C   UNL     1     -10.621  13.735  69.425  1.00  0.00     0.062 A  
HETATM   36  C   UNL     1     -12.255  11.740  69.478  1.00  0.00    -0.232 C  
HETATM   37  C   UNL     1     -11.167  15.695  70.782  1.00  0.00    -0.396 A  
HETATM   38  C   UNL     1      -9.262  15.940  69.239  1.00  0.00    -0.254 C  
HETATM   39  C   UNL     1     -11.790  13.105  69.928  1.00  0.00    -0.378 A  
HETATM   40  C   UNL     1     -10.356  15.073  69.811  1.00  0.00    -0.172 A  
HETATM   41  C   UNL     1     -12.263  15.040  71.337  1.00  0.00    -0.388 A  
HETATM   42  C   UNL     1     -12.578  13.756  70.890  1.00  0.00    -0.428 A  
BRANCH  41  43
HETATM   43  C   UNL     1     -13.155  15.654  72.360  1.00  0.00    -0.460 C  
HETATM   44  H2  UNL     1     -11.600  16.089  73.671  1.00  0.00     0.000 HD 
HETATM   45  H1  UNL     1     -13.218  16.563  74.214  1.00  0.00     0.000 HD 
HETATM   46  N   UNL     1     -12.607  16.143  73.514  1.00  0.00    -0.538 N  
HETATM   47  O   UNL     1     -14.368  15.728  72.193  1.00  0.00    -0.462 OA 
ENDBRANCH  41  43
ENDBRANCH  34  35
ENDBRANCH  30  34
ENDBRANCH  15  30
ENDBRANCH  12  13
ENDBRANCH   6  12
ENDBRANCH   2   3
TORSDOF 10
ENDMDL
MODEL       82
REMARK 921   NORMALIZED FREE ENERGY PREDICTED BY IDOCK:   -5.17 KCAL/MOL
REMARK 922        TOTAL FREE ENERGY PREDICTED BY IDOCK:  -11.06 KCAL/MOL
REMARK 923 INTER-LIGAND FREE ENERGY PREDICTED BY IDOCK:   -7.86 KCAL/MOL
REMARK 924 INTRA-LIGAND FREE ENERGY PREDICTED BY IDOCK:   -3.21 KCAL/MOL
REMARK 927      BINDING AFFINITY PREDICTED BY RF-SCORE:    0.00 PKD
ROOT
HETATM    1  C   UNL     1     -10.750  12.685  63.620  1.00  0.00    -0.372 C  
HETATM    2  O   UNL     1      -9.799  12.323  64.622  1.00  0.00    -0.205 OA 
ENDROOT
BRANCH   2   3
HETATM    3  C   UNL     1      -9.768  11.004  65.004  1.00  0.00    -0.254 A  
HETATM    4  C   UNL     1      -9.083  10.009  64.303  1.00  0.00    -0.296 A  
HETATM    5  C   UNL     1      -9.010   8.704  64.800  1.00  0.00     0.057 A  
HETATM    6  C   UNL     1      -9.648   8.344  65.991  1.00  0.00    -0.196 A  
HETATM    7  C   UNL     1     -10.388   9.329  66.663  1.00  0.00    -0.292 A  
HETATM    8  C   UNL     1     -11.249  11.613  66.993  1.00  0.00    -0.314 C  
HETATM    9  O   UNL     1     -10.818  12.890  66.949  1.00  0.00    -0.252 OA 
HETATM   10  C   UNL     1     -10.443  10.654  66.186  1.00  0.00    -0.260 A  
HETATM   11  O   UNL     1     -12.184  11.253  67.692  1.00  0.00    -0.423 OA 
BRANCH   6  12
HETATM   12  C   UNL     1      -9.530   6.953  66.581  1.00  0.00    -0.166 C  
BRANCH  12  13
HETATM   13  N   UNL     1      -8.583   6.807  67.701  1.00  0.00    -0.121 N  
HETATM   14  O   UNL     1      -8.105   7.006  69.957  1.00  0.00    -0.123 OA 
HETATM   15  C   UNL     1      -8.954   6.982  69.057  1.00  0.00    -0.133 C  
BRANCH  13  16
HETATM   16  C   UNL     1      -7.134   6.797  67.373  1.00  0.00    -0.084 C  
HETATM   17  C   UNL     1      -6.789   6.065  66.063  1.00  0.00    -0.061 C  
BRANCH  16  18
HETATM   18  C   UNL     1      -6.582   8.204  67.275  1.00  0.00    -0.058 A  
HETATM   19  C   UNL     1      -5.887  10.048  66.247  1.00  0.00    -0.061 A  
HETATM   20  C   UNL     1      -6.400  10.350  67.490  1.00  0.00    -0.058 A  
HETATM   21  N   UNL     1      -6.780   9.191  68.129  1.00  0.00    -0.060 NA 
HETATM   22  H   UNL     1      -7.144   9.111  69.078  1.00  0.00     0.000 HD 
HETATM   23  N   UNL     1      -5.978   8.682  66.135  1.00  0.00    -0.047 NA 
BRANCH  20  24
HETATM   24  C   UNL     1      -6.638  11.670  68.058  1.00  0.00    -0.062 A  
HETATM   25  C   UNL     1      -6.270  13.239  69.891  1.00  0.00    -0.097 A  
HETATM   26  C   UNL     1      -7.150  14.146  69.309  1.00  0.00    -0.079 A  
HETATM   27  C   UNL     1      -7.763  13.830  68.096  1.00  0.00    -0.140 A  
HETATM   28  C   UNL     1      -6.016  12.014  69.269  1.00  0.00    -0.081 A  
HETATM   29  C   UNL     1      -7.506  12.602  67.470  1.00  0.00    -0.155 A  
ENDBRANCH  20  24
ENDBRANCH  16  18
ENDBRANCH  13  16
BRANCH  15  30
HETATM   30  C   UNL     1     -10.487   7.111  69.390  1.00  0.00    -0.222 C  
HETATM   31  H2  UNL     1     -10.689   5.075  69.843  1.00  0.00     0.000 HD 
HETATM   32  N   UNL     1     -11.147   5.782  69.270  1.00  0.00    -0.282 NA 
HETATM   33  H1  UNL     1     -12.140   5.866  69.486  1.00  0.00     0.000 HD 
BRANCH  30  34
HETATM   34  C   UNL     1     -10.832   7.625  70.806  1.00  0.00    -0.246 C  
BRANCH  34  35
HETATM   35  C   UNL     1     -11.451   9.001  70.964  1.00  0.00    -0.358 A  
HETATM   36  C   UNL     1     -13.660   7.918  71.739  1.00  0.00    -0.396 C  
HETATM   37  C   UNL     1     -11.380  11.437  70.768  1.00  0.00     0.610 A  
HETATM   38  C   UNL     1      -9.423  10.221  69.897  1.00  0.00    -0.061 C  
HETATM   39  C   UNL     1     -12.790   9.112  71.426  1.00  0.00    -0.376 A  
HETATM   40  C   UNL     1     -10.773  10.181  70.567  1.00  0.00    -0.295 A  
HETATM   41  C   UNL     1     -12.660  11.546  71.303  1.00  0.00    -0.452 A  
HETATM   42  C   UNL     1     -13.364  10.380  71.610  1.00  0.00    -0.432 A  
BRANCH  41  43
HETATM   43  C   UNL     1     -13.349  12.847  71.530  1.00  0.00    -0.173 C  
HETATM   44  H2  UNL     1     -12.555  13.735  69.825  1.00  0.00     0.000 HD 
HETATM   45  H1  UNL     1     -13.631  14.756  70.793  1.00  0.00     0.000 HD 
HETATM   46  N   UNL     1     -13.160  13.865  70.637  1.00  0.00    -0.161 N  
HETATM   47  O   UNL     1     -14.079  13.027  72.500  1.00  0.00    -0.621 OA 
ENDBRANCH  41  43
ENDBRANCH  34  35
ENDBRANCH  30  34
ENDBRANCH  15  30
ENDBRANCH  12  13
ENDBRANCH   6  12
ENDBRANCH   2   3
TORSDOF 10
ENDMDL
MODEL       83
REMARK 921   NORMALIZED FREE ENERGY PREDICTED BY IDOCK:   -5.12 KCAL/MOL
REMARK 922        TOTAL FREE ENERGY PREDICTED BY IDOCK:  -10.98 KCAL/MOL
REMARK 923 INTER-LIGAND FREE ENERGY PREDICTED BY IDOCK:   -9.23 KCAL/MOL
REMARK 924 INTRA-LIGAND FREE ENERGY PREDICTED BY IDOCK:   -1.75 KCAL/MOL
REMARK 927      BINDING AFFINITY PREDICTED BY RF-SCORE:    0.00 PKD
ROOT
HETATM    1  C   UNL     1      -5.370   5.316  70.050  1.00  0.00    -0.004 C  
HETATM    2  O   UNL     1      -6.046   6.395  70.698  1.00  0.00    -0.032 OA 
ENDROOT
BRANCH   2   3
HETATM    3  C   UNL     1      -6.443   7.444  69.907  1.00  0.00    -0.035 A  
HETATM    4  C   UNL     1      -5.877   7.738  68.664  1.00  0.00    -0.031 A  
HETATM    5  C   UNL     1      -6.395   8.761  67.864  1.00  0.00    -0.056 A  
HETATM    6  C   UNL     1      -7.468   9.547  68.296  1.00  0.00    -0.078 A  
HETATM    7  C   UNL     1      -7.996   9.293  69.572  1.00  0.00    -0.098 A  
HETATM    8  C   UNL     1      -8.152   8.064  71.700  1.00  0.00    -0.114 C  
HETATM    9  O   UNL     1      -8.165   6.795  72.155  1.00  0.00    -0.104 OA 
HETATM   10  C   UNL     1      -7.502   8.244  70.372  1.00  0.00    -0.067 A  
HETATM   11  O   UNL     1      -8.691   8.986  72.293  1.00  0.00    -0.367 OA 
BRANCH   6  12
HETATM   12  C   UNL     1      -8.086  10.619  67.422  1.00  0.00    -0.112 C  
BRANCH  12  13
HETATM   13  N   UNL     1      -9.498  10.414  67.051  1.00  0.00    -0.161 N  
HETATM   14  O   UNL     1     -11.749  10.721  67.494  1.00  0.00    -0.510 OA 
HETATM   15  C   UNL     1     -10.575  11.035  67.729  1.00  0.00    -0.211 C  
BRANCH  13  16
HETATM   16  C   UNL     1      -9.809   9.270  66.154  1.00  0.00    -0.293 C  
HETATM   17  C   UNL     1      -8.775   9.049  65.035  1.00  0.00    -0.217 C  
BRANCH  16  18
HETATM   18  C   UNL     1      -9.932   7.977  66.932  1.00  0.00    -0.268 A  
HETATM   19  C   UNL     1      -9.246   6.037  67.772  1.00  0.00    -0.107 A  
HETATM   20  C   UNL     1     -10.217   6.597  68.575  1.00  0.00    -0.171 A  
HETATM   21  N   UNL     1     -10.662   7.773  68.013  1.00  0.00    -0.424 NA 
HETATM   22  H   UNL     1     -11.410   8.370  68.364  1.00  0.00     0.000 HD 
HETATM   23  N   UNL     1      -9.098   6.904  66.718  1.00  0.00    -0.140 NA 
BRANCH  20  24
HETATM   24  C   UNL     1     -10.668   6.133  69.880  1.00  0.00    -0.366 A  
HETATM   25  C   UNL     1     -11.919   6.588  71.926  1.00  0.00    -0.389 A  
HETATM   26  C   UNL     1     -11.478   5.388  72.477  1.00  0.00    -0.259 A  
HETATM   27  C   UNL     1     -10.649   4.550  71.731  1.00  0.00    -0.029 A  
HETATM   28  C   UNL     1     -11.518   6.954  70.639  1.00  0.00    -0.383 A  
HETATM   29  C   UNL     1     -10.249   4.917  70.438  1.00  0.00    -0.292 A  
ENDBRANCH  20  24
ENDBRANCH  16  18
ENDBRANCH  13  16
BRANCH  15  30
HETATM   30  C   UNL     1     -10.236  12.167  68.769  1.00  0.00    -0.116 C  
HETATM   31  H2  UNL     1      -9.022  13.217  67.421  1.00  0.00     0.000 HD 
HETATM   32  N   UNL     1      -8.978  12.860  68.375  1.00  0.00    -0.320 NA 
HETATM   33  H1  UNL     1      -8.759  13.593  69.049  1.00  0.00     0.000 HD 
BRANCH  30  34
HETATM   34  C   UNL     1     -11.296  13.279  68.931  1.00  0.00    -0.333 C  
BRANCH  34  35
HETATM   35  C   UNL     1     -11.032  14.647  68.329  1.00  0.00    -0.261 A  
HETATM   36  C   UNL     1     -10.546  15.587  70.681  1.00  0.00    -0.170 C  
HETATM   37  C   UNL     1     -10.952  16.197  66.441  1.00  0.00    -0.036 A  
HETATM   38  C   UNL     1     -11.806  13.938  65.955  1.00  0.00    -0.399 C  
HETATM   39  C   UNL     1     -10.660  15.721  69.181  1.00  0.00    -0.242 A  
HETATM   40  C   UNL     1     -11.246  14.918  66.954  1.00  0.00    -0.343 A  
HETATM   41  C   UNL     1     -10.504  17.224  67.265  1.00  0.00    -0.319 A  
HETATM   42  C   UNL     1     -10.380  16.983  68.635  1.00  0.00    -0.351 A  
BRANCH  41  43
HETATM   43  C   UNL     1     -10.186  18.594  66.774  1.00  0.00    -0.393 C  
HETATM   44  H2  UNL     1     -12.079  19.346  67.192  1.00  0.00     0.000 HD 
HETATM   45  H1  UNL     1     -10.934  20.498  66.487  1.00  0.00     0.000 HD 
HETATM   46  N   UNL     1     -11.152  19.560  66.823  1.00  0.00    -0.274 N  
HETATM   47  O   UNL     1      -9.078  18.875  66.326  1.00  0.00    -0.357 OA 
ENDBRANCH  41  43
ENDBRANCH  34  35
ENDBRANCH  30  34
ENDBRANCH  15  30
ENDBRANCH  12  13
ENDBRANCH   6  12
ENDBRANCH   2   3
TORSDOF 10
ENDMDL
MODEL       84
REMARK 921   NORMALIZED FREE ENERGY PREDICTED BY IDOCK:   -5.07 KCAL/MOL
REMARK 922        TOTAL FREE ENERGY PREDICTED BY IDOCK:  -10.90 KCAL/MOL
REMARK 923 INTER-LIGAND FREE ENERGY PREDICTED BY IDOCK:   -9.53 KCAL/MOL
REMARK 924 INTRA-LIGAND FREE ENERGY PREDICTED BY IDOCK:   -1.37 KCAL/MOL
REMARK 927      BINDING AFFINITY PREDICTED BY RF-SCORE:    0.00 PKD
ROOT
HETATM    1  C   UNL     1      -5.677  14.818  70.766  1.00  0.00    -0.144 C  
HETATM    2  O   UNL     1      -5.833  14.943  69.352  1.00  0.00    -0.097 OA 
ENDROOT
BRANCH   2   3
HETATM    3  C   UNL     1      -6.452  13.906  68.700  1.00  0.00    -0.092 A  
HETATM    4  C   UNL     1      -6.157  12.559  68.928  1.00  0.00    -0.075 A  
HETATM    5  C   UNL     1      -6.895  11.549  68.303  1.00  0.00    -0.066 A  
HETATM    6  C   UNL     1      -7.923  11.851  67.405  1.00  0.00    -0.162 A  
HETATM    7  C   UNL     1      -8.179  13.203  67.129  1.00  0.00    -0.127 A  
HETATM    8  C   UNL     1      -7.832  15.624  67.412  1.00  0.00    -0.182 C  
HETATM    9  O   UNL     1      -7.661  16.530  68.396  1.00  0.00    -0.172 OA 
HETATM   10  C   UNL     1      -7.462  14.228  67.777  1.00  0.00    -0.175 A  
HETATM   11  O   UNL     1      -8.318  15.908  66.328  1.00  0.00    -0.299 OA 
BRANCH   6  12
HETATM   12  C   UNL     1      -8.777  10.774  66.765  1.00  0.00    -0.143 C  
BRANCH  12  13
HETATM   13  N   UNL     1      -8.472  10.462  65.357  1.00  0.00    -0.164 N  
HETATM   14  O   UNL     1      -9.052  10.542  63.117  1.00  0.00    -0.201 OA 
HETATM   15  C   UNL     1      -9.241  10.947  64.272  1.00  0.00    -0.197 C  
BRANCH  13  16
HETATM   16  C   UNL     1      -7.527   9.345  65.094  1.00  0.00    -0.105 C  
HETATM   17  C   UNL     1      -6.048   9.771  65.037  1.00  0.00    -0.092 C  
BRANCH  16  18
HETATM   18  C   UNL     1      -7.654   8.258  66.141  1.00  0.00    -0.085 A  
HETATM   19  C   UNL     1      -6.970   6.932  67.787  1.00  0.00    -0.083 A  
HETATM   20  C   UNL     1      -8.324   7.167  67.885  1.00  0.00    -0.118 A  
HETATM   21  N   UNL     1      -8.737   7.950  66.830  1.00  0.00    -0.127 NA 
HETATM   22  H   UNL     1      -9.693   8.236  66.622  1.00  0.00     0.000 HD 
HETATM   23  N   UNL     1      -6.562   7.602  66.660  1.00  0.00    -0.056 NA 
BRANCH  20  24
HETATM   24  C   UNL     1      -9.219   6.775  68.965  1.00  0.00    -0.136 A  
HETATM   25  C   UNL     1     -11.508   6.465  69.757  1.00  0.00    -0.468 A  
HETATM   26  C   UNL     1     -11.040   6.173  71.034  1.00  0.00    -0.359 A  
HETATM   27  C   UNL     1      -9.666   6.164  71.281  1.00  0.00    -0.196 A  
HETATM   28  C   UNL     1     -10.604   6.761  68.733  1.00  0.00    -0.258 A  
HETATM   29  C   UNL     1      -8.760   6.458  70.252  1.00  0.00    -0.143 A  
ENDBRANCH  20  24
ENDBRANCH  16  18
ENDBRANCH  13  16
BRANCH  15  30
HETATM   30  C   UNL     1     -10.326  12.048  64.572  1.00  0.00    -0.296 C  
HETATM   31  H2  UNL     1     -11.359  11.699  62.782  1.00  0.00     0.000 HD 
HETATM   32  N   UNL     1     -10.972  12.485  63.304  1.00  0.00    -0.678 NA 
HETATM   33  H1  UNL     1     -11.674  13.198  63.499  1.00  0.00     0.000 HD 
BRANCH  30  34
HETATM   34  C   UNL     1     -11.480  11.625  65.508  1.00  0.00    -0.168 C  
BRANCH  34  35
HETATM   35  C   UNL     1     -11.637  12.315  66.850  1.00  0.00    -0.427 A  
HETATM   36  C   UNL     1     -11.554  14.611  65.679  1.00  0.00    -0.328 C  
HETATM   37  C   UNL     1     -11.815  12.281  69.288  1.00  0.00    -0.363 A  
HETATM   38  C   UNL     1     -11.410  10.108  68.200  1.00  0.00    -0.171 C  
HETATM   39  C   UNL     1     -11.687  13.733  66.901  1.00  0.00    -0.424 A  
HETATM   40  C   UNL     1     -11.631  11.594  68.071  1.00  0.00    -0.383 A  
HETATM   41  C   UNL     1     -11.951  13.665  69.326  1.00  0.00    -0.384 A  
HETATM   42  C   UNL     1     -11.866  14.383  68.131  1.00  0.00    -0.362 A  
BRANCH  41  43
HETATM   43  C   UNL     1     -12.141  14.439  70.584  1.00  0.00    -0.334 C  
HETATM   44  H2  UNL     1     -11.369  16.201  69.795  1.00  0.00     0.000 HD 
HETATM   45  H1  UNL     1     -11.901  16.284  71.482  1.00  0.00     0.000 HD 
HETATM   46  N   UNL     1     -11.770  15.755  70.620  1.00  0.00    -0.353 N  
HETATM   47  O   UNL     1     -12.621  13.923  71.589  1.00  0.00    -0.333 OA 
ENDBRANCH  41  43
ENDBRANCH  34  35
ENDBRANCH  30  34
ENDBRANCH  15  30
ENDBRANCH  12  13
ENDBRANCH   6  12
ENDBRANCH   2   3
TORSDOF 10
ENDMDL
MODEL       85
REMARK 921   NORMALIZED FREE ENERGY PREDICTED BY IDOCK:   -5.07 KCAL/MOL
REMARK 922        TOTAL FREE ENERGY PREDICTED BY IDOCK:  -10.90 KCAL/MOL
REMARK 923 INTER-LIGAND FREE ENERGY PREDICTED BY IDOCK:   -9.65 KCAL/MOL
REMARK 924 INTRA-LIGAND FREE ENERGY PREDICTED BY IDOCK:   -1.25 KCAL/MOL
REMARK 927      BINDING AFFINITY PREDICTED BY RF-SCORE:    0.00 PKD
ROOT
HETATM    1  C   UNL     1     -10.129   4.656  69.783  1.00  0.00    -0.173 C  
HETATM    2  O   UNL     1     -11.120   5.679  69.673  1.00  0.00    -0.328 OA 
ENDROOT
BRANCH   2   3
HETATM    3  C   UNL     1     -10.783   6.797  68.951  1.00  0.00    -0.240 A  
HETATM    4  C   UNL     1     -10.599   6.801  67.566  1.00  0.00    -0.348 A  
HETATM    5  C   UNL     1     -10.354   7.994  66.879  1.00  0.00    -0.408 A  
HETATM    6  C   UNL     1     -10.249   9.212  67.557  1.00  0.00    -0.304 A  
HETATM    7  C   UNL     1     -10.372   9.200  68.955  1.00  0.00    -0.232 A  
HETATM    8  C   UNL     1     -10.771   8.123  71.133  1.00  0.00    -0.221 C  
HETATM    9  O   UNL     1     -11.611   7.235  71.702  1.00  0.00    -0.257 OA 
HETATM   10  C   UNL     1     -10.649   8.008  69.653  1.00  0.00    -0.223 A  
HETATM   11  O   UNL     1     -10.206   9.000  71.768  1.00  0.00    -0.328 OA 
BRANCH   6  12
HETATM   12  C   UNL     1     -10.048  10.526  66.827  1.00  0.00    -0.219 C  
BRANCH  12  13
HETATM   13  N   UNL     1      -9.242  11.538  67.534  1.00  0.00    -0.164 N  
HETATM   14  O   UNL     1      -9.102  13.556  68.660  1.00  0.00    -0.130 OA 
HETATM   15  C   UNL     1      -9.810  12.645  68.212  1.00  0.00    -0.227 C  
BRANCH  13  16
HETATM   16  C   UNL     1      -7.784  11.573  67.248  1.00  0.00    -0.150 C  
HETATM   17  C   UNL     1      -7.129  12.947  67.481  1.00  0.00    -0.153 C  
BRANCH  16  18
HETATM   18  C   UNL     1      -7.034  10.556  68.084  1.00  0.00    -0.073 A  
HETATM   19  C   UNL     1      -6.225   9.658  69.948  1.00  0.00    -0.048 A  
HETATM   20  C   UNL     1      -6.475   8.682  69.007  1.00  0.00    -0.048 A  
HETATM   21  N   UNL     1      -6.929   9.262  67.845  1.00  0.00    -0.076 NA 
HETATM   22  H   UNL     1      -7.143   8.785  66.969  1.00  0.00     0.000 HD 
HETATM   23  N   UNL     1      -6.553  10.844  69.339  1.00  0.00    -0.081 NA 
BRANCH  20  24
HETATM   24  C   UNL     1      -6.399   7.237  69.183  1.00  0.00    -0.036 A  
HETATM   25  C   UNL     1      -5.592   5.345  70.496  1.00  0.00    -0.005 A  
HETATM   26  C   UNL     1      -6.074   4.458  69.539  1.00  0.00    -0.026 A  
HETATM   27  C   UNL     1      -6.733   4.951  68.412  1.00  0.00    -0.050 A  
HETATM   28  C   UNL     1      -5.756   6.721  70.320  1.00  0.00    -0.023 A  
HETATM   29  C   UNL     1      -6.900   6.332  68.236  1.00  0.00    -0.071 A  
ENDBRANCH  20  24
ENDBRANCH  16  18
ENDBRANCH  13  16
BRANCH  15  30
HETATM   30  C   UNL     1     -11.372  12.664  68.411  1.00  0.00    -0.290 C  
HETATM   31  H2  UNL     1     -11.253  13.689  70.235  1.00  0.00     0.000 HD 
HETATM   32  N   UNL     1     -11.698  12.856  69.850  1.00  0.00    -0.485 NA 
HETATM   33  H1  UNL     1     -12.710  12.869  69.978  1.00  0.00     0.000 HD 
BRANCH  30  34
HETATM   34  C   UNL     1     -12.137  13.773  67.654  1.00  0.00    -0.333 C  
BRANCH  34  35
HETATM   35  C   UNL     1     -11.423  15.067  67.314  1.00  0.00    -0.312 A  
HETATM   36  C   UNL     1     -10.755  14.095  65.020  1.00  0.00    -0.429 C  
HETATM   37  C   UNL     1     -10.632  17.311  67.877  1.00  0.00    -0.384 A  
HETATM   38  C   UNL     1     -11.732  16.060  69.693  1.00  0.00    -0.278 C  
HETATM   39  C   UNL     1     -10.790  15.200  66.049  1.00  0.00    -0.335 A  
HETATM   40  C   UNL     1     -11.275  16.115  68.257  1.00  0.00    -0.343 A  
HETATM   41  C   UNL     1     -10.089  17.470  66.606  1.00  0.00    -0.328 A  
HETATM   42  C   UNL     1     -10.155  16.404  65.707  1.00  0.00    -0.352 A  
BRANCH  41  43
HETATM   43  C   UNL     1      -9.395  18.709  66.158  1.00  0.00    -0.156 C  
HETATM   44  H2  UNL     1     -11.101  19.891  66.288  1.00  0.00     0.000 HD 
HETATM   45  H1  UNL     1      -9.632  20.721  65.751  1.00  0.00     0.000 HD 
HETATM   46  N   UNL     1     -10.107  19.872  66.058  1.00  0.00    -0.491 N  
HETATM   47  O   UNL     1      -8.201  18.710  65.875  1.00  0.00    -0.488 OA 
ENDBRANCH  41  43
ENDBRANCH  34  35
ENDBRANCH  30  34
ENDBRANCH  15  30
ENDBRANCH  12  13
ENDBRANCH   6  12
ENDBRANCH   2   3
TORSDOF 10
ENDMDL
MODEL       86
REMARK 921   NORMALIZED FREE ENERGY PREDICTED BY IDOCK:   -5.05 KCAL/MOL
REMARK 922        TOTAL FREE ENERGY PREDICTED BY IDOCK:  -10.87 KCAL/MOL
REMARK 923 INTER-LIGAND FREE ENERGY PREDICTED BY IDOCK:  -10.74 KCAL/MOL
REMARK 924 INTRA-LIGAND FREE ENERGY PREDICTED BY IDOCK:   -0.13 KCAL/MOL
REMARK 927      BINDING AFFINITY PREDICTED BY RF-SCORE:    0.00 PKD
ROOT
HETATM    1  C   UNL     1     -11.354  15.604  65.159  1.00  0.00    -0.198 C  
HETATM    2  O   UNL     1     -12.208  14.458  65.145  1.00  0.00    -0.396 OA 
ENDROOT
BRANCH   2   3
HETATM    3  C   UNL     1     -11.808  13.376  65.890  1.00  0.00    -0.376 A  
HETATM    4  C   UNL     1     -11.906  13.313  67.283  1.00  0.00    -0.421 A  
HETATM    5  C   UNL     1     -11.574  12.142  67.971  1.00  0.00    -0.411 A  
HETATM    6  C   UNL     1     -11.100  11.013  67.297  1.00  0.00    -0.359 A  
HETATM    7  C   UNL     1     -10.943  11.097  65.905  1.00  0.00    -0.171 A  
HETATM    8  C   UNL     1     -11.104  12.226  63.722  1.00  0.00    -0.442 C  
HETATM    9  O   UNL     1     -11.971  12.979  63.016  1.00  0.00    -0.431 OA 
HETATM   10  C   UNL     1     -11.303  12.261  65.198  1.00  0.00    -0.376 A  
HETATM   11  O   UNL     1     -10.263  11.514  63.194  1.00  0.00    -0.364 OA 
BRANCH   6  12
HETATM   12  C   UNL     1     -10.794   9.714  68.015  1.00  0.00    -0.196 C  
BRANCH  12  13
HETATM   13  N   UNL     1      -9.541   9.686  68.792  1.00  0.00    -0.149 N  
HETATM   14  O   UNL     1      -8.440   9.840  70.822  1.00  0.00    -0.207 OA 
HETATM   15  C   UNL     1      -9.506   9.707  70.207  1.00  0.00    -0.248 C  
BRANCH  13  16
HETATM   16  C   UNL     1      -8.279   9.974  68.062  1.00  0.00    -0.116 C  
HETATM   17  C   UNL     1      -8.276   9.498  66.597  1.00  0.00    -0.116 C  
BRANCH  16  18
HETATM   18  C   UNL     1      -7.965  11.456  68.066  1.00  0.00    -0.127 A  
HETATM   19  C   UNL     1      -7.227  13.380  67.234  1.00  0.00    -0.006 A  
HETATM   20  C   UNL     1      -8.230  13.602  68.153  1.00  0.00    -0.158 A  
HETATM   21  N   UNL     1      -8.639  12.403  68.692  1.00  0.00    -0.361 NA 
HETATM   22  H   UNL     1      -9.330  12.272  69.431  1.00  0.00     0.000 HD 
HETATM   23  N   UNL     1      -7.047  12.019  67.211  1.00  0.00    -0.142 NA 
BRANCH  20  24
HETATM   24  C   UNL     1      -8.880  14.866  68.473  1.00  0.00    -0.174 A  
HETATM   25  C   UNL     1     -10.512  16.078  69.824  1.00  0.00    -0.300 A  
HETATM   26  C   UNL     1     -10.297  17.230  69.073  1.00  0.00    -0.330 A  
HETATM   27  C   UNL     1      -9.365  17.212  68.034  1.00  0.00    -0.254 A  
HETATM   28  C   UNL     1      -9.808  14.909  69.526  1.00  0.00    -0.071 A  
HETATM   29  C   UNL     1      -8.656  16.039  67.738  1.00  0.00    -0.168 A  
ENDBRANCH  20  24
ENDBRANCH  16  18
ENDBRANCH  13  16
BRANCH  15  30
HETATM   30  C   UNL     1     -10.865   9.520  70.980  1.00  0.00    -0.353 C  
HETATM   31  H2  UNL     1     -11.910  10.825  69.716  1.00  0.00     0.000 HD 
HETATM   32  N   UNL     1     -11.765  10.676  70.714  1.00  0.00    -0.341 NA 
HETATM   33  H1  UNL     1     -12.645  10.554  71.215  1.00  0.00     0.000 HD 
BRANCH  30  34
HETATM   34  C   UNL     1     -11.682   8.259  70.619  1.00  0.00    -0.153 C  
BRANCH  34  35
HETATM   35  C   UNL     1     -11.039   6.893  70.765  1.00  0.00    -0.317 A  
HETATM   36  C   UNL     1     -10.686   7.328  73.283  1.00  0.00    -0.428 C  
HETATM   37  C   UNL     1     -10.207   4.788  69.842  1.00  0.00    -0.238 A  
HETATM   38  C   UNL     1     -11.025   6.441  68.208  1.00  0.00    -0.396 C  
HETATM   39  C   UNL     1     -10.592   6.468  72.044  1.00  0.00    -0.244 A  
HETATM   40  C   UNL     1     -10.775   6.063  69.647  1.00  0.00    -0.405 A  
HETATM   41  C   UNL     1      -9.849   4.340  71.109  1.00  0.00    -0.250 A  
HETATM   42  C   UNL     1     -10.027   5.193  72.200  1.00  0.00    -0.238 A  
BRANCH  41  43
HETATM   43  C   UNL     1      -9.242   3.005  71.369  1.00  0.00    -0.120 C  
HETATM   44  H2  UNL     1      -8.304   3.607  73.125  1.00  0.00     0.000 HD 
HETATM   45  H1  UNL     1      -8.049   1.918  72.659  1.00  0.00     0.000 HD 
HETATM   46  N   UNL     1      -8.465   2.832  72.481  1.00  0.00    -0.070 N  
HETATM   47  O   UNL     1      -9.420   2.059  70.608  1.00  0.00    -0.120 OA 
ENDBRANCH  41  43
ENDBRANCH  34  35
ENDBRANCH  30  34
ENDBRANCH  15  30
ENDBRANCH  12  13
ENDBRANCH   6  12
ENDBRANCH   2   3
TORSDOF 10
ENDMDL
MODEL       87
REMARK 921   NORMALIZED FREE ENERGY PREDICTED BY IDOCK:   -5.04 KCAL/MOL
REMARK 922        TOTAL FREE ENERGY PREDICTED BY IDOCK:  -10.86 KCAL/MOL
REMARK 923 INTER-LIGAND FREE ENERGY PREDICTED BY IDOCK:  -11.20 KCAL/MOL
REMARK 924 INTRA-LIGAND FREE ENERGY PREDICTED BY IDOCK:    0.34 KCAL/MOL
REMARK 927      BINDING AFFINITY PREDICTED BY RF-SCORE:    0.00 PKD
ROOT
HETATM    1  C   UNL     1     -12.919  14.672  73.305  1.00  0.00    -0.457 C  
HETATM    2  O   UNL     1     -13.667  14.089  72.237  1.00  0.00    -0.453 OA 
ENDROOT
BRANCH   2   3
HETATM    3  C   UNL     1     -13.044  13.110  71.503  1.00  0.00    -0.315 A  
HETATM    4  C   UNL     1     -13.141  11.745  71.787  1.00  0.00    -0.480 A  
HETATM    5  C   UNL     1     -12.562  10.795  70.940  1.00  0.00    -0.498 A  
HETATM    6  C   UNL     1     -11.839  11.177  69.807  1.00  0.00    -0.422 A  
HETATM    7  C   UNL     1     -11.688  12.550  69.556  1.00  0.00    -0.375 A  
HETATM    8  C   UNL     1     -12.073  14.939  70.009  1.00  0.00    -0.338 C  
HETATM    9  O   UNL     1     -13.079  15.773  70.341  1.00  0.00    -0.399 OA 
HETATM   10  C   UNL     1     -12.293  13.514  70.385  1.00  0.00    -0.397 A  
HETATM   11  O   UNL     1     -11.088  15.305  69.386  1.00  0.00    -0.248 OA 
BRANCH   6  12
HETATM   12  C   UNL     1     -11.257  10.163  68.842  1.00  0.00    -0.170 C  
BRANCH  12  13
HETATM   13  N   UNL     1      -9.800   9.957  68.924  1.00  0.00    -0.168 N  
HETATM   14  O   UNL     1      -7.709  10.026  67.934  1.00  0.00    -0.089 OA 
HETATM   15  C   UNL     1      -8.902  10.352  67.903  1.00  0.00    -0.125 C  
BRANCH  13  16
HETATM   16  C   UNL     1      -9.301   9.017  69.962  1.00  0.00    -0.183 C  
HETATM   17  C   UNL     1      -9.935   9.218  71.351  1.00  0.00    -0.323 C  
BRANCH  16  18
HETATM   18  C   UNL     1      -9.528   7.576  69.555  1.00  0.00    -0.156 A  
HETATM   19  C   UNL     1     -10.664   5.677  69.350  1.00  0.00    -0.295 A  
HETATM   20  C   UNL     1      -9.750   5.809  68.326  1.00  0.00    -0.129 A  
HETATM   21  N   UNL     1      -9.025   6.966  68.498  1.00  0.00    -0.123 NA 
HETATM   22  H   UNL     1      -8.249   7.290  67.920  1.00  0.00     0.000 HD 
HETATM   23  N   UNL     1     -10.491   6.787  70.140  1.00  0.00    -0.202 NA 
BRANCH  20  24
HETATM   24  C   UNL     1      -9.597   4.956  67.155  1.00  0.00    -0.175 A  
HETATM   25  C   UNL     1     -10.472   4.209  65.002  1.00  0.00    -0.187 A  
HETATM   26  C   UNL     1      -9.471   3.247  64.914  1.00  0.00    -0.151 A  
HETATM   27  C   UNL     1      -8.522   3.144  65.932  1.00  0.00    -0.109 A  
HETATM   28  C   UNL     1     -10.532   5.056  66.112  1.00  0.00    -0.334 A  
HETATM   29  C   UNL     1      -8.580   3.996  67.044  1.00  0.00    -0.105 A  
ENDBRANCH  20  24
ENDBRANCH  16  18
ENDBRANCH  13  16
BRANCH  15  30
HETATM   30  C   UNL     1      -9.462  11.253  66.738  1.00  0.00    -0.179 C  
HETATM   31  H2  UNL     1     -11.150  10.044  66.445  1.00  0.00     0.000 HD 
HETATM   32  N   UNL     1     -10.402  10.466  65.894  1.00  0.00    -0.225 NA 
HETATM   33  H1  UNL     1     -10.764  11.049  65.140  1.00  0.00     0.000 HD 
BRANCH  30  34
HETATM   34  C   UNL     1     -10.242  12.514  67.172  1.00  0.00    -0.225 C  
BRANCH  34  35
HETATM   35  C   UNL     1      -9.631  13.882  66.931  1.00  0.00    -0.271 A  
HETATM   36  C   UNL     1     -11.371  14.332  65.081  1.00  0.00    -0.345 C  
HETATM   37  C   UNL     1      -7.941  15.597  67.352  1.00  0.00    -0.204 A  
HETATM   38  C   UNL     1      -7.627  13.454  68.525  1.00  0.00    -0.127 C  
HETATM   39  C   UNL     1     -10.199  14.732  65.945  1.00  0.00    -0.331 A  
HETATM   40  C   UNL     1      -8.447  14.303  67.587  1.00  0.00    -0.185 A  
HETATM   41  C   UNL     1      -8.551  16.461  66.448  1.00  0.00    -0.358 A  
HETATM   42  C   UNL     1      -9.665  16.013  65.735  1.00  0.00    -0.340 A  
BRANCH  41  43
HETATM   43  C   UNL     1      -8.054  17.835  66.160  1.00  0.00    -0.181 C  
HETATM   44  H2  UNL     1      -9.581  18.771  67.217  1.00  0.00     0.000 HD 
HETATM   45  H1  UNL     1      -8.399  19.850  66.459  1.00  0.00     0.000 HD 
HETATM   46  N   UNL     1      -8.740  18.909  66.656  1.00  0.00    -0.302 N  
HETATM   47  O   UNL     1      -7.045  18.026  65.487  1.00  0.00    -0.515 OA 
ENDBRANCH  41  43
ENDBRANCH  34  35
ENDBRANCH  30  34
ENDBRANCH  15  30
ENDBRANCH  12  13
ENDBRANCH   6  12
ENDBRANCH   2   3
TORSDOF 10
ENDMDL
MODEL       88
REMARK 921   NORMALIZED FREE ENERGY PREDICTED BY IDOCK:   -5.03 KCAL/MOL
REMARK 922        TOTAL FREE ENERGY PREDICTED BY IDOCK:  -10.84 KCAL/MOL
REMARK 923 INTER-LIGAND FREE ENERGY PREDICTED BY IDOCK:  -10.03 KCAL/MOL
REMARK 924 INTRA-LIGAND FREE ENERGY PREDICTED BY IDOCK:   -0.82 KCAL/MOL
REMARK 927      BINDING AFFINITY PREDICTED BY RF-SCORE:    0.00 PKD
ROOT
HETATM    1  C   UNL     1      -9.418   2.574  67.827  1.00  0.00    -0.107 C  
HETATM    2  O   UNL     1      -8.951   3.261  66.665  1.00  0.00    -0.135 OA 
ENDROOT
BRANCH   2   3
HETATM    3  C   UNL     1      -9.269   4.592  66.559  1.00  0.00    -0.137 A  
HETATM    4  C   UNL     1     -10.500   5.129  66.943  1.00  0.00    -0.280 A  
HETATM    5  C   UNL     1     -10.724   6.509  66.901  1.00  0.00    -0.403 A  
HETATM    6  C   UNL     1      -9.742   7.390  66.440  1.00  0.00    -0.163 A  
HETATM    7  C   UNL     1      -8.527   6.845  65.996  1.00  0.00    -0.140 A  
HETATM    8  C   UNL     1      -6.949   5.002  65.574  1.00  0.00    -0.062 C  
HETATM    9  O   UNL     1      -6.473   3.897  66.184  1.00  0.00    -0.035 OA 
HETATM   10  C   UNL     1      -8.280   5.460  66.063  1.00  0.00    -0.116 A  
HETATM   11  O   UNL     1      -6.313   5.622  64.737  1.00  0.00    -0.034 OA 
BRANCH   6  12
HETATM   12  C   UNL     1      -9.939   8.893  66.445  1.00  0.00    -0.284 C  
BRANCH  12  13
HETATM   13  N   UNL     1      -9.890   9.544  67.767  1.00  0.00    -0.154 N  
HETATM   14  O   UNL     1     -10.189  11.424  69.085  1.00  0.00    -0.169 OA 
HETATM   15  C   UNL     1     -10.385  10.849  68.006  1.00  0.00    -0.185 C  
BRANCH  13  16
HETATM   16  C   UNL     1      -9.003   8.939  68.794  1.00  0.00    -0.134 C  
HETATM   17  C   UNL     1      -8.119   9.956  69.540  1.00  0.00    -0.155 C  
BRANCH  16  18
HETATM   18  C   UNL     1      -9.800   8.174  69.830  1.00  0.00    -0.187 A  
HETATM   19  C   UNL     1     -11.622   7.300  70.753  1.00  0.00    -0.302 A  
HETATM   20  C   UNL     1     -10.508   6.556  71.079  1.00  0.00    -0.222 A  
HETATM   21  N   UNL     1      -9.385   7.140  70.539  1.00  0.00    -0.159 NA 
HETATM   22  H   UNL     1      -8.420   6.834  70.661  1.00  0.00     0.000 HD 
HETATM   23  N   UNL     1     -11.156   8.340  69.988  1.00  0.00    -0.200 NA 
BRANCH  20  24
HETATM   24  C   UNL     1     -10.464   5.282  71.785  1.00  0.00    -0.278 A  
HETATM   25  C   UNL     1     -10.801   4.048  73.864  1.00  0.00    -0.316 A  
HETATM   26  C   UNL     1     -10.281   2.897  73.280  1.00  0.00    -0.209 A  
HETATM   27  C   UNL     1      -9.868   2.926  71.948  1.00  0.00    -0.234 A  
HETATM   28  C   UNL     1     -10.893   5.228  73.122  1.00  0.00    -0.339 A  
HETATM   29  C   UNL     1      -9.963   4.110  71.202  1.00  0.00    -0.211 A  
ENDBRANCH  20  24
ENDBRANCH  16  18
ENDBRANCH  13  16
BRANCH  15  30
HETATM   30  C   UNL     1     -11.228  11.537  66.867  1.00  0.00    -0.298 C  
HETATM   31  H2  UNL     1     -11.602  13.255  68.009  1.00  0.00     0.000 HD 
HETATM   32  N   UNL     1     -12.120  12.575  67.452  1.00  0.00    -0.455 NA 
HETATM   33  H1  UNL     1     -12.666  13.021  66.714  1.00  0.00     0.000 HD 
BRANCH  30  34
HETATM   34  C   UNL     1     -10.418  12.252  65.763  1.00  0.00    -0.287 C  
BRANCH  34  35
HETATM   35  C   UNL     1     -10.212  13.753  65.849  1.00  0.00    -0.322 A  
HETATM   36  C   UNL     1     -12.116  14.111  64.146  1.00  0.00    -0.437 C  
HETATM   37  C   UNL     1      -9.022  15.727  66.663  1.00  0.00    -0.313 A  
HETATM   38  C   UNL     1      -8.075  13.546  67.308  1.00  0.00    -0.141 C  
HETATM   39  C   UNL     1     -11.045  14.613  65.084  1.00  0.00    -0.382 A  
HETATM   40  C   UNL     1      -9.147  14.325  66.588  1.00  0.00    -0.249 A  
HETATM   41  C   UNL     1      -9.894  16.569  65.981  1.00  0.00    -0.348 A  
HETATM   42  C   UNL     1     -10.888  16.004  65.179  1.00  0.00    -0.411 A  
BRANCH  41  43
HETATM   43  C   UNL     1      -9.802  18.055  66.022  1.00  0.00    -0.169 C  
HETATM   44  H2  UNL     1      -7.956  18.064  66.979  1.00  0.00     0.000 HD 
HETATM   45  H1  UNL     1      -8.640  19.657  66.617  1.00  0.00     0.000 HD 
HETATM   46  N   UNL     1      -8.703  18.639  66.589  1.00  0.00    -0.294 N  
HETATM   47  O   UNL     1     -10.689  18.767  65.560  1.00  0.00    -0.569 OA 
ENDBRANCH  41  43
ENDBRANCH  34  35
ENDBRANCH  30  34
ENDBRANCH  15  30
ENDBRANCH  12  13
ENDBRANCH   6  12
ENDBRANCH   2   3
TORSDOF 10
ENDMDL
MODEL       89
REMARK 921   NORMALIZED FREE ENERGY PREDICTED BY IDOCK:   -5.01 KCAL/MOL
REMARK 922        TOTAL FREE ENERGY PREDICTED BY IDOCK:  -10.82 KCAL/MOL
REMARK 923 INTER-LIGAND FREE ENERGY PREDICTED BY IDOCK:   -9.93 KCAL/MOL
REMARK 924 INTRA-LIGAND FREE ENERGY PREDICTED BY IDOCK:   -0.89 KCAL/MOL
REMARK 927      BINDING AFFINITY PREDICTED BY RF-SCORE:    0.00 PKD
ROOT
HETATM    1  C   UNL     1     -10.044   4.504  69.984  1.00  0.00    -0.134 C  
HETATM    2  O   UNL     1     -11.058   5.510  69.937  1.00  0.00    -0.260 OA 
ENDROOT
BRANCH   2   3
HETATM    3  C   UNL     1     -10.810   6.607  69.150  1.00  0.00    -0.283 A  
HETATM    4  C   UNL     1     -10.715   6.558  67.757  1.00  0.00    -0.368 A  
HETATM    5  C   UNL     1     -10.560   7.729  67.008  1.00  0.00    -0.396 A  
HETATM    6  C   UNL     1     -10.458   8.978  67.627  1.00  0.00    -0.324 A  
HETATM    7  C   UNL     1     -10.492   9.021  69.030  1.00  0.00    -0.235 A  
HETATM    8  C   UNL     1     -10.711   8.025  71.271  1.00  0.00    -0.229 C  
HETATM    9  O   UNL     1     -11.478   7.133  71.928  1.00  0.00    -0.255 OA 
HETATM   10  C   UNL     1     -10.678   7.851  69.792  1.00  0.00    -0.233 A  
HETATM   11  O   UNL     1     -10.141   8.948  71.832  1.00  0.00    -0.321 OA 
BRANCH   6  12
HETATM   12  C   UNL     1     -10.354  10.265  66.834  1.00  0.00    -0.239 C  
BRANCH  12  13
HETATM   13  N   UNL     1      -9.373  11.249  67.328  1.00  0.00    -0.165 N  
HETATM   14  O   UNL     1      -8.907  13.310  68.272  1.00  0.00    -0.179 OA 
HETATM   15  C   UNL     1      -9.741  12.434  68.009  1.00  0.00    -0.210 C  
BRANCH  13  16
HETATM   16  C   UNL     1      -7.984  11.149  66.808  1.00  0.00    -0.156 C  
HETATM   17  C   UNL     1      -7.064  12.304  67.246  1.00  0.00    -0.138 C  
BRANCH  16  18
HETATM   18  C   UNL     1      -7.329   9.851  67.232  1.00  0.00    -0.087 A  
HETATM   19  C   UNL     1      -6.680   8.271  68.653  1.00  0.00    -0.059 A  
HETATM   20  C   UNL     1      -6.900   7.737  67.401  1.00  0.00    -0.069 A  
HETATM   21  N   UNL     1      -7.253   8.739  66.525  1.00  0.00    -0.080 NA 
HETATM   22  H   UNL     1      -7.425   8.640  65.525  1.00  0.00     0.000 HD 
HETATM   23  N   UNL     1      -6.924   9.616  68.525  1.00  0.00    -0.064 NA 
BRANCH  20  24
HETATM   24  C   UNL     1      -6.887   6.332  67.019  1.00  0.00    -0.062 A  
HETATM   25  C   UNL     1      -7.687   4.581  65.517  1.00  0.00    -0.090 A  
HETATM   26  C   UNL     1      -7.045   3.613  66.282  1.00  0.00    -0.063 A  
HETATM   27  C   UNL     1      -6.309   3.997  67.405  1.00  0.00    -0.037 A  
HETATM   28  C   UNL     1      -7.607   5.927  65.882  1.00  0.00    -0.086 A  
HETATM   29  C   UNL     1      -6.226   5.349  67.769  1.00  0.00    -0.038 A  
ENDBRANCH  20  24
ENDBRANCH  16  18
ENDBRANCH  13  16
BRANCH  15  30
HETATM   30  C   UNL     1     -11.243  12.591  68.456  1.00  0.00    -0.283 C  
HETATM   31  H2  UNL     1     -10.743  13.582  70.234  1.00  0.00     0.000 HD 
HETATM   32  N   UNL     1     -11.317  12.796  69.928  1.00  0.00    -0.504 NA 
HETATM   33  H1  UNL     1     -12.290  12.897  70.217  1.00  0.00     0.000 HD 
BRANCH  30  34
HETATM   34  C   UNL     1     -12.018  13.771  67.827  1.00  0.00    -0.391 C  
BRANCH  34  35
HETATM   35  C   UNL     1     -11.293  15.077  67.565  1.00  0.00    -0.340 A  
HETATM   36  C   UNL     1     -11.897  15.890  69.937  1.00  0.00    -0.309 C  
HETATM   37  C   UNL     1     -10.062  16.611  66.112  1.00  0.00    -0.361 A  
HETATM   38  C   UNL     1     -10.889  14.544  65.056  1.00  0.00    -0.425 C  
HETATM   39  C   UNL     1     -11.235  16.059  68.591  1.00  0.00    -0.366 A  
HETATM   40  C   UNL     1     -10.757  15.398  66.292  1.00  0.00    -0.312 A  
HETATM   41  C   UNL     1      -9.933  17.533  67.146  1.00  0.00    -0.314 A  
HETATM   42  C   UNL     1     -10.539  17.257  68.374  1.00  0.00    -0.368 A  
BRANCH  41  43
HETATM   43  C   UNL     1      -9.215  18.830  67.006  1.00  0.00    -0.294 C  
HETATM   44  H2  UNL     1      -9.997  19.624  68.762  1.00  0.00     0.000 HD 
HETATM   45  H1  UNL     1      -8.894  20.681  67.866  1.00  0.00     0.000 HD 
HETATM   46  N   UNL     1      -9.386  19.792  67.962  1.00  0.00    -0.347 N  
HETATM   47  O   UNL     1      -8.475  19.056  66.053  1.00  0.00    -0.455 OA 
ENDBRANCH  41  43
ENDBRANCH  34  35
ENDBRANCH  30  34
ENDBRANCH  15  30
ENDBRANCH  12  13
ENDBRANCH   6  12
ENDBRANCH   2   3
TORSDOF 10
ENDMDL
MODEL       90
REMARK 921   NORMALIZED FREE ENERGY PREDICTED BY IDOCK:   -5.01 KCAL/MOL
REMARK 922        TOTAL FREE ENERGY PREDICTED BY IDOCK:  -10.82 KCAL/MOL
REMARK 923 INTER-LIGAND FREE ENERGY PREDICTED BY IDOCK:  -10.71 KCAL/MOL
REMARK 924 INTRA-LIGAND FREE ENERGY PREDICTED BY IDOCK:   -0.10 KCAL/MOL
REMARK 927      BINDING AFFINITY PREDICTED BY RF-SCORE:    0.00 PKD
ROOT
HETATM    1  C   UNL     1     -11.422   8.001  72.482  1.00  0.00    -0.409 C  
HETATM    2  O   UNL     1     -10.159   8.614  72.218  1.00  0.00    -0.311 OA 
ENDROOT
BRANCH   2   3
HETATM    3  C   UNL     1     -10.055   9.350  71.064  1.00  0.00    -0.283 A  
HETATM    4  C   UNL     1     -11.141   9.958  70.429  1.00  0.00    -0.382 A  
HETATM    5  C   UNL     1     -10.951  10.777  69.312  1.00  0.00    -0.292 A  
HETATM    6  C   UNL     1      -9.678  10.984  68.772  1.00  0.00    -0.199 A  
HETATM    7  C   UNL     1      -8.595  10.324  69.371  1.00  0.00    -0.167 A  
HETATM    8  C   UNL     1      -7.544   8.883  71.070  1.00  0.00    -0.118 C  
HETATM    9  O   UNL     1      -7.564   8.685  72.404  1.00  0.00    -0.296 OA 
HETATM   10  C   UNL     1      -8.771   9.521  70.516  1.00  0.00    -0.247 A  
HETATM   11  O   UNL     1      -6.573   8.626  70.377  1.00  0.00    -0.035 OA 
BRANCH   6  12
HETATM   12  C   UNL     1      -9.441  11.917  67.600  1.00  0.00    -0.182 C  
BRANCH  12  13
HETATM   13  N   UNL     1     -10.482  11.919  66.557  1.00  0.00    -0.216 N  
HETATM   14  O   UNL     1     -11.178  11.356  64.422  1.00  0.00    -0.304 OA 
HETATM   15  C   UNL     1     -10.359  11.208  65.339  1.00  0.00    -0.271 C  
BRANCH  13  16
HETATM   16  C   UNL     1     -11.541  12.957  66.651  1.00  0.00    -0.372 C  
HETATM   17  C   UNL     1     -11.991  13.268  68.091  1.00  0.00    -0.340 C  
BRANCH  16  18
HETATM   18  C   UNL     1     -11.097  14.258  66.015  1.00  0.00    -0.319 A  
HETATM   19  C   UNL     1     -11.266  16.037  64.694  1.00  0.00    -0.330 A  
HETATM   20  C   UNL     1     -10.484  16.321  65.794  1.00  0.00    -0.364 A  
HETATM   21  N   UNL     1     -10.352  15.194  66.573  1.00  0.00    -0.275 NA 
HETATM   22  H   UNL     1      -9.789  15.101  67.419  1.00  0.00     0.000 HD 
HETATM   23  N   UNL     1     -11.621  14.717  64.830  1.00  0.00    -0.409 NA 
BRANCH  20  24
HETATM   24  C   UNL     1      -9.943  17.615  66.190  1.00  0.00    -0.281 A  
HETATM   25  C   UNL     1      -7.982  18.989  66.660  1.00  0.00    -0.282 A  
HETATM   26  C   UNL     1      -8.799  20.033  67.083  1.00  0.00    -0.429 A  
HETATM   27  C   UNL     1     -10.186  19.882  67.046  1.00  0.00    -0.588 A  
HETATM   28  C   UNL     1      -8.550  17.793  66.217  1.00  0.00    -0.217 A  
HETATM   29  C   UNL     1     -10.756  18.682  66.597  1.00  0.00    -0.316 A  
ENDBRANCH  20  24
ENDBRANCH  16  18
ENDBRANCH  13  16
BRANCH  15  30
HETATM   30  C   UNL     1      -9.164  10.193  65.196  1.00  0.00    -0.213 C  
HETATM   31  H2  UNL     1      -7.739  11.583  65.853  1.00  0.00     0.000 HD 
HETATM   32  N   UNL     1      -7.878  10.935  65.078  1.00  0.00    -0.354 NA 
HETATM   33  H1  UNL     1      -7.104  10.277  64.986  1.00  0.00     0.000 HD 
BRANCH  30  34
HETATM   34  C   UNL     1      -8.972   9.202  66.366  1.00  0.00    -0.182 C  
BRANCH  34  35
HETATM   35  C   UNL     1      -9.030   7.711  66.091  1.00  0.00    -0.197 A  
HETATM   36  C   UNL     1     -10.924   7.465  67.824  1.00  0.00    -0.099 C  
HETATM   37  C   UNL     1      -8.218   5.684  64.991  1.00  0.00    -0.137 A  
HETATM   38  C   UNL     1      -6.926   7.739  64.570  1.00  0.00    -0.060 C  
HETATM   39  C   UNL     1      -9.979   6.913  66.784  1.00  0.00    -0.248 A  
HETATM   40  C   UNL     1      -8.098   7.066  65.239  1.00  0.00    -0.134 A  
HETATM   41  C   UNL     1      -9.205   4.921  65.607  1.00  0.00    -0.159 A  
HETATM   42  C   UNL     1     -10.067   5.539  66.515  1.00  0.00    -0.241 A  
BRANCH  41  43
HETATM   43  C   UNL     1      -9.372   3.457  65.384  1.00  0.00    -0.153 C  
HETATM   44  H2  UNL     1     -10.168   3.687  63.476  1.00  0.00     0.000 HD 
HETATM   45  H1  UNL     1     -10.009   2.017  64.046  1.00  0.00     0.000 HD 
HETATM   46  N   UNL     1      -9.895   3.019  64.199  1.00  0.00    -0.156 N  
HETATM   47  O   UNL     1      -9.051   2.636  66.238  1.00  0.00    -0.147 OA 
ENDBRANCH  41  43
ENDBRANCH  34  35
ENDBRANCH  30  34
ENDBRANCH  15  30
ENDBRANCH  12  13
ENDBRANCH   6  12
ENDBRANCH   2   3
TORSDOF 10
ENDMDL
MODEL       91
REMARK 921   NORMALIZED FREE ENERGY PREDICTED BY IDOCK:   -5.01 KCAL/MOL
REMARK 922        TOTAL FREE ENERGY PREDICTED BY IDOCK:  -10.81 KCAL/MOL
REMARK 923 INTER-LIGAND FREE ENERGY PREDICTED BY IDOCK:  -10.42 KCAL/MOL
REMARK 924 INTRA-LIGAND FREE ENERGY PREDICTED BY IDOCK:   -0.39 KCAL/MOL
REMARK 927      BINDING AFFINITY PREDICTED BY RF-SCORE:    0.00 PKD
ROOT
HETATM    1  C   UNL     1      -8.505   7.840  72.153  1.00  0.00    -0.125 C  
HETATM    2  O   UNL     1      -9.539   8.617  71.547  1.00  0.00    -0.205 OA 
ENDROOT
BRANCH   2   3
HETATM    3  C   UNL     1      -9.162   9.493  70.559  1.00  0.00    -0.225 A  
HETATM    4  C   UNL     1      -7.847   9.635  70.107  1.00  0.00    -0.185 A  
HETATM    5  C   UNL     1      -7.547  10.473  69.029  1.00  0.00    -0.117 A  
HETATM    6  C   UNL     1      -8.541  11.222  68.394  1.00  0.00    -0.155 A  
HETATM    7  C   UNL     1      -9.852  11.127  68.887  1.00  0.00    -0.176 A  
HETATM    8  C   UNL     1     -11.598  10.238  70.379  1.00  0.00    -0.328 C  
HETATM    9  O   UNL     1     -12.017   9.059  70.881  1.00  0.00    -0.282 OA 
HETATM   10  C   UNL     1     -10.170  10.263  69.952  1.00  0.00    -0.250 A  
HETATM   11  O   UNL     1     -12.343  11.192  70.218  1.00  0.00    -0.309 OA 
BRANCH   6  12
HETATM   12  C   UNL     1      -8.249  12.088  67.184  1.00  0.00    -0.181 C  
BRANCH  12  13
HETATM   13  N   UNL     1      -9.027  13.336  67.083  1.00  0.00    -0.221 N  
HETATM   14  O   UNL     1     -10.756  14.547  66.133  1.00  0.00    -0.298 OA 
HETATM   15  C   UNL     1     -10.215  13.450  66.322  1.00  0.00    -0.298 C  
BRANCH  13  16
HETATM   16  C   UNL     1      -8.365  14.591  67.527  1.00  0.00    -0.188 C  
HETATM   17  C   UNL     1      -8.025  15.563  66.382  1.00  0.00     0.159 C  
BRANCH  16  18
HETATM   18  C   UNL     1      -9.218  15.339  68.530  1.00  0.00    -0.200 A  
HETATM   19  C   UNL     1     -10.709  16.839  69.212  1.00  0.00    -0.324 A  
HETATM   20  C   UNL     1     -10.699  15.747  70.054  1.00  0.00    -0.341 A  
HETATM   21  N   UNL     1      -9.737  14.852  69.642  1.00  0.00    -0.438 NA 
HETATM   22  H   UNL     1      -9.476  13.982  70.107  1.00  0.00     0.000 HD 
HETATM   23  N   UNL     1      -9.743  16.583  68.270  1.00  0.00    -0.226 NA 
BRANCH  20  24
HETATM   24  C   UNL     1     -11.610  15.464  71.155  1.00  0.00    -0.425 A  
HETATM   25  C   UNL     1     -13.352  14.036  72.095  1.00  0.00    -0.545 A  
HETATM   26  C   UNL     1     -13.508  14.909  73.167  1.00  0.00    -0.398 A  
HETATM   27  C   UNL     1     -12.709  16.050  73.249  1.00  0.00    -0.644 A  
HETATM   28  C   UNL     1     -12.411  14.311  71.100  1.00  0.00    -0.440 A  
HETATM   29  C   UNL     1     -11.761  16.325  72.252  1.00  0.00    -0.530 A  
ENDBRANCH  20  24
ENDBRANCH  16  18
ENDBRANCH  13  16
BRANCH  15  30
HETATM   30  C   UNL     1     -10.853  12.128  65.751  1.00  0.00    -0.281 C  
HETATM   31  H2  UNL     1     -12.501  13.128  64.929  1.00  0.00     0.000 HD 
HETATM   32  N   UNL     1     -12.311  12.323  65.525  1.00  0.00    -0.566 NA 
HETATM   33  H1  UNL     1     -12.723  11.467  65.155  1.00  0.00     0.000 HD 
BRANCH  30  34
HETATM   34  C   UNL     1     -10.282  11.627  64.405  1.00  0.00    -0.346 C  
BRANCH  34  35
HETATM   35  C   UNL     1      -9.418  10.380  64.385  1.00  0.00    -0.343 A  
HETATM   36  C   UNL     1     -10.661   9.485  66.460  1.00  0.00    -0.133 C  
HETATM   37  C   UNL     1      -7.583   9.039  63.485  1.00  0.00    -0.111 A  
HETATM   38  C   UNL     1      -7.865  11.283  62.510  1.00  0.00     0.104 C  
HETATM   39  C   UNL     1      -9.631   9.370  65.361  1.00  0.00    -0.296 A  
HETATM   40  C   UNL     1      -8.332  10.232  63.485  1.00  0.00    -0.169 A  
HETATM   41  C   UNL     1      -7.851   8.014  64.388  1.00  0.00    -0.139 A  
HETATM   42  C   UNL     1      -8.863   8.197  65.333  1.00  0.00    -0.086 A  
BRANCH  41  43
HETATM   43  C   UNL     1      -7.087   6.737  64.433  1.00  0.00    -0.061 C  
HETATM   44  H2  UNL     1      -5.756   7.307  62.940  1.00  0.00     0.000 HD 
HETATM   45  H1  UNL     1      -5.499   5.692  63.622  1.00  0.00     0.000 HD 
HETATM   46  N   UNL     1      -6.023   6.567  63.591  1.00  0.00    -0.029 N  
HETATM   47  O   UNL     1      -7.390   5.834  65.207  1.00  0.00    -0.071 OA 
ENDBRANCH  41  43
ENDBRANCH  34  35
ENDBRANCH  30  34
ENDBRANCH  15  30
ENDBRANCH  12  13
ENDBRANCH   6  12
ENDBRANCH   2   3
TORSDOF 10
ENDMDL
MODEL       92
REMARK 921   NORMALIZED FREE ENERGY PREDICTED BY IDOCK:   -4.99 KCAL/MOL
REMARK 922        TOTAL FREE ENERGY PREDICTED BY IDOCK:  -10.78 KCAL/MOL
REMARK 923 INTER-LIGAND FREE ENERGY PREDICTED BY IDOCK:   -9.74 KCAL/MOL
REMARK 924 INTRA-LIGAND FREE ENERGY PREDICTED BY IDOCK:   -1.04 KCAL/MOL
REMARK 927      BINDING AFFINITY PREDICTED BY RF-SCORE:    0.00 PKD
ROOT
HETATM    1  C   UNL     1     -12.910  12.047  63.484  1.00  0.00    -0.341 C  
HETATM    2  O   UNL     1     -12.502  12.264  64.836  1.00  0.00    -0.500 OA 
ENDROOT
BRANCH   2   3
HETATM    3  C   UNL     1     -11.253  11.816  65.187  1.00  0.00    -0.250 A  
HETATM    4  C   UNL     1     -10.523  10.885  64.443  1.00  0.00    -0.403 A  
HETATM    5  C   UNL     1      -9.215  10.547  64.804  1.00  0.00    -0.266 A  
HETATM    6  C   UNL     1      -8.609  11.098  65.937  1.00  0.00    -0.135 A  
HETATM    7  C   UNL     1      -9.364  11.986  66.720  1.00  0.00    -0.206 A  
HETATM    8  C   UNL     1     -11.367  13.316  67.250  1.00  0.00    -0.314 C  
HETATM    9  O   UNL     1     -12.255  14.125  66.638  1.00  0.00    -0.448 OA 
HETATM   10  C   UNL     1     -10.671  12.357  66.348  1.00  0.00    -0.277 A  
HETATM   11  O   UNL     1     -11.099  13.406  68.439  1.00  0.00    -0.249 OA 
BRANCH   6  12
HETATM   12  C   UNL     1      -7.172  10.795  66.312  1.00  0.00    -0.137 C  
BRANCH  12  13
HETATM   13  N   UNL     1      -6.964  10.211  67.650  1.00  0.00    -0.084 N  
HETATM   14  O   UNL     1      -5.997  10.312  69.750  1.00  0.00    -0.042 OA 
HETATM   15  C   UNL     1      -6.290  10.888  68.694  1.00  0.00    -0.050 C  
BRANCH  13  16
HETATM   16  C   UNL     1      -7.182   8.748  67.798  1.00  0.00    -0.084 C  
HETATM   17  C   UNL     1      -5.908   7.953  68.139  1.00  0.00    -0.040 C  
BRANCH  16  18
HETATM   18  C   UNL     1      -8.213   8.450  68.867  1.00  0.00    -0.115 A  
HETATM   19  C   UNL     1      -8.937   7.855  70.882  1.00  0.00    -0.143 A  
HETATM   20  C   UNL     1      -9.829   8.717  70.281  1.00  0.00    -0.175 A  
HETATM   21  N   UNL     1      -9.386   9.035  69.017  1.00  0.00    -0.140 NA 
HETATM   22  H   UNL     1      -9.871   9.612  68.329  1.00  0.00     0.000 HD 
HETATM   23  N   UNL     1      -7.933   7.668  69.964  1.00  0.00    -0.112 NA 
BRANCH  20  24
HETATM   24  C   UNL     1     -11.014   9.325  70.871  1.00  0.00    -0.368 A  
HETATM   25  C   UNL     1     -12.922   9.117  72.379  1.00  0.00    -0.468 A  
HETATM   26  C   UNL     1     -13.402  10.355  71.965  1.00  0.00    -0.440 A  
HETATM   27  C   UNL     1     -12.686  11.091  71.019  1.00  0.00    -0.485 A  
HETATM   28  C   UNL     1     -11.738   8.609  71.838  1.00  0.00    -0.422 A  
HETATM   29  C   UNL     1     -11.496  10.582  70.478  1.00  0.00    -0.433 A  
ENDBRANCH  20  24
ENDBRANCH  16  18
ENDBRANCH  13  16
BRANCH  15  30
HETATM   30  C   UNL     1      -5.954  12.413  68.487  1.00  0.00    -0.055 C  
HETATM   31  H2  UNL     1      -6.101  12.291  66.400  1.00  0.00     0.000 HD 
HETATM   32  N   UNL     1      -5.451  12.639  67.104  1.00  0.00    -0.340 NA 
HETATM   33  H1  UNL     1      -5.233  13.626  66.971  1.00  0.00     0.000 HD 
BRANCH  30  34
HETATM   34  C   UNL     1      -7.129  13.398  68.673  1.00  0.00    -0.106 C  
BRANCH  34  35
HETATM   35  C   UNL     1      -6.841  14.883  68.783  1.00  0.00    -0.102 A  
HETATM   36  C   UNL     1      -5.763  14.503  71.095  1.00  0.00    -0.147 C  
HETATM   37  C   UNL     1      -6.981  17.178  67.951  1.00  0.00    -0.173 A  
HETATM   38  C   UNL     1      -8.176  15.472  66.635  1.00  0.00    -0.244 C  
HETATM   39  C   UNL     1      -6.174  15.379  69.935  1.00  0.00    -0.160 A  
HETATM   40  C   UNL     1      -7.306  15.813  67.819  1.00  0.00    -0.167 A  
HETATM   41  C   UNL     1      -6.252  17.647  69.039  1.00  0.00    -0.213 A  
HETATM   42  C   UNL     1      -5.871  16.745  70.035  1.00  0.00    -0.210 A  
BRANCH  41  43
HETATM   43  C   UNL     1      -5.887  19.079  69.229  1.00  0.00    -0.233 C  
HETATM   44  H2  UNL     1      -4.815  19.196  67.451  1.00  0.00     0.000 HD 
HETATM   45  H1  UNL     1      -4.878  20.684  68.409  1.00  0.00     0.000 HD 
HETATM   46  N   UNL     1      -5.128  19.704  68.279  1.00  0.00    -0.186 N  
HETATM   47  O   UNL     1      -6.250  19.709  70.217  1.00  0.00    -0.282 OA 
ENDBRANCH  41  43
ENDBRANCH  34  35
ENDBRANCH  30  34
ENDBRANCH  15  30
ENDBRANCH  12  13
ENDBRANCH   6  12
ENDBRANCH   2   3
TORSDOF 10
ENDMDL
MODEL       93
REMARK 921   NORMALIZED FREE ENERGY PREDICTED BY IDOCK:   -4.99 KCAL/MOL
REMARK 922        TOTAL FREE ENERGY PREDICTED BY IDOCK:  -10.77 KCAL/MOL
REMARK 923 INTER-LIGAND FREE ENERGY PREDICTED BY IDOCK:   -9.82 KCAL/MOL
REMARK 924 INTRA-LIGAND FREE ENERGY PREDICTED BY IDOCK:   -0.95 KCAL/MOL
REMARK 927      BINDING AFFINITY PREDICTED BY RF-SCORE:    0.00 PKD
ROOT
HETATM    1  C   UNL     1     -13.670  15.062  72.697  1.00  0.00    -0.456 C  
HETATM    2  O   UNL     1     -13.194  13.788  72.262  1.00  0.00    -0.408 OA 
ENDROOT
BRANCH   2   3
HETATM    3  C   UNL     1     -12.726  13.704  70.974  1.00  0.00    -0.332 A  
HETATM    4  C   UNL     1     -12.402  14.816  70.192  1.00  0.00    -0.381 A  
HETATM    5  C   UNL     1     -11.836  14.658  68.923  1.00  0.00    -0.344 A  
HETATM    6  C   UNL     1     -11.610  13.389  68.382  1.00  0.00    -0.368 A  
HETATM    7  C   UNL     1     -11.992  12.273  69.142  1.00  0.00    -0.303 A  
HETATM    8  C   UNL     1     -12.889  11.162  71.148  1.00  0.00    -0.374 C  
HETATM    9  O   UNL     1     -12.787  11.227  72.491  1.00  0.00     0.178 OA 
HETATM   10  C   UNL     1     -12.535  12.420  70.433  1.00  0.00    -0.214 A  
HETATM   11  O   UNL     1     -13.181  10.135  70.555  1.00  0.00    -0.275 OA 
BRANCH   6  12
HETATM   12  C   UNL     1     -10.940  13.194  67.036  1.00  0.00    -0.269 C  
BRANCH  12  13
HETATM   13  N   UNL     1      -9.507  12.850  67.074  1.00  0.00    -0.228 N  
HETATM   14  O   UNL     1      -7.745  11.527  66.363  1.00  0.00    -0.108 OA 
HETATM   15  C   UNL     1      -8.913  11.905  66.203  1.00  0.00    -0.116 C  
BRANCH  13  16
HETATM   16  C   UNL     1      -8.736  13.267  68.275  1.00  0.00    -0.168 C  
HETATM   17  C   UNL     1      -7.567  12.329  68.629  1.00  0.00    -0.089 C  
BRANCH  16  18
HETATM   18  C   UNL     1      -8.174  14.664  68.111  1.00  0.00    -0.142 A  
HETATM   19  C   UNL     1      -6.938  16.262  67.187  1.00  0.00    -0.208 A  
HETATM   20  C   UNL     1      -8.066  16.797  67.770  1.00  0.00    -0.179 A  
HETATM   21  N   UNL     1      -8.793  15.799  68.378  1.00  0.00    -0.180 NA 
HETATM   22  H   UNL     1      -9.644  15.914  68.927  1.00  0.00     0.000 HD 
HETATM   23  N   UNL     1      -7.001  14.913  67.438  1.00  0.00    -0.214 NA 
BRANCH  20  24
HETATM   24  C   UNL     1      -8.536  18.174  67.697  1.00  0.00    -0.252 A  
HETATM   25  C   UNL     1     -10.340  19.775  68.076  1.00  0.00    -0.567 A  
HETATM   26  C   UNL     1      -9.593  20.780  67.469  1.00  0.00    -0.439 A  
HETATM   27  C   UNL     1      -8.313  20.495  66.990  1.00  0.00    -0.313 A  
HETATM   28  C   UNL     1      -9.814  18.486  68.190  1.00  0.00    -0.376 A  
HETATM   29  C   UNL     1      -7.785  19.201  67.108  1.00  0.00    -0.263 A  
ENDBRANCH  20  24
ENDBRANCH  16  18
ENDBRANCH  13  16
BRANCH  15  30
HETATM   30  C   UNL     1      -9.774  11.374  64.996  1.00  0.00    -0.250 C  
HETATM   31  H2  UNL     1      -8.144  11.350  63.679  1.00  0.00     0.000 HD 
HETATM   32  N   UNL     1      -9.101  11.700  63.709  1.00  0.00    -0.450 NA 
HETATM   33  H1  UNL     1      -9.659  11.355  62.928  1.00  0.00     0.000 HD 
BRANCH  30  34
HETATM   34  C   UNL     1     -10.028   9.850  64.964  1.00  0.00    -0.236 C  
BRANCH  34  35
HETATM   35  C   UNL     1      -9.209   8.943  65.862  1.00  0.00    -0.290 A  
HETATM   36  C   UNL     1      -7.740   8.278  63.849  1.00  0.00    -0.141 C  
HETATM   37  C   UNL     1      -8.742   7.884  68.015  1.00  0.00    -0.125 A  
HETATM   38  C   UNL     1     -10.785   9.256  67.901  1.00  0.00    -0.248 C  
HETATM   39  C   UNL     1      -8.116   8.222  65.310  1.00  0.00    -0.142 A  
HETATM   40  C   UNL     1      -9.559   8.709  67.215  1.00  0.00    -0.216 A  
HETATM   41  C   UNL     1      -7.622   7.247  67.492  1.00  0.00    -0.109 A  
HETATM   42  C   UNL     1      -7.328   7.406  66.136  1.00  0.00    -0.082 A  
BRANCH  41  43
HETATM   43  C   UNL     1      -6.730   6.361  68.292  1.00  0.00    -0.068 C  
HETATM   44  H2  UNL     1      -6.469   7.751  69.817  1.00  0.00     0.000 HD 
HETATM   45  H1  UNL     1      -5.622   6.210  70.029  1.00  0.00     0.000 HD 
HETATM   46  N   UNL     1      -6.232   6.816  69.481  1.00  0.00    -0.033 N  
HETATM   47  O   UNL     1      -6.432   5.234  67.908  1.00  0.00    -0.044 OA 
ENDBRANCH  41  43
ENDBRANCH  34  35
ENDBRANCH  30  34
ENDBRANCH  15  30
ENDBRANCH  12  13
ENDBRANCH   6  12
ENDBRANCH   2   3
TORSDOF 10
ENDMDL
MODEL       94
REMARK 921   NORMALIZED FREE ENERGY PREDICTED BY IDOCK:   -4.96 KCAL/MOL
REMARK 922        TOTAL FREE ENERGY PREDICTED BY IDOCK:  -10.73 KCAL/MOL
REMARK 923 INTER-LIGAND FREE ENERGY PREDICTED BY IDOCK:   -9.74 KCAL/MOL
REMARK 924 INTRA-LIGAND FREE ENERGY PREDICTED BY IDOCK:   -0.99 KCAL/MOL
REMARK 927      BINDING AFFINITY PREDICTED BY RF-SCORE:    0.00 PKD
ROOT
HETATM    1  C   UNL     1      -5.825  14.046  70.562  1.00  0.00    -0.178 C  
HETATM    2  O   UNL     1      -5.496  12.886  69.797  1.00  0.00    -0.082 OA 
ENDROOT
BRANCH   2   3
HETATM    3  C   UNL     1      -6.517  12.293  69.096  1.00  0.00    -0.100 A  
HETATM    4  C   UNL     1      -7.125  12.866  67.976  1.00  0.00    -0.111 A  
HETATM    5  C   UNL     1      -8.091  12.164  67.248  1.00  0.00    -0.176 A  
HETATM    6  C   UNL     1      -8.506  10.887  67.637  1.00  0.00    -0.123 A  
HETATM    7  C   UNL     1      -7.940  10.337  68.797  1.00  0.00    -0.113 A  
HETATM    8  C   UNL     1      -6.410  10.331  70.726  1.00  0.00    -0.028 C  
HETATM    9  O   UNL     1      -5.126  10.619  71.020  1.00  0.00    -0.074 OA 
HETATM   10  C   UNL     1      -6.944  11.023  69.520  1.00  0.00    -0.126 A  
HETATM   11  O   UNL     1      -7.067   9.516  71.355  1.00  0.00    -0.323 OA 
BRANCH   6  12
HETATM   12  C   UNL     1      -9.505  10.083  66.828  1.00  0.00    -0.168 C  
BRANCH  12  13
HETATM   13  N   UNL     1      -9.087   9.724  65.461  1.00  0.00    -0.181 N  
HETATM   14  O   UNL     1      -9.329   9.945  63.170  1.00  0.00    -0.275 OA 
HETATM   15  C   UNL     1      -9.581  10.373  64.304  1.00  0.00    -0.318 C  
BRANCH  13  16
HETATM   16  C   UNL     1      -8.377   8.430  65.282  1.00  0.00    -0.160 C  
HETATM   17  C   UNL     1      -6.880   8.574  64.948  1.00  0.00    -0.072 C  
BRANCH  16  18
HETATM   18  C   UNL     1      -8.493   7.562  66.517  1.00  0.00    -0.131 A  
HETATM   19  C   UNL     1      -7.795   6.580  68.384  1.00  0.00    -0.106 A  
HETATM   20  C   UNL     1      -9.152   6.818  68.439  1.00  0.00    -0.125 A  
HETATM   21  N   UNL     1      -9.573   7.381  67.256  1.00  0.00    -0.143 NA 
HETATM   22  H   UNL     1     -10.532   7.615  66.999  1.00  0.00     0.000 HD 
HETATM   23  N   UNL     1      -7.395   7.026  67.149  1.00  0.00    -0.088 NA 
BRANCH  20  24
HETATM   24  C   UNL     1     -10.043   6.631  69.577  1.00  0.00    -0.197 A  
HETATM   25  C   UNL     1     -11.744   7.566  71.056  1.00  0.00    -0.317 A  
HETATM   26  C   UNL     1     -11.701   6.424  71.850  1.00  0.00    -0.378 A  
HETATM   27  C   UNL     1     -10.845   5.377  71.505  1.00  0.00    -0.218 A  
HETATM   28  C   UNL     1     -10.924   7.666  69.930  1.00  0.00    -0.208 A  
HETATM   29  C   UNL     1     -10.024   5.476  70.372  1.00  0.00    -0.279 A  
ENDBRANCH  20  24
ENDBRANCH  16  18
ENDBRANCH  13  16
BRANCH  15  30
HETATM   30  C   UNL     1     -10.435  11.681  64.502  1.00  0.00    -0.308 C  
HETATM   31  H2  UNL     1     -11.701  11.250  62.887  1.00  0.00     0.000 HD 
HETATM   32  N   UNL     1     -11.137  12.026  63.235  1.00  0.00    -0.677 NA 
HETATM   33  H1  UNL     1     -11.690  12.873  63.364  1.00  0.00     0.000 HD 
BRANCH  30  34
HETATM   34  C   UNL     1     -11.533  11.616  65.587  1.00  0.00    -0.171 C  
BRANCH  34  35
HETATM   35  C   UNL     1     -11.619  12.723  66.621  1.00  0.00    -0.430 A  
HETATM   36  C   UNL     1     -12.005  10.967  68.470  1.00  0.00    -0.137 C  
HETATM   37  C   UNL     1     -11.651  15.082  67.262  1.00  0.00    -0.285 A  
HETATM   38  C   UNL     1     -11.568  14.616  64.845  1.00  0.00    -0.405 C  
HETATM   39  C   UNL     1     -11.825  12.386  67.985  1.00  0.00    -0.376 A  
HETATM   40  C   UNL     1     -11.603  14.094  66.259  1.00  0.00    -0.379 A  
HETATM   41  C   UNL     1     -11.766  14.745  68.607  1.00  0.00    -0.356 A  
HETATM   42  C   UNL     1     -11.873  13.397  68.957  1.00  0.00    -0.378 A  
BRANCH  41  43
HETATM   43  C   UNL     1     -11.827  15.750  69.705  1.00  0.00    -0.340 C  
HETATM   44  H2  UNL     1      -9.972  16.575  69.254  1.00  0.00     0.000 HD 
HETATM   45  H1  UNL     1     -10.824  17.304  70.625  1.00  0.00     0.000 HD 
HETATM   46  N   UNL     1     -10.783  16.616  69.873  1.00  0.00    -0.277 N  
HETATM   47  O   UNL     1     -12.790  15.817  70.462  1.00  0.00    -0.423 OA 
ENDBRANCH  41  43
ENDBRANCH  34  35
ENDBRANCH  30  34
ENDBRANCH  15  30
ENDBRANCH  12  13
ENDBRANCH   6  12
ENDBRANCH   2   3
TORSDOF 10
ENDMDL
MODEL       95
REMARK 921   NORMALIZED FREE ENERGY PREDICTED BY IDOCK:   -4.96 KCAL/MOL
REMARK 922        TOTAL FREE ENERGY PREDICTED BY IDOCK:  -10.73 KCAL/MOL
REMARK 923 INTER-LIGAND FREE ENERGY PREDICTED BY IDOCK:   -8.57 KCAL/MOL
REMARK 924 INTRA-LIGAND FREE ENERGY PREDICTED BY IDOCK:   -2.16 KCAL/MOL
REMARK 927      BINDING AFFINITY PREDICTED BY RF-SCORE:    0.00 PKD
ROOT
HETATM    1  C   UNL     1      -5.999   5.017  67.141  1.00  0.00    -0.026 C  
HETATM    2  O   UNL     1      -7.345   4.813  66.708  1.00  0.00    -0.079 OA 
ENDROOT
BRANCH   2   3
HETATM    3  C   UNL     1      -8.340   5.312  67.512  1.00  0.00    -0.106 A  
HETATM    4  C   UNL     1      -8.499   6.670  67.798  1.00  0.00    -0.122 A  
HETATM    5  C   UNL     1      -9.593   7.121  68.544  1.00  0.00    -0.139 A  
HETATM    6  C   UNL     1     -10.539   6.229  69.057  1.00  0.00    -0.322 A  
HETATM    7  C   UNL     1     -10.345   4.859  68.823  1.00  0.00    -0.049 A  
HETATM    8  C   UNL     1      -9.171   2.922  67.856  1.00  0.00    -0.205 C  
HETATM    9  O   UNL     1      -8.609   2.537  66.692  1.00  0.00    -0.100 OA 
HETATM   10  C   UNL     1      -9.264   4.397  68.047  1.00  0.00    -0.174 A  
HETATM   11  O   UNL     1      -9.634   2.130  68.662  1.00  0.00    -0.170 OA 
BRANCH   6  12
HETATM   12  C   UNL     1     -11.765   6.701  69.814  1.00  0.00    -0.216 C  
BRANCH  12  13
HETATM   13  N   UNL     1     -11.507   7.478  71.039  1.00  0.00    -0.274 N  
HETATM   14  O   UNL     1     -11.013   9.494  72.065  1.00  0.00    -0.142 OA 
HETATM   15  C   UNL     1     -11.383   8.889  71.050  1.00  0.00    -0.291 C  
BRANCH  13  16
HETATM   16  C   UNL     1     -11.040   6.731  72.236  1.00  0.00    -0.251 C  
HETATM   17  C   UNL     1     -11.784   5.405  72.481  1.00  0.00    -0.176 C  
BRANCH  16  18
HETATM   18  C   UNL     1      -9.560   6.420  72.150  1.00  0.00    -0.149 A  
HETATM   19  C   UNL     1      -7.426   6.507  72.762  1.00  0.00    -0.094 A  
HETATM   20  C   UNL     1      -7.701   5.314  72.129  1.00  0.00    -0.100 A  
HETATM   21  N   UNL     1      -9.014   5.300  71.716  1.00  0.00    -0.134 NA 
HETATM   22  H   UNL     1      -9.475   4.566  71.178  1.00  0.00     0.000 HD 
HETATM   23  N   UNL     1      -8.604   7.213  72.740  1.00  0.00    -0.113 NA 
BRANCH  20  24
HETATM   24  C   UNL     1      -6.822   4.161  71.984  1.00  0.00    -0.037 A  
HETATM   25  C   UNL     1      -5.778   2.518  70.511  1.00  0.00    -0.017 A  
HETATM   26  C   UNL     1      -5.253   1.846  71.611  1.00  0.00    -0.004 A  
HETATM   27  C   UNL     1      -5.494   2.334  72.896  1.00  0.00     0.000 A  
HETATM   28  C   UNL     1      -6.553   3.665  70.698  1.00  0.00    -0.032 A  
HETATM   29  C   UNL     1      -6.269   3.488  73.083  1.00  0.00    -0.012 A  
ENDBRANCH  20  24
ENDBRANCH  16  18
ENDBRANCH  13  16
BRANCH  15  30
HETATM   30  C   UNL     1     -11.766   9.672  69.739  1.00  0.00     0.108 C  
HETATM   31  H2  UNL     1     -13.124  10.923  70.731  1.00  0.00     0.000 HD 
HETATM   32  N   UNL     1     -13.093  10.325  69.906  1.00  0.00    -0.464 NA 
HETATM   33  H1  UNL     1     -13.341  10.832  69.056  1.00  0.00     0.000 HD 
BRANCH  30  34
HETATM   34  C   UNL     1     -10.795  10.795  69.312  1.00  0.00    -0.287 C  
BRANCH  34  35
HETATM   35  C   UNL     1     -11.141  11.658  68.114  1.00  0.00    -0.298 A  
HETATM   36  C   UNL     1     -10.210   9.842  66.537  1.00  0.00    -0.292 C  
HETATM   37  C   UNL     1     -11.972  13.727  67.109  1.00  0.00    -0.442 A  
HETATM   38  C   UNL     1     -11.810  13.703  69.567  1.00  0.00    -0.394 C  
HETATM   39  C   UNL     1     -10.870  11.174  66.806  1.00  0.00    -0.322 A  
HETATM   40  C   UNL     1     -11.634  12.980  68.256  1.00  0.00    -0.375 A  
HETATM   41  C   UNL     1     -11.785  13.214  65.829  1.00  0.00    -0.415 A  
HETATM   42  C   UNL     1     -11.216  11.947  65.688  1.00  0.00    -0.360 A  
BRANCH  41  43
HETATM   43  C   UNL     1     -12.121  13.963  64.586  1.00  0.00    -0.431 C  
HETATM   44  H2  UNL     1     -11.362  15.767  65.290  1.00  0.00     0.000 HD 
HETATM   45  H1  UNL     1     -12.044  15.806  63.656  1.00  0.00     0.000 HD 
HETATM   46  N   UNL     1     -11.815  15.293  64.507  1.00  0.00    -0.364 N  
HETATM   47  O   UNL     1     -12.666  13.415  63.633  1.00  0.00    -0.698 OA 
ENDBRANCH  41  43
ENDBRANCH  34  35
ENDBRANCH  30  34
ENDBRANCH  15  30
ENDBRANCH  12  13
ENDBRANCH   6  12
ENDBRANCH   2   3
TORSDOF 10
ENDMDL
MODEL       96
REMARK 921   NORMALIZED FREE ENERGY PREDICTED BY IDOCK:   -4.96 KCAL/MOL
REMARK 922        TOTAL FREE ENERGY PREDICTED BY IDOCK:  -10.73 KCAL/MOL
REMARK 923 INTER-LIGAND FREE ENERGY PREDICTED BY IDOCK:   -8.51 KCAL/MOL
REMARK 924 INTRA-LIGAND FREE ENERGY PREDICTED BY IDOCK:   -2.21 KCAL/MOL
REMARK 927      BINDING AFFINITY PREDICTED BY RF-SCORE:    0.00 PKD
ROOT
HETATM    1  C   UNL     1      -6.276   5.058  69.072  1.00  0.00    -0.030 C  
HETATM    2  O   UNL     1      -6.210   6.375  69.622  1.00  0.00    -0.031 OA 
ENDROOT
BRANCH   2   3
HETATM    3  C   UNL     1      -6.418   7.421  68.759  1.00  0.00    -0.044 A  
HETATM    4  C   UNL     1      -6.294   7.319  67.370  1.00  0.00    -0.054 A  
HETATM    5  C   UNL     1      -6.617   8.398  66.541  1.00  0.00    -0.056 A  
HETATM    6  C   UNL     1      -7.037   9.620  67.072  1.00  0.00    -0.086 A  
HETATM    7  C   UNL     1      -7.103   9.743  68.469  1.00  0.00    -0.068 A  
HETATM    8  C   UNL     1      -6.927   8.901  70.776  1.00  0.00    -0.074 C  
HETATM    9  O   UNL     1      -7.275   7.822  71.505  1.00  0.00    -0.060 OA 
HETATM   10  C   UNL     1      -6.809   8.653  69.312  1.00  0.00    -0.050 A  
HETATM   11  O   UNL     1      -6.786  10.012  71.263  1.00  0.00    -0.328 OA 
BRANCH   6  12
HETATM   12  C   UNL     1      -7.453  10.782  66.191  1.00  0.00    -0.129 C  
BRANCH  12  13
HETATM   13  N   UNL     1      -8.866  11.192  66.289  1.00  0.00    -0.181 N  
HETATM   14  O   UNL     1     -10.527  12.416  67.338  1.00  0.00    -0.213 OA 
HETATM   15  C   UNL     1      -9.319  12.206  67.167  1.00  0.00    -0.193 C  
BRANCH  13  16
HETATM   16  C   UNL     1      -9.882  10.290  65.687  1.00  0.00    -0.268 C  
HETATM   17  C   UNL     1      -9.439   9.636  64.365  1.00  0.00    -0.135 C  
BRANCH  16  18
HETATM   18  C   UNL     1     -10.270   9.180  66.643  1.00  0.00    -0.258 A  
HETATM   19  C   UNL     1     -10.164   7.160  67.562  1.00  0.00    -0.212 A  
HETATM   20  C   UNL     1     -10.606   8.089  68.480  1.00  0.00    -0.103 A  
HETATM   21  N   UNL     1     -10.710   9.322  67.879  1.00  0.00    -0.420 NA 
HETATM   22  H   UNL     1     -11.060  10.180  68.306  1.00  0.00     0.000 HD 
HETATM   23  N   UNL     1      -9.985   7.858  66.393  1.00  0.00    -0.181 NA 
BRANCH  20  24
HETATM   24  C   UNL     1     -10.837   7.890  69.905  1.00  0.00    -0.221 A  
HETATM   25  C   UNL     1     -10.709   8.783  72.173  1.00  0.00    -0.383 A  
HETATM   26  C   UNL     1     -11.114   7.557  72.692  1.00  0.00    -0.398 A  
HETATM   27  C   UNL     1     -11.398   6.501  71.826  1.00  0.00    -0.325 A  
HETATM   28  C   UNL     1     -10.574   8.947  70.792  1.00  0.00    -0.281 A  
HETATM   29  C   UNL     1     -11.266   6.667  70.439  1.00  0.00    -0.398 A  
ENDBRANCH  20  24
ENDBRANCH  16  18
ENDBRANCH  13  16
BRANCH  15  30
HETATM   30  C   UNL     1      -8.236  13.085  67.898  1.00  0.00    -0.166 C  
HETATM   31  H2  UNL     1      -7.724  14.129  66.154  1.00  0.00     0.000 HD 
HETATM   32  N   UNL     1      -7.263  13.620  66.907  1.00  0.00    -0.281 NA 
HETATM   33  H1  UNL     1      -6.562  14.189  67.381  1.00  0.00     0.000 HD 
BRANCH  30  34
HETATM   34  C   UNL     1      -8.769  14.314  68.669  1.00  0.00    -0.150 C  
BRANCH  34  35
HETATM   35  C   UNL     1      -8.591  15.697  68.073  1.00  0.00    -0.155 A  
HETATM   36  C   UNL     1      -6.451  16.026  69.474  1.00  0.00    -0.187 C  
HETATM   37  C   UNL     1      -9.331  17.554  66.664  1.00  0.00    -0.275 A  
HETATM   38  C   UNL     1     -10.884  15.651  66.855  1.00  0.00    -0.282 C  
HETATM   39  C   UNL     1      -7.472  16.482  68.458  1.00  0.00    -0.193 A  
HETATM   40  C   UNL     1      -9.562  16.278  67.218  1.00  0.00    -0.231 A  
HETATM   41  C   UNL     1      -8.189  18.284  66.977  1.00  0.00    -0.248 A  
HETATM   42  C   UNL     1      -7.276  17.750  67.889  1.00  0.00    -0.210 A  
BRANCH  41  43
HETATM   43  C   UNL     1      -7.900  19.636  66.424  1.00  0.00    -0.309 C  
HETATM   44  H2  UNL     1      -8.406  20.628  68.180  1.00  0.00     0.000 HD 
HETATM   45  H1  UNL     1      -7.881  21.660  66.840  1.00  0.00     0.000 HD 
HETATM   46  N   UNL     1      -8.079  20.734  67.219  1.00  0.00    -0.267 N  
HETATM   47  O   UNL     1      -7.506  19.788  65.271  1.00  0.00    -0.378 OA 
ENDBRANCH  41  43
ENDBRANCH  34  35
ENDBRANCH  30  34
ENDBRANCH  15  30
ENDBRANCH  12  13
ENDBRANCH   6  12
ENDBRANCH   2   3
TORSDOF 10
ENDMDL
MODEL       97
REMARK 921   NORMALIZED FREE ENERGY PREDICTED BY IDOCK:   -4.95 KCAL/MOL
REMARK 922        TOTAL FREE ENERGY PREDICTED BY IDOCK:  -10.72 KCAL/MOL
REMARK 923 INTER-LIGAND FREE ENERGY PREDICTED BY IDOCK:   -9.78 KCAL/MOL
REMARK 924 INTRA-LIGAND FREE ENERGY PREDICTED BY IDOCK:   -0.94 KCAL/MOL
REMARK 927      BINDING AFFINITY PREDICTED BY RF-SCORE:    0.00 PKD
ROOT
HETATM    1  C   UNL     1     -10.872   4.643  65.799  1.00  0.00    -0.024 C  
HETATM    2  O   UNL     1      -9.788   5.235  66.516  1.00  0.00    -0.154 OA 
ENDROOT
BRANCH   2   3
HETATM    3  C   UNL     1      -9.575   6.577  66.327  1.00  0.00    -0.046 A  
HETATM    4  C   UNL     1     -10.401   7.576  66.849  1.00  0.00    -0.379 A  
HETATM    5  C   UNL     1     -10.071   8.927  66.702  1.00  0.00    -0.357 A  
HETATM    6  C   UNL     1      -8.930   9.323  65.999  1.00  0.00    -0.215 A  
HETATM    7  C   UNL     1      -8.133   8.322  65.421  1.00  0.00    -0.135 A  
HETATM    8  C   UNL     1      -7.513   5.988  64.941  1.00  0.00    -0.082 C  
HETATM    9  O   UNL     1      -7.400   4.804  65.575  1.00  0.00    -0.070 OA 
HETATM   10  C   UNL     1      -8.440   6.958  65.589  1.00  0.00    -0.141 A  
HETATM   11  O   UNL     1      -6.857   6.275  63.951  1.00  0.00    -0.036 OA 
BRANCH   6  12
HETATM   12  C   UNL     1      -8.519  10.778  65.881  1.00  0.00    -0.166 C  
BRANCH  12  13
HETATM   13  N   UNL     1      -7.864  11.361  67.066  1.00  0.00    -0.151 N  
HETATM   14  O   UNL     1      -7.539  13.152  68.496  1.00  0.00    -0.125 OA 
HETATM   15  C   UNL     1      -8.211  12.626  67.599  1.00  0.00    -0.174 C  
BRANCH  13  16
HETATM   16  C   UNL     1      -6.587  10.746  67.512  1.00  0.00    -0.059 C  
HETATM   17  C   UNL     1      -5.419  11.741  67.637  1.00  0.00    -0.066 C  
BRANCH  16  18
HETATM   18  C   UNL     1      -6.747  10.052  68.849  1.00  0.00    -0.053 A  
HETATM   19  C   UNL     1      -6.504   9.783  71.041  1.00  0.00    -0.015 A  
HETATM   20  C   UNL     1      -7.664   9.181  70.604  1.00  0.00    -0.138 A  
HETATM   21  N   UNL     1      -7.772   9.317  69.238  1.00  0.00    -0.079 NA 
HETATM   22  H   UNL     1      -8.502   8.926  68.643  1.00  0.00     0.000 HD 
HETATM   23  N   UNL     1      -5.915  10.303  69.915  1.00  0.00    -0.049 NA 
BRANCH  20  24
HETATM   24  C   UNL     1      -8.713   8.577  71.415  1.00  0.00    -0.237 A  
HETATM   25  C   UNL     1     -11.021   7.800  71.582  1.00  0.00    -0.272 A  
HETATM   26  C   UNL     1     -10.851   7.544  72.939  1.00  0.00    -0.425 A  
HETATM   27  C   UNL     1      -9.612   7.785  73.536  1.00  0.00    -0.332 A  
HETATM   28  C   UNL     1      -9.961   8.310  70.828  1.00  0.00    -0.217 A  
HETATM   29  C   UNL     1      -8.547   8.293  72.778  1.00  0.00    -0.270 A  
ENDBRANCH  20  24
ENDBRANCH  16  18
ENDBRANCH  13  16
BRANCH  15  30
HETATM   30  C   UNL     1      -9.503  13.332  67.040  1.00  0.00    -0.243 C  
HETATM   31  H2  UNL     1      -9.446  12.281  65.227  1.00  0.00     0.000 HD 
HETATM   32  N   UNL     1      -9.527  13.243  65.554  1.00  0.00    -0.477 NA 
HETATM   33  H1  UNL     1     -10.364  13.700  65.192  1.00  0.00     0.000 HD 
BRANCH  30  34
HETATM   34  C   UNL     1     -10.853  12.753  67.518  1.00  0.00    -0.263 C  
BRANCH  34  35
HETATM   35  C   UNL     1     -11.482  13.293  68.789  1.00  0.00    -0.346 A  
HETATM   36  C   UNL     1     -11.948  10.883  69.582  1.00  0.00    -0.414 C  
HETATM   37  C   UNL     1     -12.245  15.130  70.209  1.00  0.00    -0.395 A  
HETATM   38  C   UNL     1     -11.381  15.761  67.990  1.00  0.00    -0.310 C  
HETATM   39  C   UNL     1     -11.977  12.382  69.760  1.00  0.00    -0.359 A  
HETATM   40  C   UNL     1     -11.687  14.680  68.996  1.00  0.00    -0.339 A  
HETATM   41  C   UNL     1     -12.650  14.237  71.196  1.00  0.00    -0.432 A  
HETATM   42  C   UNL     1     -12.531  12.867  70.955  1.00  0.00    -0.383 A  
BRANCH  41  43
HETATM   43  C   UNL     1     -13.250  14.660  72.492  1.00  0.00    -0.428 C  
HETATM   44  H2  UNL     1     -14.241  16.294  71.672  1.00  0.00     0.000 HD 
HETATM   45  H1  UNL     1     -14.464  16.055  73.413  1.00  0.00     0.000 HD 
HETATM   46  N   UNL     1     -14.054  15.766  72.525  1.00  0.00    -0.517 N  
HETATM   47  O   UNL     1     -13.038  14.041  73.531  1.00  0.00    -0.405 OA 
ENDBRANCH  41  43
ENDBRANCH  34  35
ENDBRANCH  30  34
ENDBRANCH  15  30
ENDBRANCH  12  13
ENDBRANCH   6  12
ENDBRANCH   2   3
TORSDOF 10
ENDMDL
MODEL       98
REMARK 921   NORMALIZED FREE ENERGY PREDICTED BY IDOCK:   -4.94 KCAL/MOL
REMARK 922        TOTAL FREE ENERGY PREDICTED BY IDOCK:  -10.70 KCAL/MOL
REMARK 923 INTER-LIGAND FREE ENERGY PREDICTED BY IDOCK:   -9.78 KCAL/MOL
REMARK 924 INTRA-LIGAND FREE ENERGY PREDICTED BY IDOCK:   -0.92 KCAL/MOL
REMARK 927      BINDING AFFINITY PREDICTED BY RF-SCORE:    0.00 PKD
ROOT
HETATM    1  C   UNL     1     -10.134   4.070  65.820  1.00  0.00    -0.099 C  
HETATM    2  O   UNL     1      -9.980   5.447  65.476  1.00  0.00     0.039 OA 
ENDROOT
BRANCH   2   3
HETATM    3  C   UNL     1     -10.038   6.356  66.504  1.00  0.00    -0.092 A  
HETATM    4  C   UNL     1     -10.828   6.189  67.644  1.00  0.00    -0.421 A  
HETATM    5  C   UNL     1     -10.765   7.105  68.700  1.00  0.00    -0.198 A  
HETATM    6  C   UNL     1      -9.941   8.231  68.634  1.00  0.00    -0.203 A  
HETATM    7  C   UNL     1      -9.193   8.432  67.463  1.00  0.00    -0.158 A  
HETATM    8  C   UNL     1      -8.379   7.814  65.222  1.00  0.00    -0.122 C  
HETATM    9  O   UNL     1      -7.912   6.737  64.560  1.00  0.00    -0.119 OA 
HETATM   10  C   UNL     1      -9.226   7.500  66.408  1.00  0.00    -0.212 A  
HETATM   11  O   UNL     1      -8.078   8.959  64.921  1.00  0.00    -0.127 OA 
BRANCH   6  12
HETATM   12  C   UNL     1      -9.808   9.202  69.791  1.00  0.00    -0.181 C  
BRANCH  12  13
HETATM   13  N   UNL     1     -11.073   9.674  70.384  1.00  0.00    -0.268 N  
HETATM   14  O   UNL     1     -12.800  11.213  70.455  1.00  0.00    -0.216 OA 
HETATM   15  C   UNL     1     -11.829  10.743  69.847  1.00  0.00    -0.335 C  
BRANCH  13  16
HETATM   16  C   UNL     1     -11.387   9.226  71.766  1.00  0.00    -0.367 C  
HETATM   17  C   UNL     1     -12.869   8.875  71.992  1.00  0.00    -0.456 C  
BRANCH  16  18
HETATM   18  C   UNL     1     -10.562   8.017  72.155  1.00  0.00    -0.272 A  
HETATM   19  C   UNL     1      -9.237   6.793  73.453  1.00  0.00    -0.138 A  
HETATM   20  C   UNL     1     -10.030   5.984  72.667  1.00  0.00    -0.176 A  
HETATM   21  N   UNL     1     -10.807   6.760  71.837  1.00  0.00    -0.228 NA 
HETATM   22  H   UNL     1     -11.448   6.428  71.117  1.00  0.00     0.000 HD 
HETATM   23  N   UNL     1      -9.561   8.079  73.096  1.00  0.00    -0.281 NA 
BRANCH  20  24
HETATM   24  C   UNL     1     -10.158   4.534  72.729  1.00  0.00    -0.217 A  
HETATM   25  C   UNL     1      -9.575   2.355  71.795  1.00  0.00    -0.208 A  
HETATM   26  C   UNL     1     -10.452   1.729  72.675  1.00  0.00    -0.231 A  
HETATM   27  C   UNL     1     -11.171   2.494  73.594  1.00  0.00    -0.318 A  
HETATM   28  C   UNL     1      -9.429   3.745  71.825  1.00  0.00    -0.214 A  
HETATM   29  C   UNL     1     -11.022   3.888  73.626  1.00  0.00    -0.337 A  
ENDBRANCH  20  24
ENDBRANCH  16  18
ENDBRANCH  13  16
BRANCH  15  30
HETATM   30  C   UNL     1     -11.420  11.296  68.430  1.00  0.00    -0.307 C  
HETATM   31  H2  UNL     1     -12.825  12.851  68.491  1.00  0.00     0.000 HD 
HETATM   32  N   UNL     1     -12.532  12.105  67.860  1.00  0.00     0.143 NA 
HETATM   33  H1  UNL     1     -12.266  12.463  66.942  1.00  0.00     0.000 HD 
BRANCH  30  34
HETATM   34  C   UNL     1     -10.173  12.208  68.393  1.00  0.00    -0.212 C  
BRANCH  34  35
HETATM   35  C   UNL     1     -10.257  13.548  67.687  1.00  0.00    -0.239 A  
HETATM   36  C   UNL     1      -9.574  12.422  65.469  1.00  0.00    -0.076 C  
HETATM   37  C   UNL     1     -10.598  15.969  67.681  1.00  0.00    -0.309 A  
HETATM   38  C   UNL     1     -10.629  14.874  69.888  1.00  0.00    -0.152 C  
HETATM   39  C   UNL     1      -9.985  13.618  66.294  1.00  0.00    -0.305 A  
HETATM   40  C   UNL     1     -10.496  14.755  68.390  1.00  0.00    -0.243 A  
HETATM   41  C   UNL     1     -10.417  16.020  66.303  1.00  0.00    -0.326 A  
HETATM   42  C   UNL     1     -10.091  14.845  65.622  1.00  0.00    -0.387 A  
BRANCH  41  43
HETATM   43  C   UNL     1     -10.508  17.276  65.507  1.00  0.00    -0.122 C  
HETATM   44  H2  UNL     1      -9.158  18.310  66.706  1.00  0.00     0.000 HD 
HETATM   45  H1  UNL     1      -9.829  19.221  65.343  1.00  0.00     0.000 HD 
HETATM   46  N   UNL     1      -9.766  18.361  65.888  1.00  0.00    -0.071 N  
HETATM   47  O   UNL     1     -11.233  17.361  64.521  1.00  0.00    -1.018 OA 
ENDBRANCH  41  43
ENDBRANCH  34  35
ENDBRANCH  30  34
ENDBRANCH  15  30
ENDBRANCH  12  13
ENDBRANCH   6  12
ENDBRANCH   2   3
TORSDOF 10
ENDMDL
MODEL       99
REMARK 921   NORMALIZED FREE ENERGY PREDICTED BY IDOCK:   -4.91 KCAL/MOL
REMARK 922        TOTAL FREE ENERGY PREDICTED BY IDOCK:  -10.65 KCAL/MOL
REMARK 923 INTER-LIGAND FREE ENERGY PREDICTED BY IDOCK:   -8.67 KCAL/MOL
REMARK 924 INTRA-LIGAND FREE ENERGY PREDICTED BY IDOCK:   -1.98 KCAL/MOL
REMARK 927      BINDING AFFINITY PREDICTED BY RF-SCORE:    0.00 PKD
ROOT
HETATM    1  C   UNL     1     -12.852  12.240  63.226  1.00  0.00    -0.117 C  
HETATM    2  O   UNL     1     -11.637  12.748  63.778  1.00  0.00    -0.411 OA 
ENDROOT
BRANCH   2   3
HETATM    3  C   UNL     1     -10.889  11.883  64.537  1.00  0.00    -0.316 A  
HETATM    4  C   UNL     1     -10.130  10.838  64.003  1.00  0.00    -0.410 A  
HETATM    5  C   UNL     1      -9.312  10.056  64.824  1.00  0.00    -0.330 A  
HETATM    6  C   UNL     1      -9.254  10.267  66.204  1.00  0.00    -0.192 A  
HETATM    7  C   UNL     1     -10.063  11.276  66.749  1.00  0.00    -0.254 A  
HETATM    8  C   UNL     1     -11.672  13.136  66.620  1.00  0.00    -0.375 C  
HETATM    9  O   UNL     1     -11.902  14.246  65.891  1.00  0.00    -0.360 OA 
HETATM   10  C   UNL     1     -10.867  12.090  65.928  1.00  0.00    -0.329 A  
HETATM   11  O   UNL     1     -12.031  13.020  67.781  1.00  0.00    -0.348 OA 
BRANCH   6  12
HETATM   12  C   UNL     1      -8.327   9.473  67.104  1.00  0.00    -0.131 C  
BRANCH  12  13
HETATM   13  N   UNL     1      -6.996   9.169  66.549  1.00  0.00    -0.080 N  
HETATM   14  O   UNL     1      -5.430   7.621  65.835  1.00  0.00    -0.028 OA 
HETATM   15  C   UNL     1      -6.601   7.869  66.149  1.00  0.00    -0.050 C  
BRANCH  13  16
HETATM   16  C   UNL     1      -5.934  10.194  66.722  1.00  0.00    -0.055 C  
HETATM   17  C   UNL     1      -5.395  10.771  65.400  1.00  0.00    -0.141 C  
BRANCH  16  18
HETATM   18  C   UNL     1      -6.419  11.353  67.568  1.00  0.00    -0.074 A  
HETATM   19  C   UNL     1      -6.408  12.757  69.290  1.00  0.00    -0.108 A  
HETATM   20  C   UNL     1      -6.946  13.362  68.174  1.00  0.00    -0.116 A  
HETATM   21  N   UNL     1      -6.989  12.462  67.134  1.00  0.00    -0.313 NA 
HETATM   22  H   UNL     1      -7.383  12.621  66.207  1.00  0.00     0.000 HD 
HETATM   23  N   UNL     1      -6.107  11.475  68.902  1.00  0.00    -0.049 NA 
BRANCH  20  24
HETATM   24  C   UNL     1      -7.327  14.759  68.017  1.00  0.00    -0.140 A  
HETATM   25  C   UNL     1      -7.313  17.030  68.914  1.00  0.00    -0.245 A  
HETATM   26  C   UNL     1      -8.136  17.458  67.878  1.00  0.00    -0.220 A  
HETATM   27  C   UNL     1      -8.544  16.550  66.900  1.00  0.00    -0.237 A  
HETATM   28  C   UNL     1      -6.912  15.693  68.980  1.00  0.00    -0.145 A  
HETATM   29  C   UNL     1      -8.138  15.209  66.965  1.00  0.00    -0.240 A  
ENDBRANCH  20  24
ENDBRANCH  16  18
ENDBRANCH  13  16
BRANCH  15  30
HETATM   30  C   UNL     1      -7.709   6.752  66.080  1.00  0.00    -0.091 C  
HETATM   31  H2  UNL     1      -6.584   5.538  64.794  1.00  0.00     0.000 HD 
HETATM   32  N   UNL     1      -7.524   5.928  64.855  1.00  0.00    -0.073 NA 
HETATM   33  H1  UNL     1      -8.242   5.204  64.811  1.00  0.00     0.000 HD 
BRANCH  30  34
HETATM   34  C   UNL     1      -7.738   5.753  67.259  1.00  0.00    -0.101 C  
BRANCH  34  35
HETATM   35  C   UNL     1      -8.739   5.958  68.380  1.00  0.00    -0.112 A  
HETATM   36  C   UNL     1     -10.663   5.351  66.772  1.00  0.00    -0.289 C  
HETATM   37  C   UNL     1      -9.321   6.599  70.666  1.00  0.00    -0.164 A  
HETATM   38  C   UNL     1      -6.963   6.903  70.020  1.00  0.00    -0.062 C  
HETATM   39  C   UNL     1     -10.120   5.743  68.126  1.00  0.00    -0.204 A  
HETATM   40  C   UNL     1      -8.355   6.459  69.649  1.00  0.00    -0.126 A  
HETATM   41  C   UNL     1     -10.661   6.303  70.439  1.00  0.00    -0.329 A  
HETATM   42  C   UNL     1     -11.054   5.896  69.163  1.00  0.00    -0.328 A  
BRANCH  41  43
HETATM   43  C   UNL     1     -11.721   6.439  71.477  1.00  0.00    -0.313 C  
HETATM   44  H2  UNL     1     -10.864   5.033  72.749  1.00  0.00     0.000 HD 
HETATM   45  H1  UNL     1     -12.366   5.775  73.324  1.00  0.00     0.000 HD 
HETATM   46  N   UNL     1     -11.640   5.682  72.613  1.00  0.00    -0.297 N  
HETATM   47  O   UNL     1     -12.664   7.211  71.336  1.00  0.00    -0.367 OA 
ENDBRANCH  41  43
ENDBRANCH  34  35
ENDBRANCH  30  34
ENDBRANCH  15  30
ENDBRANCH  12  13
ENDBRANCH   6  12
ENDBRANCH   2   3
TORSDOF 10
ENDMDL
MODEL      100
REMARK 921   NORMALIZED FREE ENERGY PREDICTED BY IDOCK:   -4.90 KCAL/MOL
REMARK 922        TOTAL FREE ENERGY PREDICTED BY IDOCK:  -10.63 KCAL/MOL
REMARK 923 INTER-LIGAND FREE ENERGY PREDICTED BY IDOCK:   -9.21 KCAL/MOL
REMARK 924 INTRA-LIGAND FREE ENERGY PREDICTED BY IDOCK:   -1.41 KCAL/MOL
REMARK 927      BINDING AFFINITY PREDICTED BY RF-SCORE:    0.00 PKD
ROOT
HETATM    1  C   UNL     1      -6.236  10.282  64.658  1.00  0.00    -0.116 C  
HETATM    2  O   UNL     1      -6.420   9.978  66.042  1.00  0.00    -0.081 OA 
ENDROOT
BRANCH   2   3
HETATM    3  C   UNL     1      -7.689  10.116  66.545  1.00  0.00    -0.108 A  
HETATM    4  C   UNL     1      -8.850   9.946  65.786  1.00  0.00    -0.171 A  
HETATM    5  C   UNL     1     -10.113  10.003  66.384  1.00  0.00    -0.307 A  
HETATM    6  C   UNL     1     -10.258  10.267  67.749  1.00  0.00    -0.225 A  
HETATM    7  C   UNL     1      -9.095  10.499  68.500  1.00  0.00    -0.154 A  
HETATM    8  C   UNL     1      -6.658  10.667  68.815  1.00  0.00    -0.053 C  
HETATM    9  O   UNL     1      -5.532  10.002  68.488  1.00  0.00    -0.039 OA 
HETATM   10  C   UNL     1      -7.817  10.414  67.914  1.00  0.00    -0.101 A  
HETATM   11  O   UNL     1      -6.748  11.368  69.812  1.00  0.00    -0.132 OA 
BRANCH   6  12
HETATM   12  C   UNL     1     -11.612  10.271  68.430  1.00  0.00     0.030 C  
BRANCH  12  13
HETATM   13  N   UNL     1     -11.795  11.276  69.493  1.00  0.00    -0.326 N  
HETATM   14  O   UNL     1     -11.693  13.476  70.207  1.00  0.00    -0.266 OA 
HETATM   15  C   UNL     1     -11.688  12.670  69.267  1.00  0.00    -0.322 C  
BRANCH  13  16
HETATM   16  C   UNL     1     -11.768  10.796  70.899  1.00  0.00    -0.234 C  
HETATM   17  C   UNL     1     -13.159  10.664  71.546  1.00  0.00    -0.527 C  
BRANCH  16  18
HETATM   18  C   UNL     1     -11.078   9.452  71.010  1.00  0.00    -0.344 A  
HETATM   19  C   UNL     1     -10.803   7.274  70.666  1.00  0.00    -0.242 A  
HETATM   20  C   UNL     1      -9.584   7.899  70.819  1.00  0.00    -0.165 A  
HETATM   21  N   UNL     1      -9.778   9.237  71.079  1.00  0.00    -0.282 NA 
HETATM   22  H   UNL     1      -9.056   9.928  71.284  1.00  0.00     0.000 HD 
HETATM   23  N   UNL     1     -11.743   8.264  70.821  1.00  0.00    -0.249 NA 
BRANCH  20  24
HETATM   24  C   UNL     1      -8.259   7.321  70.637  1.00  0.00    -0.116 A  
HETATM   25  C   UNL     1      -5.854   7.481  71.019  1.00  0.00    -0.035 A  
HETATM   26  C   UNL     1      -5.639   6.361  70.221  1.00  0.00    -0.018 A  
HETATM   27  C   UNL     1      -6.729   5.708  69.644  1.00  0.00    -0.055 A  
HETATM   28  C   UNL     1      -7.152   7.954  71.226  1.00  0.00    -0.055 A  
HETATM   29  C   UNL     1      -8.032   6.180  69.854  1.00  0.00    -0.114 A  
ENDBRANCH  20  24
ENDBRANCH  16  18
ENDBRANCH  13  16
BRANCH  15  30
HETATM   30  C   UNL     1     -11.597  13.170  67.777  1.00  0.00    -0.337 C  
HETATM   31  H2  UNL     1     -12.532  14.998  68.200  1.00  0.00     0.000 HD 
HETATM   32  N   UNL     1     -12.614  14.231  67.534  1.00  0.00    -0.409 NA 
HETATM   33  H1  UNL     1     -12.554  14.554  66.568  1.00  0.00     0.000 HD 
BRANCH  30  34
HETATM   34  C   UNL     1     -10.244  13.779  67.348  1.00  0.00    -0.252 C  
BRANCH  34  35
HETATM   35  C   UNL     1     -10.129  15.281  67.172  1.00  0.00    -0.240 A  
HETATM   36  C   UNL     1     -10.934  15.058  64.732  1.00  0.00    -0.389 C  
HETATM   37  C   UNL     1      -9.531  17.511  67.979  1.00  0.00    -0.280 A  
HETATM   38  C   UNL     1      -9.002  15.634  69.485  1.00  0.00    -0.231 C  
HETATM   39  C   UNL     1     -10.481  15.865  65.926  1.00  0.00    -0.373 A  
HETATM   40  C   UNL     1      -9.583  16.117  68.179  1.00  0.00    -0.217 A  
HETATM   41  C   UNL     1      -9.958  18.087  66.787  1.00  0.00    -0.346 A  
HETATM   42  C   UNL     1     -10.412  17.257  65.760  1.00  0.00    -0.237 A  
BRANCH  41  43
HETATM   43  C   UNL     1      -9.919  19.553  66.522  1.00  0.00    -0.420 C  
HETATM   44  H2  UNL     1     -11.396  19.480  65.060  1.00  0.00     0.000 HD 
HETATM   45  H1  UNL     1     -10.727  21.085  65.396  1.00  0.00     0.000 HD 
HETATM   46  N   UNL     1     -10.754  20.081  65.577  1.00  0.00    -0.321 N  
HETATM   47  O   UNL     1      -9.155  20.296  67.131  1.00  0.00    -0.355 OA 
ENDBRANCH  41  43
ENDBRANCH  34  35
ENDBRANCH  30  34
ENDBRANCH  15  30
ENDBRANCH  12  13
ENDBRANCH   6  12
ENDBRANCH   2   3
TORSDOF 10
ENDMDL
MODEL      101
REMARK 921   NORMALIZED FREE ENERGY PREDICTED BY IDOCK:   -4.88 KCAL/MOL
REMARK 922        TOTAL FREE ENERGY PREDICTED BY IDOCK:  -10.61 KCAL/MOL
REMARK 923 INTER-LIGAND FREE ENERGY PREDICTED BY IDOCK:   -6.94 KCAL/MOL
REMARK 924 INTRA-LIGAND FREE ENERGY PREDICTED BY IDOCK:   -3.67 KCAL/MOL
REMARK 927      BINDING AFFINITY PREDICTED BY RF-SCORE:    0.00 PKD
ROOT
HETATM    1  C   UNL     1     -10.809  11.408  63.946  1.00  0.00    -0.393 C  
HETATM    2  O   UNL     1      -9.719  11.387  64.870  1.00  0.00    -0.240 OA 
ENDROOT
BRANCH   2   3
HETATM    3  C   UNL     1      -9.926  10.736  66.060  1.00  0.00    -0.242 A  
HETATM    4  C   UNL     1      -9.957   9.345  66.190  1.00  0.00    -0.351 A  
HETATM    5  C   UNL     1     -10.073   8.745  67.448  1.00  0.00    -0.289 A  
HETATM    6  C   UNL     1     -10.197   9.513  68.609  1.00  0.00    -0.215 A  
HETATM    7  C   UNL     1     -10.227  10.910  68.473  1.00  0.00    -0.197 A  
HETATM    8  C   UNL     1     -10.116  13.013  67.198  1.00  0.00    -0.244 C  
HETATM    9  O   UNL     1      -9.383  13.585  66.222  1.00  0.00    -0.225 OA 
HETATM   10  C   UNL     1     -10.081  11.524  67.214  1.00  0.00    -0.223 A  
HETATM   11  O   UNL     1     -10.707  13.661  68.049  1.00  0.00    -0.238 OA 
BRANCH   6  12
HETATM   12  C   UNL     1     -10.259   8.886  69.988  1.00  0.00    -0.199 C  
BRANCH  12  13
HETATM   13  N   UNL     1      -9.431   7.683  70.186  1.00  0.00    -0.161 N  
HETATM   14  O   UNL     1      -7.370   6.634  70.096  1.00  0.00    -0.081 OA 
HETATM   15  C   UNL     1      -8.019   7.687  70.078  1.00  0.00    -0.114 C  
BRANCH  13  16
HETATM   16  C   UNL     1     -10.124   6.368  70.178  1.00  0.00    -0.173 C  
HETATM   17  C   UNL     1     -11.655   6.464  70.040  1.00  0.00    -0.446 C  
BRANCH  16  18
HETATM   18  C   UNL     1      -9.614   5.484  69.058  1.00  0.00    -0.136 A  
HETATM   19  C   UNL     1      -9.327   3.587  67.937  1.00  0.00    -0.187 A  
HETATM   20  C   UNL     1      -9.300   4.667  67.080  1.00  0.00    -0.141 A  
HETATM   21  N   UNL     1      -9.431   5.833  67.798  1.00  0.00    -0.111 NA 
HETATM   22  H   UNL     1      -9.395   6.783  67.429  1.00  0.00     0.000 HD 
HETATM   23  N   UNL     1      -9.494   4.120  69.191  1.00  0.00    -0.168 NA 
BRANCH  20  24
HETATM   24  C   UNL     1      -9.256   4.645  65.624  1.00  0.00    -0.151 A  
HETATM   25  C   UNL     1     -10.130   3.738  63.533  1.00  0.00    -0.193 A  
HETATM   26  C   UNL     1      -9.157   4.424  62.813  1.00  0.00    -0.124 A  
HETATM   27  C   UNL     1      -8.243   5.234  63.488  1.00  0.00    -0.122 A  
HETATM   28  C   UNL     1     -10.179   3.850  64.925  1.00  0.00    -0.172 A  
HETATM   29  C   UNL     1      -8.294   5.349  64.885  1.00  0.00    -0.142 A  
ENDBRANCH  20  24
ENDBRANCH  16  18
ENDBRANCH  13  16
BRANCH  15  30
HETATM   30  C   UNL     1      -7.294   9.080  69.968  1.00  0.00    -0.060 C  
HETATM   31  H2  UNL     1      -6.320   8.861  71.811  1.00  0.00     0.000 HD 
HETATM   32  N   UNL     1      -6.888   9.551  71.321  1.00  0.00    -0.311 NA 
HETATM   33  H1  UNL     1      -6.419  10.453  71.249  1.00  0.00     0.000 HD 
BRANCH  30  34
HETATM   34  C   UNL     1      -6.009   9.109  69.110  1.00  0.00    -0.042 C  
BRANCH  34  35
HETATM   35  C   UNL     1      -6.123   9.311  67.611  1.00  0.00    -0.054 A  
HETATM   36  C   UNL     1      -6.589  11.820  67.984  1.00  0.00    -0.060 C  
HETATM   37  C   UNL     1      -6.160   8.471  65.315  1.00  0.00    -0.049 A  
HETATM   38  C   UNL     1      -5.995   6.771  67.090  1.00  0.00    -0.021 C  
HETATM   39  C   UNL     1      -6.381  10.612  67.102  1.00  0.00    -0.070 A  
HETATM   40  C   UNL     1      -6.084   8.225  66.701  1.00  0.00    -0.053 A  
HETATM   41  C   UNL     1      -6.326   9.759  64.816  1.00  0.00    -0.097 A  
HETATM   42  C   UNL     1      -6.455  10.819  65.716  1.00  0.00    -0.074 A  
BRANCH  41  43
HETATM   43  C   UNL     1      -6.418  10.073  63.363  1.00  0.00    -0.136 C  
HETATM   44  H2  UNL     1      -4.385  10.465  63.166  1.00  0.00     0.000 HD 
HETATM   45  H1  UNL     1      -5.347  10.635  61.688  1.00  0.00     0.000 HD 
HETATM   46  N   UNL     1      -5.283  10.421  62.683  1.00  0.00    -0.110 N  
HETATM   47  O   UNL     1      -7.487  10.027  62.762  1.00  0.00    -0.122 OA 
ENDBRANCH  41  43
ENDBRANCH  34  35
ENDBRANCH  30  34
ENDBRANCH  15  30
ENDBRANCH  12  13
ENDBRANCH   6  12
ENDBRANCH   2   3
TORSDOF 10
ENDMDL
MODEL      102
REMARK 921   NORMALIZED FREE ENERGY PREDICTED BY IDOCK:   -4.80 KCAL/MOL
REMARK 922        TOTAL FREE ENERGY PREDICTED BY IDOCK:  -10.48 KCAL/MOL
REMARK 923 INTER-LIGAND FREE ENERGY PREDICTED BY IDOCK:   -9.42 KCAL/MOL
REMARK 924 INTRA-LIGAND FREE ENERGY PREDICTED BY IDOCK:   -1.06 KCAL/MOL
REMARK 927      BINDING AFFINITY PREDICTED BY RF-SCORE:    0.00 PKD
ROOT
HETATM    1  C   UNL     1      -6.770  17.776  66.055  1.00  0.00    -0.281 C  
HETATM    2  O   UNL     1      -6.569  16.481  66.624  1.00  0.00    -0.233 OA 
ENDROOT
BRANCH   2   3
HETATM    3  C   UNL     1      -7.684  15.705  66.816  1.00  0.00    -0.134 A  
HETATM    4  C   UNL     1      -8.800  15.727  65.975  1.00  0.00    -0.260 A  
HETATM    5  C   UNL     1      -9.862  14.838  66.171  1.00  0.00    -0.335 A  
HETATM    6  C   UNL     1      -9.861  13.929  67.232  1.00  0.00    -0.244 A  
HETATM    7  C   UNL     1      -8.769  13.949  68.114  1.00  0.00    -0.182 A  
HETATM    8  C   UNL     1      -6.574  14.739  68.903  1.00  0.00    -0.091 C  
HETATM    9  O   UNL     1      -5.353  15.035  68.415  1.00  0.00    -0.095 OA 
HETATM   10  C   UNL     1      -7.680  14.819  67.908  1.00  0.00    -0.146 A  
HETATM   11  O   UNL     1      -6.756  14.367  70.052  1.00  0.00    -0.145 OA 
BRANCH   6  12
HETATM   12  C   UNL     1     -10.971  12.915  67.426  1.00  0.00    -0.260 C  
BRANCH  12  13
HETATM   13  N   UNL     1     -11.415  12.705  68.816  1.00  0.00    -0.282 N  
HETATM   14  O   UNL     1     -11.724  11.300  70.629  1.00  0.00    -0.318 OA 
HETATM   15  C   UNL     1     -11.203  11.497  69.524  1.00  0.00    -0.236 C  
BRANCH  13  16
HETATM   16  C   UNL     1     -12.399  13.672  69.371  1.00  0.00    -0.153 C  
HETATM   17  C   UNL     1     -12.970  13.270  70.744  1.00  0.00    -0.097 C  
BRANCH  16  18
HETATM   18  C   UNL     1     -11.796  15.054  69.509  1.00  0.00    -0.330 A  
HETATM   19  C   UNL     1     -10.333  16.573  70.209  1.00  0.00     0.332 A  
HETATM   20  C   UNL     1     -10.873  16.943  68.996  1.00  0.00    -0.255 A  
HETATM   21  N   UNL     1     -11.811  16.015  68.603  1.00  0.00    -0.401 NA 
HETATM   22  H   UNL     1     -12.402  16.060  67.773  1.00  0.00     0.000 HD 
HETATM   23  N   UNL     1     -10.949  15.391  70.539  1.00  0.00    -0.320 NA 
BRANCH  20  24
HETATM   24  C   UNL     1     -10.481  18.064  68.153  1.00  0.00    -0.373 A  
HETATM   25  C   UNL     1     -10.583  19.158  65.972  1.00  0.00    -0.524 A  
HETATM   26  C   UNL     1      -9.667  20.116  66.396  1.00  0.00    -0.538 A  
HETATM   27  C   UNL     1      -9.169  20.066  67.698  1.00  0.00    -0.457 A  
HETATM   28  C   UNL     1     -10.986  18.143  66.844  1.00  0.00     0.057 A  
HETATM   29  C   UNL     1      -9.576  19.049  68.574  1.00  0.00    -0.442 A  
ENDBRANCH  20  24
ENDBRANCH  16  18
ENDBRANCH  13  16
BRANCH  15  30
HETATM   30  C   UNL     1     -10.252  10.422  68.877  1.00  0.00    -0.205 C  
HETATM   31  H2  UNL     1     -10.449   9.095  70.487  1.00  0.00     0.000 HD 
HETATM   32  N   UNL     1      -9.709   9.523  69.932  1.00  0.00    -0.209 NA 
HETATM   33  H1  UNL     1      -9.093   8.827  69.512  1.00  0.00     0.000 HD 
BRANCH  30  34
HETATM   34  C   UNL     1     -10.896   9.493  67.823  1.00  0.00    -0.258 C  
BRANCH  34  35
HETATM   35  C   UNL     1     -10.023   8.505  67.074  1.00  0.00    -0.318 A  
HETATM   36  C   UNL     1     -11.158   6.555  68.324  1.00  0.00    -0.332 C  
HETATM   37  C   UNL     1      -8.221   7.966  65.512  1.00  0.00    -0.140 A  
HETATM   38  C   UNL     1      -8.570  10.359  65.982  1.00  0.00    -0.158 C  
HETATM   39  C   UNL     1     -10.181   7.114  67.317  1.00  0.00    -0.315 A  
HETATM   40  C   UNL     1      -8.981   8.926  66.211  1.00  0.00    -0.207 A  
HETATM   41  C   UNL     1      -8.438   6.603  65.688  1.00  0.00    -0.147 A  
HETATM   42  C   UNL     1      -9.404   6.187  66.606  1.00  0.00    -0.161 A  
BRANCH  41  43
HETATM   43  C   UNL     1      -7.660   5.548  64.979  1.00  0.00    -0.081 C  
HETATM   44  H2  UNL     1      -8.844   3.990  65.685  1.00  0.00     0.000 HD 
HETATM   45  H1  UNL     1      -7.506   3.519  64.624  1.00  0.00     0.000 HD 
HETATM   46  N   UNL     1      -8.039   4.240  65.110  1.00  0.00    -0.100 N  
HETATM   47  O   UNL     1      -6.688   5.825  64.283  1.00  0.00    -0.043 OA 
ENDBRANCH  41  43
ENDBRANCH  34  35
ENDBRANCH  30  34
ENDBRANCH  15  30
ENDBRANCH  12  13
ENDBRANCH   6  12
ENDBRANCH   2   3
TORSDOF 10
ENDMDL
MODEL      103
REMARK 921   NORMALIZED FREE ENERGY PREDICTED BY IDOCK:   -4.80 KCAL/MOL
REMARK 922        TOTAL FREE ENERGY PREDICTED BY IDOCK:  -10.47 KCAL/MOL
REMARK 923 INTER-LIGAND FREE ENERGY PREDICTED BY IDOCK:   -9.83 KCAL/MOL
REMARK 924 INTRA-LIGAND FREE ENERGY PREDICTED BY IDOCK:   -0.64 KCAL/MOL
REMARK 927      BINDING AFFINITY PREDICTED BY RF-SCORE:    0.00 PKD
ROOT
HETATM    1  C   UNL     1      -6.273   9.555  63.147  1.00  0.00    -0.102 C  
HETATM    2  O   UNL     1      -7.377   8.733  63.526  1.00  0.00    -0.096 OA 
ENDROOT
BRANCH   2   3
HETATM    3  C   UNL     1      -8.286   9.276  64.400  1.00  0.00    -0.151 A  
HETATM    4  C   UNL     1      -8.847  10.546  64.248  1.00  0.00    -0.209 A  
HETATM    5  C   UNL     1      -9.841  10.999  65.121  1.00  0.00    -0.319 A  
HETATM    6  C   UNL     1     -10.279  10.215  66.192  1.00  0.00    -0.285 A  
HETATM    7  C   UNL     1      -9.672   8.964  66.381  1.00  0.00    -0.332 A  
HETATM    8  C   UNL     1      -8.130   7.138  65.788  1.00  0.00    -0.130 C  
HETATM    9  O   UNL     1      -7.733   6.440  64.706  1.00  0.00    -0.091 OA 
HETATM   10  C   UNL     1      -8.691   8.486  65.491  1.00  0.00    -0.208 A  
HETATM   11  O   UNL     1      -8.099   6.680  66.920  1.00  0.00    -0.110 OA 
BRANCH   6  12
HETATM   12  C   UNL     1     -11.400  10.659  67.111  1.00  0.00     0.036 C  
BRANCH  12  13
HETATM   13  N   UNL     1     -11.250  11.999  67.708  1.00  0.00    -0.251 N  
HETATM   14  O   UNL     1     -11.568  13.444  69.488  1.00  0.00    -0.281 OA 
HETATM   15  C   UNL     1     -11.555  12.282  69.061  1.00  0.00    -0.316 C  
BRANCH  13  16
HETATM   16  C   UNL     1     -11.087  13.146  66.778  1.00  0.00    -0.289 C  
HETATM   17  C   UNL     1     -12.377  13.953  66.541  1.00  0.00    -0.447 C  
BRANCH  16  18
HETATM   18  C   UNL     1     -10.026  14.108  67.271  1.00  0.00    -0.249 A  
HETATM   19  C   UNL     1      -7.963  14.875  67.578  1.00  0.00    -0.178 A  
HETATM   20  C   UNL     1      -8.865  15.916  67.528  1.00  0.00    -0.189 A  
HETATM   21  N   UNL     1     -10.141  15.418  67.385  1.00  0.00    -0.232 NA 
HETATM   22  H   UNL     1     -11.007  15.957  67.371  1.00  0.00     0.000 HD 
HETATM   23  N   UNL     1      -8.714  13.733  67.446  1.00  0.00    -0.196 NA 
BRANCH  20  24
HETATM   24  C   UNL     1      -8.576  17.344  67.509  1.00  0.00    -0.221 A  
HETATM   25  C   UNL     1      -8.935  19.548  68.494  1.00  0.00    -0.395 A  
HETATM   26  C   UNL     1      -8.194  20.139  67.475  1.00  0.00    -0.373 A  
HETATM   27  C   UNL     1      -7.628  19.339  66.482  1.00  0.00    -0.264 A  
HETATM   28  C   UNL     1      -9.122  18.164  68.510  1.00  0.00    -0.318 A  
HETATM   29  C   UNL     1      -7.812  17.948  66.500  1.00  0.00    -0.298 A  
ENDBRANCH  20  24
ENDBRANCH  16  18
ENDBRANCH  13  16
BRANCH  15  30
HETATM   30  C   UNL     1     -11.845  11.068  70.021  1.00  0.00    -0.355 C  
HETATM   31  H2  UNL     1     -13.587  10.511  68.997  1.00  0.00     0.000 HD 
HETATM   32  N   UNL     1     -13.286  10.698  69.952  1.00  0.00    -0.344 NA 
HETATM   33  H1  UNL     1     -13.473   9.912  70.574  1.00  0.00     0.000 HD 
BRANCH  30  34
HETATM   34  C   UNL     1     -11.063   9.768  69.725  1.00  0.00    -0.272 C  
BRANCH  34  35
HETATM   35  C   UNL     1      -9.953   9.341  70.667  1.00  0.00    -0.336 A  
HETATM   36  C   UNL     1     -11.708   8.418  72.316  1.00  0.00    -0.453 C  
HETATM   37  C   UNL     1      -7.599   9.214  71.315  1.00  0.00    -0.064 A  
HETATM   38  C   UNL     1      -8.096  10.507  69.277  1.00  0.00    -0.152 C  
HETATM   39  C   UNL     1     -10.287   8.685  71.882  1.00  0.00    -0.405 A  
HETATM   40  C   UNL     1      -8.595   9.666  70.425  1.00  0.00    -0.200 A  
HETATM   41  C   UNL     1      -7.924   8.496  72.461  1.00  0.00    -0.105 A  
HETATM   42  C   UNL     1      -9.269   8.254  72.747  1.00  0.00    -0.336 A  
BRANCH  41  43
HETATM   43  C   UNL     1      -6.911   8.001  73.436  1.00  0.00    -0.110 C  
HETATM   44  H2  UNL     1      -6.682   6.162  72.492  1.00  0.00     0.000 HD 
HETATM   45  H1  UNL     1      -5.692   6.411  73.940  1.00  0.00     0.000 HD 
HETATM   46  N   UNL     1      -6.385   6.750  73.272  1.00  0.00    -0.062 N  
HETATM   47  O   UNL     1      -6.540   8.690  74.381  1.00  0.00    -0.143 OA 
ENDBRANCH  41  43
ENDBRANCH  34  35
ENDBRANCH  30  34
ENDBRANCH  15  30
ENDBRANCH  12  13
ENDBRANCH   6  12
ENDBRANCH   2   3
TORSDOF 10
ENDMDL
MODEL      104
REMARK 921   NORMALIZED FREE ENERGY PREDICTED BY IDOCK:   -4.77 KCAL/MOL
REMARK 922        TOTAL FREE ENERGY PREDICTED BY IDOCK:  -10.43 KCAL/MOL
REMARK 923 INTER-LIGAND FREE ENERGY PREDICTED BY IDOCK:   -9.07 KCAL/MOL
REMARK 924 INTRA-LIGAND FREE ENERGY PREDICTED BY IDOCK:   -1.36 KCAL/MOL
REMARK 927      BINDING AFFINITY PREDICTED BY RF-SCORE:    0.00 PKD
ROOT
HETATM    1  C   UNL     1     -12.590  13.913  65.598  1.00  0.00    -0.517 C  
HETATM    2  O   UNL     1     -11.412  13.432  66.249  1.00  0.00    -0.307 OA 
ENDROOT
BRANCH   2   3
HETATM    3  C   UNL     1     -10.809  12.326  65.706  1.00  0.00    -0.278 A  
HETATM    4  C   UNL     1     -10.228  12.303  64.435  1.00  0.00    -0.341 A  
HETATM    5  C   UNL     1      -9.542  11.172  63.981  1.00  0.00    -0.288 A  
HETATM    6  C   UNL     1      -9.445  10.019  64.766  1.00  0.00    -0.366 A  
HETATM    7  C   UNL     1     -10.080  10.020  66.018  1.00  0.00    -0.318 A  
HETATM    8  C   UNL     1     -11.372  11.049  67.844  1.00  0.00    -0.311 C  
HETATM    9  O   UNL     1     -11.425  12.201  68.542  1.00  0.00    -0.250 OA 
HETATM   10  C   UNL     1     -10.748  11.164  66.496  1.00  0.00    -0.314 A  
HETATM   11  O   UNL     1     -11.740   9.979  68.303  1.00  0.00    -0.085 OA 
BRANCH   6  12
HETATM   12  C   UNL     1      -8.653   8.805  64.321  1.00  0.00    -0.068 C  
BRANCH  12  13
HETATM   13  N   UNL     1      -7.654   8.301  65.281  1.00  0.00    -0.089 N  
HETATM   14  O   UNL     1      -7.020   6.758  66.886  1.00  0.00    -0.066 OA 
HETATM   15  C   UNL     1      -7.797   7.075  65.975  1.00  0.00    -0.104 C  
BRANCH  13  16
HETATM   16  C   UNL     1      -6.633   9.263  65.773  1.00  0.00    -0.069 C  
HETATM   17  C   UNL     1      -6.425  10.483  64.856  1.00  0.00    -0.008 C  
BRANCH  16  18
HETATM   18  C   UNL     1      -6.981   9.777  67.154  1.00  0.00    -0.085 A  
HETATM   19  C   UNL     1      -7.849  11.182  68.641  1.00  0.00    -0.138 A  
HETATM   20  C   UNL     1      -7.842   9.895  69.135  1.00  0.00    -0.105 A  
HETATM   21  N   UNL     1      -7.258   9.049  68.220  1.00  0.00    -0.078 NA 
HETATM   22  H   UNL     1      -7.074   8.054  68.342  1.00  0.00     0.000 HD 
HETATM   23  N   UNL     1      -7.271  11.099  67.398  1.00  0.00    -0.100 NA 
BRANCH  20  24
HETATM   24  C   UNL     1      -8.443   9.415  70.373  1.00  0.00    -0.247 A  
HETATM   25  C   UNL     1      -8.167   8.244  72.497  1.00  0.00    -0.224 A  
HETATM   26  C   UNL     1      -9.536   8.321  72.733  1.00  0.00    -0.338 A  
HETATM   27  C   UNL     1     -10.361   8.958  71.804  1.00  0.00    -0.426 A  
HETATM   28  C   UNL     1      -7.627   8.787  71.329  1.00  0.00    -0.134 A  
HETATM   29  C   UNL     1      -9.818   9.506  70.633  1.00  0.00    -0.328 A  
ENDBRANCH  20  24
ENDBRANCH  16  18
ENDBRANCH  13  16
BRANCH  15  30
HETATM   30  C   UNL     1      -8.956   6.107  65.530  1.00  0.00     0.012 C  
HETATM   31  H2  UNL     1      -7.795   5.198  64.040  1.00  0.00     0.000 HD 
HETATM   32  N   UNL     1      -8.714   5.629  64.141  1.00  0.00    -0.347 NA 
HETATM   33  H1  UNL     1      -9.465   5.002  63.854  1.00  0.00     0.000 HD 
BRANCH  30  34
HETATM   34  C   UNL     1      -9.143   4.835  66.387  1.00  0.00    -0.119 C  
BRANCH  34  35
HETATM   35  C   UNL     1      -9.613   4.971  67.823  1.00  0.00    -0.178 A  
HETATM   36  C   UNL     1      -8.272   2.862  68.461  1.00  0.00    -0.080 C  
HETATM   37  C   UNL     1     -10.942   6.051  69.568  1.00  0.00    -0.467 A  
HETATM   38  C   UNL     1     -11.264   6.899  67.277  1.00  0.00    -0.231 C  
HETATM   39  C   UNL     1      -9.169   4.031  68.791  1.00  0.00    -0.211 A  
HETATM   40  C   UNL     1     -10.565   5.945  68.213  1.00  0.00    -0.310 A  
HETATM   41  C   UNL     1     -10.438   5.181  70.530  1.00  0.00    -0.278 A  
HETATM   42  C   UNL     1      -9.569   4.164  70.129  1.00  0.00    -0.272 A  
BRANCH  41  43
HETATM   43  C   UNL     1     -10.807   5.246  71.971  1.00  0.00    -0.163 C  
HETATM   44  H2  UNL     1      -9.057   4.326  72.615  1.00  0.00     0.000 HD 
HETATM   45  H1  UNL     1     -10.197   4.786  73.890  1.00  0.00     0.000 HD 
HETATM   46  N   UNL     1      -9.944   4.741  72.904  1.00  0.00    -0.151 N  
HETATM   47  O   UNL     1     -11.868   5.740  72.341  1.00  0.00    -0.293 OA 
ENDBRANCH  41  43
ENDBRANCH  34  35
ENDBRANCH  30  34
ENDBRANCH  15  30
ENDBRANCH  12  13
ENDBRANCH   6  12
ENDBRANCH   2   3
TORSDOF 10
ENDMDL
MODEL      105
REMARK 921   NORMALIZED FREE ENERGY PREDICTED BY IDOCK:   -4.73 KCAL/MOL
REMARK 922        TOTAL FREE ENERGY PREDICTED BY IDOCK:  -10.36 KCAL/MOL
REMARK 923 INTER-LIGAND FREE ENERGY PREDICTED BY IDOCK:   -8.92 KCAL/MOL
REMARK 924 INTRA-LIGAND FREE ENERGY PREDICTED BY IDOCK:   -1.44 KCAL/MOL
REMARK 927      BINDING AFFINITY PREDICTED BY RF-SCORE:    0.00 PKD
ROOT
HETATM    1  C   UNL     1      -6.991  16.910  66.461  1.00  0.00    -0.227 C  
HETATM    2  O   UNL     1      -8.270  17.075  67.075  1.00  0.00    -0.185 OA 
ENDROOT
BRANCH   2   3
HETATM    3  C   UNL     1      -9.117  15.994  67.050  1.00  0.00    -0.214 A  
HETATM    4  C   UNL     1      -8.921  14.837  67.808  1.00  0.00    -0.182 A  
HETATM    5  C   UNL     1      -9.874  13.813  67.812  1.00  0.00    -0.234 A  
HETATM    6  C   UNL     1     -11.031  13.897  67.032  1.00  0.00    -0.301 A  
HETATM    7  C   UNL     1     -11.198  15.032  66.223  1.00  0.00    -0.309 A  
HETATM    8  C   UNL     1     -10.552  17.239  65.344  1.00  0.00    -0.072 C  
HETATM    9  O   UNL     1     -10.085  18.424  65.786  1.00  0.00    -0.553 OA 
HETATM   10  C   UNL     1     -10.259  16.081  66.235  1.00  0.00    -0.329 A  
HETATM   11  O   UNL     1     -11.223  17.128  64.330  1.00  0.00    -1.126 OA 
BRANCH   6  12
HETATM   12  C   UNL     1     -12.107  12.829  67.068  1.00  0.00    -0.182 C  
BRANCH  12  13
HETATM   13  N   UNL     1     -11.661  11.454  66.782  1.00  0.00    -0.091 N  
HETATM   14  O   UNL     1     -10.772   9.445  67.510  1.00  0.00    -0.280 OA 
HETATM   15  C   UNL     1     -11.289  10.534  67.791  1.00  0.00    -0.190 C  
BRANCH  13  16
HETATM   16  C   UNL     1     -11.281  11.138  65.380  1.00  0.00     0.091 C  
HETATM   17  C   UNL     1     -11.452  12.314  64.401  1.00  0.00    -0.417 C  
BRANCH  16  18
HETATM   18  C   UNL     1      -9.843  10.669  65.291  1.00  0.00    -0.275 A  
HETATM   19  C   UNL     1      -7.685  10.621  65.816  1.00  0.00    -0.130 A  
HETATM   20  C   UNL     1      -8.102   9.386  65.367  1.00  0.00    -0.118 A  
HETATM   21  N   UNL     1      -9.428   9.449  65.002  1.00  0.00    -0.443 NA 
HETATM   22  H   UNL     1      -9.982   8.699  64.590  1.00  0.00     0.000 HD 
HETATM   23  N   UNL     1      -8.789  11.433  65.732  1.00  0.00    -0.159 NA 
BRANCH  20  24
HETATM   24  C   UNL     1      -7.347   8.141  65.360  1.00  0.00    -0.069 A  
HETATM   25  C   UNL     1      -7.365   5.702  65.255  1.00  0.00    -0.072 A  
HETATM   26  C   UNL     1      -5.991   5.670  65.477  1.00  0.00    -0.025 A  
HETATM   27  C   UNL     1      -5.288   6.866  65.623  1.00  0.00    -0.026 A  
HETATM   28  C   UNL     1      -8.034   6.927  65.195  1.00  0.00    -0.125 A  
HETATM   29  C   UNL     1      -5.959   8.095  65.560  1.00  0.00    -0.045 A  
ENDBRANCH  20  24
ENDBRANCH  16  18
ENDBRANCH  13  16
BRANCH  15  30
HETATM   30  C   UNL     1     -11.585  10.924  69.288  1.00  0.00    -0.318 C  
HETATM   31  H2  UNL     1     -13.107   9.497  69.491  1.00  0.00     0.000 HD 
HETATM   32  N   UNL     1     -12.959  10.491  69.664  1.00  0.00    -0.537 NA 
HETATM   33  H1  UNL     1     -13.150  10.744  70.633  1.00  0.00     0.000 HD 
BRANCH  30  34
HETATM   34  C   UNL     1     -10.645  10.307  70.348  1.00  0.00    -0.212 C  
BRANCH  34  35
HETATM   35  C   UNL     1      -9.764   9.133  69.964  1.00  0.00    -0.217 A  
HETATM   36  C   UNL     1     -11.598   7.499  70.752  1.00  0.00    -0.300 C  
HETATM   37  C   UNL     1      -7.666   8.185  69.143  1.00  0.00    -0.098 A  
HETATM   38  C   UNL     1      -7.710  10.630  69.438  1.00  0.00    -0.132 C  
HETATM   39  C   UNL     1     -10.249   7.810  70.149  1.00  0.00    -0.205 A  
HETATM   40  C   UNL     1      -8.429   9.308  69.520  1.00  0.00    -0.144 A  
HETATM   41  C   UNL     1      -8.176   6.894  69.245  1.00  0.00    -0.125 A  
HETATM   42  C   UNL     1      -9.458   6.716  69.767  1.00  0.00    -0.150 A  
BRANCH  41  43
HETATM   43  C   UNL     1      -7.409   5.675  68.865  1.00  0.00    -0.082 C  
HETATM   44  H2  UNL     1      -9.103   4.596  68.324  1.00  0.00     0.000 HD 
HETATM   45  H1  UNL     1      -7.560   3.744  68.146  1.00  0.00     0.000 HD 
HETATM   46  N   UNL     1      -8.085   4.579  68.406  1.00  0.00    -0.082 N  
HETATM   47  O   UNL     1      -6.186   5.631  68.956  1.00  0.00    -0.026 OA 
ENDBRANCH  41  43
ENDBRANCH  34  35
ENDBRANCH  30  34
ENDBRANCH  15  30
ENDBRANCH  12  13
ENDBRANCH   6  12
ENDBRANCH   2   3
TORSDOF 10
ENDMDL
MODEL      106
REMARK 921   NORMALIZED FREE ENERGY PREDICTED BY IDOCK:   -4.72 KCAL/MOL
REMARK 922        TOTAL FREE ENERGY PREDICTED BY IDOCK:  -10.35 KCAL/MOL
REMARK 923 INTER-LIGAND FREE ENERGY PREDICTED BY IDOCK:   -8.29 KCAL/MOL
REMARK 924 INTRA-LIGAND FREE ENERGY PREDICTED BY IDOCK:   -2.06 KCAL/MOL
REMARK 927      BINDING AFFINITY PREDICTED BY RF-SCORE:    0.00 PKD
ROOT
HETATM    1  C   UNL     1      -5.289   5.925  70.272  1.00  0.00    -0.012 C  
HETATM    2  O   UNL     1      -6.059   7.097  70.543  1.00  0.00    -0.027 OA 
ENDROOT
BRANCH   2   3
HETATM    3  C   UNL     1      -6.219   7.989  69.512  1.00  0.00    -0.034 A  
HETATM    4  C   UNL     1      -5.327   8.108  68.443  1.00  0.00    -0.033 A  
HETATM    5  C   UNL     1      -5.602   8.968  67.374  1.00  0.00    -0.042 A  
HETATM    6  C   UNL     1      -6.753   9.761  67.358  1.00  0.00    -0.074 A  
HETATM    7  C   UNL     1      -7.617   9.687  68.461  1.00  0.00    -0.080 A  
HETATM    8  C   UNL     1      -8.362   8.804  70.636  1.00  0.00    -0.154 C  
HETATM    9  O   UNL     1      -8.502   7.623  71.272  1.00  0.00    -0.113 OA 
HETATM   10  C   UNL     1      -7.366   8.802  69.528  1.00  0.00    -0.067 A  
HETATM   11  O   UNL     1      -9.046   9.781  70.897  1.00  0.00    -0.120 OA 
BRANCH   6  12
HETATM   12  C   UNL     1      -7.102  10.652  66.182  1.00  0.00    -0.138 C  
BRANCH  12  13
HETATM   13  N   UNL     1      -8.430  10.434  65.581  1.00  0.00    -0.159 N  
HETATM   14  O   UNL     1     -10.722  10.756  65.619  1.00  0.00    -0.183 OA 
HETATM   15  C   UNL     1      -9.604  11.077  66.042  1.00  0.00    -0.215 C  
BRANCH  13  16
HETATM   16  C   UNL     1      -8.589   9.262  64.681  1.00  0.00    -0.187 C  
HETATM   17  C   UNL     1      -7.425   9.066  63.692  1.00  0.00    -0.103 C  
BRANCH  16  18
HETATM   18  C   UNL     1      -8.745   7.978  65.471  1.00  0.00    -0.102 A  
HETATM   19  C   UNL     1      -8.069   6.112  66.469  1.00  0.00    -0.110 A  
HETATM   20  C   UNL     1      -9.193   6.615  67.090  1.00  0.00    -0.126 A  
HETATM   21  N   UNL     1      -9.623   7.743  66.428  1.00  0.00    -0.346 NA 
HETATM   22  H   UNL     1     -10.458   8.290  66.636  1.00  0.00     0.000 HD 
HETATM   23  N   UNL     1      -7.814   6.966  65.425  1.00  0.00    -0.107 NA 
BRANCH  20  24
HETATM   24  C   UNL     1      -9.815   6.145  68.321  1.00  0.00    -0.138 A  
HETATM   25  C   UNL     1     -11.549   6.438  70.014  1.00  0.00    -0.446 A  
HETATM   26  C   UNL     1     -11.004   5.404  70.769  1.00  0.00    -0.109 A  
HETATM   27  C   UNL     1      -9.878   4.726  70.300  1.00  0.00    -0.313 A  
HETATM   28  C   UNL     1     -10.960   6.803  68.800  1.00  0.00    -0.267 A  
HETATM   29  C   UNL     1      -9.289   5.090  69.080  1.00  0.00    -0.174 A  
ENDBRANCH  20  24
ENDBRANCH  16  18
ENDBRANCH  13  16
BRANCH  15  30
HETATM   30  C   UNL     1      -9.442  12.243  67.088  1.00  0.00    -0.196 C  
HETATM   31  H2  UNL     1      -8.469  13.502  65.724  1.00  0.00     0.000 HD 
HETATM   32  N   UNL     1      -8.338  13.150  66.672  1.00  0.00    -0.410 NA 
HETATM   33  H1  UNL     1      -8.234  13.905  67.349  1.00  0.00     0.000 HD 
BRANCH  30  34
HETATM   34  C   UNL     1     -10.677  13.150  67.289  1.00  0.00    -0.262 C  
BRANCH  34  35
HETATM   35  C   UNL     1     -10.544  14.645  67.068  1.00  0.00    -0.280 A  
HETATM   36  C   UNL     1     -11.280  14.347  64.614  1.00  0.00    -0.366 C  
HETATM   37  C   UNL     1      -9.948  16.894  67.817  1.00  0.00    -0.278 A  
HETATM   38  C   UNL     1      -9.481  15.065  69.399  1.00  0.00    -0.132 C  
HETATM   39  C   UNL     1     -10.854  15.189  65.793  1.00  0.00    -0.358 A  
HETATM   40  C   UNL     1     -10.019  15.508  68.062  1.00  0.00    -0.214 A  
HETATM   41  C   UNL     1     -10.336  17.435  66.595  1.00  0.00    -0.306 A  
HETATM   42  C   UNL     1     -10.767  16.574  65.584  1.00  0.00    -0.257 A  
BRANCH  41  43
HETATM   43  C   UNL     1     -10.276  18.890  66.283  1.00  0.00    -0.438 C  
HETATM   44  H2  UNL     1      -9.178  19.362  67.986  1.00  0.00     0.000 HD 
HETATM   45  H1  UNL     1      -9.579  20.725  66.928  1.00  0.00     0.000 HD 
HETATM   46  N   UNL     1      -9.620  19.729  67.142  1.00  0.00    -0.339 N  
HETATM   47  O   UNL     1     -10.801  19.354  65.276  1.00  0.00    -0.477 OA 
ENDBRANCH  41  43
ENDBRANCH  34  35
ENDBRANCH  30  34
ENDBRANCH  15  30
ENDBRANCH  12  13
ENDBRANCH   6  12
ENDBRANCH   2   3
TORSDOF 10
ENDMDL
MODEL      107
REMARK 921   NORMALIZED FREE ENERGY PREDICTED BY IDOCK:   -4.72 KCAL/MOL
REMARK 922        TOTAL FREE ENERGY PREDICTED BY IDOCK:  -10.34 KCAL/MOL
REMARK 923 INTER-LIGAND FREE ENERGY PREDICTED BY IDOCK:   -9.37 KCAL/MOL
REMARK 924 INTRA-LIGAND FREE ENERGY PREDICTED BY IDOCK:   -0.98 KCAL/MOL
REMARK 927      BINDING AFFINITY PREDICTED BY RF-SCORE:    0.00 PKD
ROOT
HETATM    1  C   UNL     1      -6.946  17.450  66.269  1.00  0.00    -0.284 C  
HETATM    2  O   UNL     1      -6.698  16.104  66.676  1.00  0.00    -0.249 OA 
ENDROOT
BRANCH   2   3
HETATM    3  C   UNL     1      -7.795  15.322  66.941  1.00  0.00    -0.117 A  
HETATM    4  C   UNL     1      -8.926  15.268  66.122  1.00  0.00    -0.251 A  
HETATM    5  C   UNL     1      -9.967  14.375  66.397  1.00  0.00    -0.305 A  
HETATM    6  C   UNL     1      -9.929  13.538  67.515  1.00  0.00    -0.230 A  
HETATM    7  C   UNL     1      -8.822  13.637  68.373  1.00  0.00    -0.152 A  
HETATM    8  C   UNL     1      -6.628  14.517  69.064  1.00  0.00    -0.100 C  
HETATM    9  O   UNL     1      -5.422  14.802  68.534  1.00  0.00    -0.090 OA 
HETATM   10  C   UNL     1      -7.754  14.510  68.088  1.00  0.00    -0.128 A  
HETATM   11  O   UNL     1      -6.782  14.218  70.239  1.00  0.00    -0.096 OA 
BRANCH   6  12
HETATM   12  C   UNL     1     -11.015  12.520  67.798  1.00  0.00    -0.234 C  
BRANCH  12  13
HETATM   13  N   UNL     1     -11.571  12.532  69.163  1.00  0.00    -0.301 N  
HETATM   14  O   UNL     1     -12.067  11.423  71.134  1.00  0.00    -0.264 OA 
HETATM   15  C   UNL     1     -11.458  11.439  70.056  1.00  0.00    -0.247 C  
BRANCH  13  16
HETATM   16  C   UNL     1     -12.556  13.596  69.490  1.00  0.00     0.141 C  
HETATM   17  C   UNL     1     -13.335  13.354  70.796  1.00  0.00     0.197 C  
BRANCH  16  18
HETATM   18  C   UNL     1     -11.889  14.952  69.595  1.00  0.00    -0.318 A  
HETATM   19  C   UNL     1     -10.318  16.403  70.199  1.00  0.00     0.095 A  
HETATM   20  C   UNL     1     -10.931  16.808  69.033  1.00  0.00    -0.239 A  
HETATM   21  N   UNL     1     -11.932  15.923  68.702  1.00  0.00    -0.470 NA 
HETATM   22  H   UNL     1     -12.580  16.002  67.918  1.00  0.00     0.000 HD 
HETATM   23  N   UNL     1     -10.956  15.243  70.563  1.00  0.00    -0.301 NA 
BRANCH  20  24
HETATM   24  C   UNL     1     -10.557  17.924  68.173  1.00  0.00    -0.351 A  
HETATM   25  C   UNL     1      -9.709  20.205  67.982  1.00  0.00    -0.464 A  
HETATM   26  C   UNL     1      -9.939  20.189  66.610  1.00  0.00    -0.595 A  
HETATM   27  C   UNL     1     -10.460  19.042  66.011  1.00  0.00    -0.530 A  
HETATM   28  C   UNL     1     -10.014  19.081  68.754  1.00  0.00    -0.475 A  
HETATM   29  C   UNL     1     -10.763  17.913  66.786  1.00  0.00    -0.157 A  
ENDBRANCH  20  24
ENDBRANCH  16  18
ENDBRANCH  13  16
BRANCH  15  30
HETATM   30  C   UNL     1     -10.501  10.255  69.653  1.00  0.00    -0.253 C  
HETATM   31  H2  UNL     1     -10.079   9.750  71.643  1.00  0.00     0.000 HD 
HETATM   32  N   UNL     1      -9.577   9.943  70.777  1.00  0.00    -0.272 NA 
HETATM   33  H1  UNL     1      -8.958   9.176  70.515  1.00  0.00     0.000 HD 
BRANCH  30  34
HETATM   34  C   UNL     1     -11.191   8.920  69.292  1.00  0.00     0.191 C  
BRANCH  34  35
HETATM   35  C   UNL     1     -11.132   7.766  70.275  1.00  0.00    -0.242 A  
HETATM   36  C   UNL     1      -9.033   6.858  69.083  1.00  0.00    -0.133 C  
HETATM   37  C   UNL     1     -12.025   6.481  72.153  1.00  0.00    -0.334 A  
HETATM   38  C   UNL     1     -13.408   8.364  71.372  1.00  0.00    -0.244 C  
HETATM   39  C   UNL     1     -10.086   6.811  70.165  1.00  0.00    -0.195 A  
HETATM   40  C   UNL     1     -12.147   7.548  71.241  1.00  0.00    -0.351 A  
HETATM   41  C   UNL     1     -10.952   5.597  72.096  1.00  0.00    -0.307 A  
HETATM   42  C   UNL     1     -10.000   5.758  71.088  1.00  0.00    -0.244 A  
BRANCH  41  43
HETATM   43  C   UNL     1     -10.780   4.451  73.032  1.00  0.00    -0.207 C  
HETATM   44  H2  UNL     1     -10.781   3.023  71.520  1.00  0.00     0.000 HD 
HETATM   45  H1  UNL     1     -10.596   2.398  73.166  1.00  0.00     0.000 HD 
HETATM   46  N   UNL     1     -10.714   3.182  72.525  1.00  0.00     0.019 N  
HETATM   47  O   UNL     1     -10.698   4.618  74.245  1.00  0.00    -0.280 OA 
ENDBRANCH  41  43
ENDBRANCH  34  35
ENDBRANCH  30  34
ENDBRANCH  15  30
ENDBRANCH  12  13
ENDBRANCH   6  12
ENDBRANCH   2   3
TORSDOF 10
ENDMDL
MODEL      108
REMARK 921   NORMALIZED FREE ENERGY PREDICTED BY IDOCK:   -4.69 KCAL/MOL
REMARK 922        TOTAL FREE ENERGY PREDICTED BY IDOCK:  -10.31 KCAL/MOL
REMARK 923 INTER-LIGAND FREE ENERGY PREDICTED BY IDOCK:   -8.56 KCAL/MOL
REMARK 924 INTRA-LIGAND FREE ENERGY PREDICTED BY IDOCK:   -1.74 KCAL/MOL
REMARK 927      BINDING AFFINITY PREDICTED BY RF-SCORE:    0.00 PKD
ROOT
HETATM    1  C   UNL     1      -8.600   5.315  71.659  1.00  0.00    -0.134 C  
HETATM    2  O   UNL     1      -9.389   6.453  71.311  1.00  0.00    -0.156 OA 
ENDROOT
BRANCH   2   3
HETATM    3  C   UNL     1      -8.751   7.478  70.658  1.00  0.00    -0.141 A  
HETATM    4  C   UNL     1      -7.445   7.392  70.167  1.00  0.00    -0.087 A  
HETATM    5  C   UNL     1      -6.889   8.437  69.423  1.00  0.00    -0.046 A  
HETATM    6  C   UNL     1      -7.603   9.614  69.179  1.00  0.00    -0.082 A  
HETATM    7  C   UNL     1      -8.892   9.726  69.725  1.00  0.00    -0.241 A  
HETATM    8  C   UNL     1     -10.850   8.898  70.967  1.00  0.00    -0.259 C  
HETATM    9  O   UNL     1     -11.610   7.789  71.065  1.00  0.00    -0.280 OA 
HETATM   10  C   UNL     1      -9.472   8.666  70.449  1.00  0.00    -0.192 A  
HETATM   11  O   UNL     1     -11.275  10.016  71.214  1.00  0.00    -0.341 OA 
BRANCH   6  12
HETATM   12  C   UNL     1      -7.045  10.734  68.323  1.00  0.00    -0.078 C  
BRANCH  12  13
HETATM   13  N   UNL     1      -7.692  10.927  67.013  1.00  0.00    -0.123 N  
HETATM   14  O   UNL     1      -9.315  11.941  65.711  1.00  0.00    -0.226 OA 
HETATM   15  C   UNL     1      -8.684  11.909  66.775  1.00  0.00    -0.193 C  
BRANCH  13  16
HETATM   16  C   UNL     1      -7.530   9.845  66.006  1.00  0.00    -0.106 C  
HETATM   17  C   UNL     1      -6.065   9.496  65.686  1.00  0.00    -0.064 C  
BRANCH  16  18
HETATM   18  C   UNL     1      -8.222   8.572  66.448  1.00  0.00    -0.108 A  
HETATM   19  C   UNL     1      -9.928   7.175  66.717  1.00  0.00    -0.208 A  
HETATM   20  C   UNL     1      -8.744   6.479  66.609  1.00  0.00    -0.128 A  
HETATM   21  N   UNL     1      -7.695   7.363  66.491  1.00  0.00    -0.092 NA 
HETATM   22  H   UNL     1      -6.703   7.129  66.446  1.00  0.00     0.000 HD 
HETATM   23  N   UNL     1      -9.581   8.502  66.646  1.00  0.00    -0.207 NA 
BRANCH  20  24
HETATM   24  C   UNL     1      -8.565   5.036  66.514  1.00  0.00    -0.110 A  
HETATM   25  C   UNL     1      -9.108   2.948  65.372  1.00  0.00    -0.149 A  
HETATM   26  C   UNL     1      -8.400   2.226  66.329  1.00  0.00    -0.095 A  
HETATM   27  C   UNL     1      -7.760   2.902  67.368  1.00  0.00    -0.069 A  
HETATM   28  C   UNL     1      -9.187   4.340  65.465  1.00  0.00    -0.150 A  
HETATM   29  C   UNL     1      -7.837   4.299  67.459  1.00  0.00    -0.088 A  
ENDBRANCH  20  24
ENDBRANCH  16  18
ENDBRANCH  13  16
BRANCH  15  30
HETATM   30  C   UNL     1      -8.937  12.985  67.896  1.00  0.00    -0.200 C  
HETATM   31  H2  UNL     1      -7.807  14.454  66.917  1.00  0.00     0.000 HD 
HETATM   32  N   UNL     1      -7.881  14.033  67.842  1.00  0.00    -0.143 NA 
HETATM   33  H1  UNL     1      -8.045  14.730  68.569  1.00  0.00     0.000 HD 
BRANCH  30  34
HETATM   34  C   UNL     1     -10.283  13.740  67.819  1.00  0.00    -0.241 C  
BRANCH  34  35
HETATM   35  C   UNL     1     -11.012  14.089  69.103  1.00  0.00    -0.263 A  
HETATM   36  C   UNL     1     -12.242  11.824  69.020  1.00  0.00    -0.132 C  
HETATM   37  C   UNL     1     -11.565  15.623  70.924  1.00  0.00    -0.424 A  
HETATM   38  C   UNL     1     -10.108  16.523  69.153  1.00  0.00    -0.287 C  
HETATM   39  C   UNL     1     -11.923  13.153  69.661  1.00  0.00    -0.370 A  
HETATM   40  C   UNL     1     -10.893  15.363  69.713  1.00  0.00    -0.297 A  
HETATM   41  C   UNL     1     -12.390  14.671  71.514  1.00  0.00    -0.415 A  
HETATM   42  C   UNL     1     -12.578  13.449  70.866  1.00  0.00    -0.406 A  
BRANCH  41  43
HETATM   43  C   UNL     1     -13.126  14.897  72.789  1.00  0.00    -0.462 C  
HETATM   44  H2  UNL     1     -14.134  16.574  72.083  1.00  0.00     0.000 HD 
HETATM   45  H1  UNL     1     -14.498  16.106  73.752  1.00  0.00     0.000 HD 
HETATM   46  N   UNL     1     -13.993  15.951  72.879  1.00  0.00    -0.521 N  
HETATM   47  O   UNL     1     -12.972  14.162  73.759  1.00  0.00    -0.251 OA 
ENDBRANCH  41  43
ENDBRANCH  34  35
ENDBRANCH  30  34
ENDBRANCH  15  30
ENDBRANCH  12  13
ENDBRANCH   6  12
ENDBRANCH   2   3
TORSDOF 10
ENDMDL
MODEL      109
REMARK 921   NORMALIZED FREE ENERGY PREDICTED BY IDOCK:   -4.69 KCAL/MOL
REMARK 922        TOTAL FREE ENERGY PREDICTED BY IDOCK:  -10.30 KCAL/MOL
REMARK 923 INTER-LIGAND FREE ENERGY PREDICTED BY IDOCK:   -7.65 KCAL/MOL
REMARK 924 INTRA-LIGAND FREE ENERGY PREDICTED BY IDOCK:   -2.65 KCAL/MOL
REMARK 927      BINDING AFFINITY PREDICTED BY RF-SCORE:    0.00 PKD
ROOT
HETATM    1  C   UNL     1      -6.469   9.487  64.806  1.00  0.00    -0.084 C  
HETATM    2  O   UNL     1      -5.948   9.601  66.131  1.00  0.00    -0.060 OA 
ENDROOT
BRANCH   2   3
HETATM    3  C   UNL     1      -6.855   9.579  67.161  1.00  0.00    -0.084 A  
HETATM    4  C   UNL     1      -7.435   8.409  67.660  1.00  0.00    -0.094 A  
HETATM    5  C   UNL     1      -8.276   8.447  68.777  1.00  0.00    -0.119 A  
HETATM    6  C   UNL     1      -8.594   9.655  69.405  1.00  0.00    -0.160 A  
HETATM    7  C   UNL     1      -8.062  10.836  68.866  1.00  0.00    -0.145 A  
HETATM    8  C   UNL     1      -6.678  12.123  67.287  1.00  0.00    -0.144 C  
HETATM    9  O   UNL     1      -5.451  12.085  66.730  1.00  0.00    -0.271 OA 
HETATM   10  C   UNL     1      -7.189  10.806  67.761  1.00  0.00    -0.088 A  
HETATM   11  O   UNL     1      -7.297  13.162  67.456  1.00  0.00    -0.141 OA 
BRANCH   6  12
HETATM   12  C   UNL     1      -9.453   9.713  70.653  1.00  0.00    -0.124 C  
BRANCH  12  13
HETATM   13  N   UNL     1     -10.849   9.266  70.497  1.00  0.00    -0.243 N  
HETATM   14  O   UNL     1     -12.386   7.556  70.231  1.00  0.00     0.155 OA 
HETATM   15  C   UNL     1     -11.233   7.904  70.520  1.00  0.00    -0.253 C  
BRANCH  13  16
HETATM   16  C   UNL     1     -11.828  10.255  69.974  1.00  0.00    -0.228 C  
HETATM   17  C   UNL     1     -12.092  11.440  70.922  1.00  0.00    -0.383 C  
BRANCH  16  18
HETATM   18  C   UNL     1     -11.383  10.820  68.641  1.00  0.00    -0.291 A  
HETATM   19  C   UNL     1     -11.127  10.861  66.434  1.00  0.00    -0.007 A  
HETATM   20  C   UNL     1     -11.204  12.142  66.938  1.00  0.00    -0.320 A  
HETATM   21  N   UNL     1     -11.314  12.096  68.309  1.00  0.00    -0.265 NA 
HETATM   22  H   UNL     1     -11.338  12.893  68.945  1.00  0.00     0.000 HD 
HETATM   23  N   UNL     1     -11.209  10.033  67.527  1.00  0.00    -0.174 NA 
BRANCH  20  24
HETATM   24  C   UNL     1     -11.278  13.389  66.188  1.00  0.00    -0.311 A  
HETATM   25  C   UNL     1     -12.328  14.678  64.401  1.00  0.00    -0.420 A  
HETATM   26  C   UNL     1     -11.408  15.706  64.585  1.00  0.00    -0.355 A  
HETATM   27  C   UNL     1     -10.434  15.591  65.577  1.00  0.00    -0.407 A  
HETATM   28  C   UNL     1     -12.263  13.532  65.197  1.00  0.00    -0.462 A  
HETATM   29  C   UNL     1     -10.372  14.442  66.379  1.00  0.00    -0.289 A  
ENDBRANCH  20  24
ENDBRANCH  16  18
ENDBRANCH  13  16
BRANCH  15  30
HETATM   30  C   UNL     1     -10.157   6.842  70.961  1.00  0.00    -0.193 C  
HETATM   31  H2  UNL     1     -11.226   6.284  72.676  1.00  0.00     0.000 HD 
HETATM   32  N   UNL     1     -10.281   6.568  72.419  1.00  0.00    -0.183 NA 
HETATM   33  H1  UNL     1      -9.583   5.881  72.704  1.00  0.00     0.000 HD 
BRANCH  30  34
HETATM   34  C   UNL     1     -10.239   5.465  70.266  1.00  0.00    -0.338 C  
BRANCH  34  35
HETATM   35  C   UNL     1      -9.369   5.194  69.053  1.00  0.00    -0.166 A  
HETATM   36  C   UNL     1      -7.402   4.575  70.603  1.00  0.00    -0.049 C  
HETATM   37  C   UNL     1      -8.976   5.160  66.640  1.00  0.00    -0.115 A  
HETATM   38  C   UNL     1     -11.134   6.095  67.376  1.00  0.00    -0.326 C  
HETATM   39  C   UNL     1      -8.031   4.754  69.242  1.00  0.00    -0.070 A  
HETATM   40  C   UNL     1      -9.812   5.463  67.734  1.00  0.00    -0.174 A  
HETATM   41  C   UNL     1      -7.696   4.648  66.827  1.00  0.00    -0.095 A  
HETATM   42  C   UNL     1      -7.226   4.467  68.129  1.00  0.00    -0.065 A  
BRANCH  41  43
HETATM   43  C   UNL     1      -6.772   4.317  65.707  1.00  0.00    -0.052 C  
HETATM   44  H2  UNL     1      -6.264   6.300  65.342  1.00  0.00     0.000 HD 
HETATM   45  H1  UNL     1      -5.486   5.103  64.293  1.00  0.00     0.000 HD 
HETATM   46  N   UNL     1      -6.119   5.330  65.060  1.00  0.00    -0.025 N  
HETATM   47  O   UNL     1      -6.583   3.158  65.350  1.00  0.00    -0.034 OA 
ENDBRANCH  41  43
ENDBRANCH  34  35
ENDBRANCH  30  34
ENDBRANCH  15  30
ENDBRANCH  12  13
ENDBRANCH   6  12
ENDBRANCH   2   3
TORSDOF 10
ENDMDL
MODEL      110
REMARK 921   NORMALIZED FREE ENERGY PREDICTED BY IDOCK:   -4.68 KCAL/MOL
REMARK 922        TOTAL FREE ENERGY PREDICTED BY IDOCK:  -10.28 KCAL/MOL
REMARK 923 INTER-LIGAND FREE ENERGY PREDICTED BY IDOCK:   -9.31 KCAL/MOL
REMARK 924 INTRA-LIGAND FREE ENERGY PREDICTED BY IDOCK:   -0.97 KCAL/MOL
REMARK 927      BINDING AFFINITY PREDICTED BY RF-SCORE:    0.00 PKD
ROOT
HETATM    1  C   UNL     1      -8.913   3.320  69.091  1.00  0.00    -0.120 C  
HETATM    2  O   UNL     1      -9.133   4.211  70.186  1.00  0.00    -0.092 OA 
ENDROOT
BRANCH   2   3
HETATM    3  C   UNL     1      -9.176   5.552  69.897  1.00  0.00    -0.138 A  
HETATM    4  C   UNL     1     -10.184   6.151  69.137  1.00  0.00    -0.242 A  
HETATM    5  C   UNL     1     -10.222   7.538  68.964  1.00  0.00    -0.208 A  
HETATM    6  C   UNL     1      -9.238   8.365  69.512  1.00  0.00    -0.154 A  
HETATM    7  C   UNL     1      -8.191   7.758  70.224  1.00  0.00    -0.125 A  
HETATM    8  C   UNL     1      -7.007   5.839  71.212  1.00  0.00    -0.067 C  
HETATM    9  O   UNL     1      -7.270   4.727  71.928  1.00  0.00    -0.059 OA 
HETATM   10  C   UNL     1      -8.160   6.365  70.430  1.00  0.00    -0.117 A  
HETATM   11  O   UNL     1      -5.930   6.414  71.253  1.00  0.00    -0.030 OA 
BRANCH   6  12
HETATM   12  C   UNL     1      -9.293   9.875  69.391  1.00  0.00    -0.214 C  
BRANCH  12  13
HETATM   13  N   UNL     1     -10.610  10.447  69.057  1.00  0.00    -0.207 N  
HETATM   14  O   UNL     1     -12.016  11.484  67.539  1.00  0.00    -0.629 OA 
HETATM   15  C   UNL     1     -10.964  10.868  67.752  1.00  0.00    -0.283 C  
BRANCH  13  16
HETATM   16  C   UNL     1     -11.468  10.892  70.187  1.00  0.00    -0.319 C  
HETATM   17  C   UNL     1     -12.780  11.570  69.751  1.00  0.00     0.143 C  
BRANCH  16  18
HETATM   18  C   UNL     1     -11.826   9.735  71.096  1.00  0.00    -0.382 A  
HETATM   19  C   UNL     1     -12.939   7.922  71.737  1.00  0.00    -0.325 A  
HETATM   20  C   UNL     1     -11.658   7.909  72.244  1.00  0.00    -0.350 A  
HETATM   21  N   UNL     1     -11.001   9.061  71.877  1.00  0.00    -0.367 NA 
HETATM   22  H   UNL     1     -10.060   9.341  72.154  1.00  0.00     0.000 HD 
HETATM   23  N   UNL     1     -13.044   9.100  71.038  1.00  0.00    -0.141 NA 
BRANCH  20  24
HETATM   24  C   UNL     1     -10.999   6.829  72.968  1.00  0.00    -0.293 A  
HETATM   25  C   UNL     1      -9.260   6.139  74.536  1.00  0.00    -0.173 A  
HETATM   26  C   UNL     1      -9.565   4.801  74.305  1.00  0.00    -0.144 A  
HETATM   27  C   UNL     1     -10.594   4.471  73.423  1.00  0.00    -0.293 A  
HETATM   28  C   UNL     1      -9.972   7.142  73.874  1.00  0.00    -0.360 A  
HETATM   29  C   UNL     1     -11.311   5.478  72.761  1.00  0.00    -0.359 A  
ENDBRANCH  20  24
ENDBRANCH  16  18
ENDBRANCH  13  16
BRANCH  15  30
HETATM   30  C   UNL     1      -9.992  10.497  66.570  1.00  0.00    -0.214 C  
HETATM   31  H2  UNL     1     -11.425   9.318  65.594  1.00  0.00     0.000 HD 
HETATM   32  N   UNL     1     -10.456   9.249  65.904  1.00  0.00    -0.066 NA 
HETATM   33  H1  UNL     1      -9.826   9.009  65.138  1.00  0.00     0.000 HD 
BRANCH  30  34
HETATM   34  C   UNL     1      -9.859  11.549  65.447  1.00  0.00    -0.271 C  
BRANCH  34  35
HETATM   35  C   UNL     1      -9.701  13.012  65.817  1.00  0.00    -0.157 A  
HETATM   36  C   UNL     1     -11.666  13.617  64.259  1.00  0.00    -0.438 C  
HETATM   37  C   UNL     1      -8.554  14.837  66.971  1.00  0.00    -0.260 A  
HETATM   38  C   UNL     1      -7.516  12.611  67.160  1.00  0.00    -0.055 C  
HETATM   39  C   UNL     1     -10.585  13.971  65.253  1.00  0.00    -0.376 A  
HETATM   40  C   UNL     1      -8.634  13.472  66.629  1.00  0.00     0.054 A  
HETATM   41  C   UNL     1      -9.474  15.760  66.485  1.00  0.00    -0.298 A  
HETATM   42  C   UNL     1     -10.472  15.322  65.612  1.00  0.00    -0.377 A  
BRANCH  41  43
HETATM   43  C   UNL     1      -9.431  17.213  66.811  1.00  0.00    -0.267 C  
HETATM   44  H2  UNL     1     -11.401  17.553  66.237  1.00  0.00     0.000 HD 
HETATM   45  H1  UNL     1     -10.519  18.970  66.830  1.00  0.00     0.000 HD 
HETATM   46  N   UNL     1     -10.549  17.975  66.607  1.00  0.00    -0.306 N  
HETATM   47  O   UNL     1      -8.417  17.742  67.256  1.00  0.00    -0.225 OA 
ENDBRANCH  41  43
ENDBRANCH  34  35
ENDBRANCH  30  34
ENDBRANCH  15  30
ENDBRANCH  12  13
ENDBRANCH   6  12
ENDBRANCH   2   3
TORSDOF 10
ENDMDL
MODEL      111
REMARK 921   NORMALIZED FREE ENERGY PREDICTED BY IDOCK:   -4.66 KCAL/MOL
REMARK 922        TOTAL FREE ENERGY PREDICTED BY IDOCK:  -10.25 KCAL/MOL
REMARK 923 INTER-LIGAND FREE ENERGY PREDICTED BY IDOCK:   -8.57 KCAL/MOL
REMARK 924 INTRA-LIGAND FREE ENERGY PREDICTED BY IDOCK:   -1.68 KCAL/MOL
REMARK 927      BINDING AFFINITY PREDICTED BY RF-SCORE:    0.00 PKD
ROOT
HETATM    1  C   UNL     1     -12.249  15.162  64.541  1.00  0.00    -0.267 C  
HETATM    2  O   UNL     1     -11.283  14.193  64.131  1.00  0.00    -0.241 OA 
ENDROOT
BRANCH   2   3
HETATM    3  C   UNL     1     -10.524  13.615  65.117  1.00  0.00    -0.374 A  
HETATM    4  C   UNL     1     -10.049  14.305  66.236  1.00  0.00    -0.308 A  
HETATM    5  C   UNL     1      -9.364  13.633  67.254  1.00  0.00    -0.233 A  
HETATM    6  C   UNL     1      -9.101  12.263  67.169  1.00  0.00    -0.193 A  
HETATM    7  C   UNL     1      -9.523  11.582  66.016  1.00  0.00    -0.249 A  
HETATM    8  C   UNL     1     -10.647  11.412  63.832  1.00  0.00    -0.392 C  
HETATM    9  O   UNL     1     -11.789  11.803  63.231  1.00  0.00    -0.401 OA 
HETATM   10  C   UNL     1     -10.240  12.243  65.000  1.00  0.00    -0.312 A  
HETATM   11  O   UNL     1     -10.028  10.415  63.494  1.00  0.00    -0.277 OA 
BRANCH   6  12
HETATM   12  C   UNL     1      -8.417  11.502  68.288  1.00  0.00    -0.159 C  
BRANCH  12  13
HETATM   13  N   UNL     1      -7.134  10.863  67.942  1.00  0.00    -0.080 N  
HETATM   14  O   UNL     1      -5.890   8.949  67.558  1.00  0.00    -0.042 OA 
HETATM   15  C   UNL     1      -7.003   9.476  67.692  1.00  0.00    -0.080 C  
BRANCH  13  16
HETATM   16  C   UNL     1      -5.894  11.645  68.185  1.00  0.00    -0.046 C  
HETATM   17  C   UNL     1      -5.202  12.141  66.902  1.00  0.00     0.015 C  
BRANCH  16  18
HETATM   18  C   UNL     1      -6.166  12.852  69.059  1.00  0.00    -0.095 A  
HETATM   19  C   UNL     1      -5.982  14.140  70.861  1.00  0.00    -0.196 A  
HETATM   20  C   UNL     1      -6.252  14.903  69.745  1.00  0.00    -0.144 A  
HETATM   21  N   UNL     1      -6.410  14.084  68.650  1.00  0.00    -0.083 NA 
HETATM   22  H   UNL     1      -6.665  14.372  67.705  1.00  0.00     0.000 HD 
HETATM   23  N   UNL     1      -5.962  12.840  70.419  1.00  0.00    -0.146 NA 
BRANCH  20  24
HETATM   24  C   UNL     1      -6.271  16.356  69.644  1.00  0.00    -0.210 A  
HETATM   25  C   UNL     1      -5.432  18.504  70.445  1.00  0.00    -0.239 A  
HETATM   26  C   UNL     1      -6.336  19.176  69.628  1.00  0.00    -0.290 A  
HETATM   27  C   UNL     1      -7.196  18.448  68.805  1.00  0.00    -0.300 A  
HETATM   28  C   UNL     1      -5.400  17.107  70.450  1.00  0.00    -0.246 A  
HETATM   29  C   UNL     1      -7.161  17.046  68.808  1.00  0.00    -0.226 A  
ENDBRANCH  20  24
ENDBRANCH  16  18
ENDBRANCH  13  16
BRANCH  15  30
HETATM   30  C   UNL     1      -8.320   8.625  67.552  1.00  0.00    -0.120 C  
HETATM   31  H2  UNL     1      -7.941   8.134  65.550  1.00  0.00     0.000 HD 
HETATM   32  N   UNL     1      -8.701   8.508  66.118  1.00  0.00    -0.142 NA 
HETATM   33  H1  UNL     1      -9.554   7.957  66.028  1.00  0.00     0.000 HD 
BRANCH  30  34
HETATM   34  C   UNL     1      -8.252   7.177  68.088  1.00  0.00    -0.124 C  
BRANCH  34  35
HETATM   35  C   UNL     1      -9.059   6.802  69.316  1.00  0.00    -0.139 A  
HETATM   36  C   UNL     1     -11.116   6.351  67.827  1.00  0.00    -0.376 C  
HETATM   37  C   UNL     1      -9.322   6.546  71.733  1.00  0.00    -0.149 A  
HETATM   38  C   UNL     1      -7.193   7.524  70.970  1.00  0.00    -0.066 C  
HETATM   39  C   UNL     1     -10.412   6.396  69.162  1.00  0.00    -0.274 A  
HETATM   40  C   UNL     1      -8.541   6.942  70.628  1.00  0.00    -0.141 A  
HETATM   41  C   UNL     1     -10.617   6.067  71.571  1.00  0.00    -0.295 A  
HETATM   42  C   UNL     1     -11.160   6.014  70.285  1.00  0.00    -0.415 A  
BRANCH  41  43
HETATM   43  C   UNL     1     -11.485   5.642  72.704  1.00  0.00    -0.285 C  
HETATM   44  H2  UNL     1      -9.892   5.008  73.882  1.00  0.00     0.000 HD 
HETATM   45  H1  UNL     1     -11.501   4.820  74.600  1.00  0.00     0.000 HD 
HETATM   46  N   UNL     1     -10.906   5.111  73.824  1.00  0.00    -0.297 N  
HETATM   47  O   UNL     1     -12.706   5.755  72.657  1.00  0.00     0.067 OA 
ENDBRANCH  41  43
ENDBRANCH  34  35
ENDBRANCH  30  34
ENDBRANCH  15  30
ENDBRANCH  12  13
ENDBRANCH   6  12
ENDBRANCH   2   3
TORSDOF 10
ENDMDL
MODEL      112
REMARK 921   NORMALIZED FREE ENERGY PREDICTED BY IDOCK:   -4.63 KCAL/MOL
REMARK 922        TOTAL FREE ENERGY PREDICTED BY IDOCK:  -10.20 KCAL/MOL
REMARK 923 INTER-LIGAND FREE ENERGY PREDICTED BY IDOCK:   -9.18 KCAL/MOL
REMARK 924 INTRA-LIGAND FREE ENERGY PREDICTED BY IDOCK:   -1.03 KCAL/MOL
REMARK 927      BINDING AFFINITY PREDICTED BY RF-SCORE:    0.00 PKD
ROOT
HETATM    1  C   UNL     1     -10.352  18.122  65.793  1.00  0.00    -0.172 C  
HETATM    2  O   UNL     1      -9.368  17.088  65.857  1.00  0.00    -0.498 OA 
ENDROOT
BRANCH   2   3
HETATM    3  C   UNL     1      -9.826  15.796  65.917  1.00  0.00    -0.349 A  
HETATM    4  C   UNL     1     -10.450  15.143  64.851  1.00  0.00    -0.350 A  
HETATM    5  C   UNL     1     -10.803  13.793  64.946  1.00  0.00    -0.398 A  
HETATM    6  C   UNL     1     -10.578  13.065  66.117  1.00  0.00    -0.289 A  
HETATM    7  C   UNL     1     -10.007  13.737  67.209  1.00  0.00    -0.239 A  
HETATM    8  C   UNL     1      -9.012  15.688  68.335  1.00  0.00    -0.185 C  
HETATM    9  O   UNL     1      -8.112  16.663  68.096  1.00  0.00    -0.176 OA 
HETATM   10  C   UNL     1      -9.620  15.088  67.114  1.00  0.00    -0.222 A  
HETATM   11  O   UNL     1      -9.263  15.278  69.457  1.00  0.00    -0.243 OA 
BRANCH   6  12
HETATM   12  C   UNL     1     -10.894  11.586  66.221  1.00  0.00    -0.282 C  
BRANCH  12  13
HETATM   13  N   UNL     1      -9.734  10.687  66.362  1.00  0.00    -0.190 N  
HETATM   14  O   UNL     1      -8.445   9.270  67.661  1.00  0.00    -0.116 OA 
HETATM   15  C   UNL     1      -9.505   9.892  67.510  1.00  0.00    -0.151 C  
BRANCH  13  16
HETATM   16  C   UNL     1      -8.608  10.872  65.409  1.00  0.00    -0.120 C  
HETATM   17  C   UNL     1      -7.243  11.099  66.084  1.00  0.00     0.000 C  
BRANCH  16  18
HETATM   18  C   UNL     1      -8.472   9.683  64.480  1.00  0.00    -0.178 A  
HETATM   19  C   UNL     1      -7.646   8.517  62.778  1.00  0.00    -0.111 A  
HETATM   20  C   UNL     1      -8.093   7.674  63.773  1.00  0.00    -0.036 A  
HETATM   21  N   UNL     1      -8.644   8.412  64.795  1.00  0.00    -0.368 NA 
HETATM   22  H   UNL     1      -9.097   8.049  65.634  1.00  0.00     0.000 HD 
HETATM   23  N   UNL     1      -7.922   9.786  63.224  1.00  0.00    -0.136 NA 
BRANCH  20  24
HETATM   24  C   UNL     1      -7.938   6.227  63.848  1.00  0.00    -0.095 A  
HETATM   25  C   UNL     1      -7.338   4.142  62.729  1.00  0.00    -0.048 A  
HETATM   26  C   UNL     1      -7.739   3.413  63.844  1.00  0.00    -0.079 A  
HETATM   27  C   UNL     1      -8.223   4.083  64.969  1.00  0.00    -0.101 A  
HETATM   28  C   UNL     1      -7.435   5.536  62.733  1.00  0.00    -0.056 A  
HETATM   29  C   UNL     1      -8.318   5.482  64.974  1.00  0.00    -0.146 A  
ENDBRANCH  20  24
ENDBRANCH  16  18
ENDBRANCH  13  16
BRANCH  15  30
HETATM   30  C   UNL     1     -10.657   9.792  68.579  1.00  0.00    -0.221 C  
HETATM   31  H2  UNL     1     -10.374   7.737  68.879  1.00  0.00     0.000 HD 
HETATM   32  N   UNL     1     -11.135   8.386  68.682  1.00  0.00    -0.361 NA 
HETATM   33  H1  UNL     1     -11.881   8.323  69.374  1.00  0.00     0.000 HD 
BRANCH  30  34
HETATM   34  C   UNL     1     -10.285  10.216  70.018  1.00  0.00    -0.271 C  
BRANCH  34  35
HETATM   35  C   UNL     1     -10.052   9.147  71.068  1.00  0.00    -0.373 A  
HETATM   36  C   UNL     1     -12.496   9.388  71.857  1.00  0.00    -0.468 C  
HETATM   37  C   UNL     1      -8.614   7.576  72.269  1.00  0.00    -0.141 A  
HETATM   38  C   UNL     1      -7.499   9.021  70.614  1.00  0.00    -0.113 C  
HETATM   39  C   UNL     1     -11.124   8.760  71.916  1.00  0.00    -0.434 A  
HETATM   40  C   UNL     1      -8.769   8.592  71.304  1.00  0.00    -0.228 A  
HETATM   41  C   UNL     1      -9.687   7.138  73.039  1.00  0.00    -0.216 A  
HETATM   42  C   UNL     1     -10.931   7.748  72.870  1.00  0.00    -0.467 A  
BRANCH  41  43
HETATM   43  C   UNL     1      -9.575   6.073  74.074  1.00  0.00    -0.168 C  
HETATM   44  H2  UNL     1      -7.501   6.186  74.181  1.00  0.00     0.000 HD 
HETATM   45  H1  UNL     1      -8.261   4.994  75.248  1.00  0.00     0.000 HD 
HETATM   46  N   UNL     1      -8.337   5.723  74.539  1.00  0.00    -0.111 N  
HETATM   47  O   UNL     1     -10.566   5.503  74.519  1.00  0.00    -0.270 OA 
ENDBRANCH  41  43
ENDBRANCH  34  35
ENDBRANCH  30  34
ENDBRANCH  15  30
ENDBRANCH  12  13
ENDBRANCH   6  12
ENDBRANCH   2   3
TORSDOF 10
ENDMDL
MODEL      113
REMARK 921   NORMALIZED FREE ENERGY PREDICTED BY IDOCK:   -4.63 KCAL/MOL
REMARK 922        TOTAL FREE ENERGY PREDICTED BY IDOCK:  -10.20 KCAL/MOL
REMARK 923 INTER-LIGAND FREE ENERGY PREDICTED BY IDOCK:   -8.01 KCAL/MOL
REMARK 924 INTRA-LIGAND FREE ENERGY PREDICTED BY IDOCK:   -2.19 KCAL/MOL
REMARK 927      BINDING AFFINITY PREDICTED BY RF-SCORE:    0.00 PKD
ROOT
HETATM    1  C   UNL     1      -7.825   6.218  63.717  1.00  0.00    -0.111 C  
HETATM    2  O   UNL     1      -7.856   6.081  65.139  1.00  0.00    -0.096 OA 
ENDROOT
BRANCH   2   3
HETATM    3  C   UNL     1      -7.866   7.239  65.876  1.00  0.00    -0.106 A  
HETATM    4  C   UNL     1      -8.575   8.387  65.509  1.00  0.00    -0.201 A  
HETATM    5  C   UNL     1      -8.623   9.499  66.355  1.00  0.00    -0.143 A  
HETATM    6  C   UNL     1      -7.937   9.514  67.573  1.00  0.00    -0.106 A  
HETATM    7  C   UNL     1      -7.175   8.385  67.913  1.00  0.00    -0.091 A  
HETATM    8  C   UNL     1      -6.312   6.107  67.556  1.00  0.00    -0.037 C  
HETATM    9  O   UNL     1      -6.750   4.891  67.173  1.00  0.00    -0.052 OA 
HETATM   10  C   UNL     1      -7.145   7.248  67.083  1.00  0.00    -0.087 A  
HETATM   11  O   UNL     1      -5.350   6.263  68.291  1.00  0.00    -0.007 OA 
BRANCH   6  12
HETATM   12  C   UNL     1      -8.026  10.683  68.535  1.00  0.00    -0.122 C  
BRANCH  12  13
HETATM   13  N   UNL     1      -9.103  11.655  68.270  1.00  0.00    -0.182 N  
HETATM   14  O   UNL     1     -11.335  12.254  68.399  1.00  0.00    -0.245 OA 
HETATM   15  C   UNL     1     -10.420  11.506  68.767  1.00  0.00    -0.204 C  
BRANCH  13  16
HETATM   16  C   UNL     1      -8.879  12.642  67.182  1.00  0.00    -0.204 C  
HETATM   17  C   UNL     1      -9.919  12.577  66.048  1.00  0.00    -0.269 C  
BRANCH  16  18
HETATM   18  C   UNL     1      -8.868  14.059  67.717  1.00  0.00    -0.187 A  
HETATM   19  C   UNL     1      -8.013  15.843  68.730  1.00  0.00    -0.188 A  
HETATM   20  C   UNL     1      -8.942  16.220  67.785  1.00  0.00    -0.193 A  
HETATM   21  N   UNL     1      -9.494  15.102  67.203  1.00  0.00    -0.212 NA 
HETATM   22  H   UNL     1     -10.241  15.082  66.509  1.00  0.00     0.000 HD 
HETATM   23  N   UNL     1      -7.999  14.470  68.701  1.00  0.00    -0.141 NA 
BRANCH  20  24
HETATM   24  C   UNL     1      -9.259  17.571  67.339  1.00  0.00    -0.238 A  
HETATM   25  C   UNL     1      -8.538  19.601  66.190  1.00  0.00    -0.357 A  
HETATM   26  C   UNL     1      -9.719  20.241  66.555  1.00  0.00    -0.519 A  
HETATM   27  C   UNL     1     -10.679  19.550  67.294  1.00  0.00    -0.604 A  
HETATM   28  C   UNL     1      -8.313  18.277  66.578  1.00  0.00    -0.287 A  
HETATM   29  C   UNL     1     -10.454  18.220  67.681  1.00  0.00    -0.431 A  
ENDBRANCH  20  24
ENDBRANCH  16  18
ENDBRANCH  13  16
BRANCH  15  30
HETATM   30  C   UNL     1     -10.681  10.379  69.835  1.00  0.00    -0.279 C  
HETATM   31  H2  UNL     1     -12.539  11.167  70.399  1.00  0.00     0.000 HD 
HETATM   32  N   UNL     1     -11.676  10.849  70.838  1.00  0.00    -0.335 NA 
HETATM   33  H1  UNL     1     -11.845  10.118  71.529  1.00  0.00     0.000 HD 
BRANCH  30  34
HETATM   34  C   UNL     1     -11.233   9.043  69.289  1.00  0.00     0.151 C  
BRANCH  34  35
HETATM   35  C   UNL     1     -10.470   7.760  69.558  1.00  0.00    -0.225 A  
HETATM   36  C   UNL     1     -11.278   6.805  67.302  1.00  0.00    -0.279 C  
HETATM   37  C   UNL     1      -9.092   6.324  70.978  1.00  0.00    -0.156 A  
HETATM   38  C   UNL     1      -9.846   8.442  71.984  1.00  0.00    -0.354 C  
HETATM   39  C   UNL     1     -10.493   6.721  68.590  1.00  0.00    -0.232 A  
HETATM   40  C   UNL     1      -9.816   7.519  70.793  1.00  0.00    -0.178 A  
HETATM   41  C   UNL     1      -9.045   5.344  69.991  1.00  0.00    -0.160 A  
HETATM   42  C   UNL     1      -9.764   5.542  68.811  1.00  0.00    -0.190 A  
BRANCH  41  43
HETATM   43  C   UNL     1      -8.300   4.063  70.139  1.00  0.00    -0.060 C  
HETATM   44  H2  UNL     1      -6.633   4.959  71.000  1.00  0.00     0.000 HD 
HETATM   45  H1  UNL     1      -6.540   3.202  70.794  1.00  0.00     0.000 HD 
HETATM   46  N   UNL     1      -7.050   4.080  70.692  1.00  0.00    -0.037 N  
HETATM   47  O   UNL     1      -8.782   2.994  69.775  1.00  0.00    -0.061 OA 
ENDBRANCH  41  43
ENDBRANCH  34  35
ENDBRANCH  30  34
ENDBRANCH  15  30
ENDBRANCH  12  13
ENDBRANCH   6  12
ENDBRANCH   2   3
TORSDOF 10
ENDMDL
MODEL      114
REMARK 921   NORMALIZED FREE ENERGY PREDICTED BY IDOCK:   -4.62 KCAL/MOL
REMARK 922        TOTAL FREE ENERGY PREDICTED BY IDOCK:  -10.20 KCAL/MOL
REMARK 923 INTER-LIGAND FREE ENERGY PREDICTED BY IDOCK:  -10.08 KCAL/MOL
REMARK 924 INTRA-LIGAND FREE ENERGY PREDICTED BY IDOCK:   -0.12 KCAL/MOL
REMARK 927      BINDING AFFINITY PREDICTED BY RF-SCORE:    0.00 PKD
ROOT
HETATM    1  C   UNL     1      -7.873   6.897  67.101  1.00  0.00    -0.109 C  
HETATM    2  O   UNL     1      -7.076   8.043  66.797  1.00  0.00    -0.077 OA 
ENDROOT
BRANCH   2   3
HETATM    3  C   UNL     1      -7.667   9.272  66.956  1.00  0.00    -0.095 A  
HETATM    4  C   UNL     1      -8.171   9.740  68.173  1.00  0.00    -0.109 A  
HETATM    5  C   UNL     1      -8.670  11.041  68.288  1.00  0.00    -0.144 A  
HETATM    6  C   UNL     1      -8.717  11.901  67.186  1.00  0.00    -0.176 A  
HETATM    7  C   UNL     1      -8.269  11.410  65.950  1.00  0.00     0.086 A  
HETATM    8  C   UNL     1      -7.280   9.708  64.470  1.00  0.00    -0.121 C  
HETATM    9  O   UNL     1      -6.258   8.829  64.454  1.00  0.00    -0.066 OA 
HETATM   10  C   UNL     1      -7.736  10.112  65.830  1.00  0.00    -0.127 A  
HETATM   11  O   UNL     1      -7.754  10.192  63.453  1.00  0.00    -0.152 OA 
BRANCH   6  12
HETATM   12  C   UNL     1      -9.196  13.335  67.302  1.00  0.00    -0.222 C  
BRANCH  12  13
HETATM   13  N   UNL     1     -10.288  13.724  66.392  1.00  0.00    -0.284 N  
HETATM   14  O   UNL     1     -11.306  15.313  65.051  1.00  0.00    -0.374 OA 
HETATM   15  C   UNL     1     -10.305  14.950  65.682  1.00  0.00    -0.349 C  
BRANCH  13  16
HETATM   16  C   UNL     1     -11.556  12.954  66.478  1.00  0.00    -0.371 C  
HETATM   17  C   UNL     1     -11.452  11.510  65.953  1.00  0.00    -0.086 C  
BRANCH  16  18
HETATM   18  C   UNL     1     -12.068  12.892  67.902  1.00  0.00    -0.157 A  
HETATM   19  C   UNL     1     -12.257  12.075  69.960  1.00  0.00    -0.206 A  
HETATM   20  C   UNL     1     -12.467  13.438  69.957  1.00  0.00    -0.137 A  
HETATM   21  N   UNL     1     -12.394  13.916  68.668  1.00  0.00    -0.454 NA 
HETATM   22  H   UNL     1     -12.558  14.876  68.365  1.00  0.00     0.000 HD 
HETATM   23  N   UNL     1     -12.037  11.737  68.647  1.00  0.00    -0.421 NA 
BRANCH  20  24
HETATM   24  C   UNL     1     -12.634  14.314  71.109  1.00  0.00    -0.432 A  
HETATM   25  C   UNL     1     -11.646  15.928  72.651  1.00  0.00    -0.400 A  
HETATM   26  C   UNL     1     -12.811  15.935  73.411  1.00  0.00    -0.688 A  
HETATM   27  C   UNL     1     -13.895  15.149  73.018  1.00  0.00    -0.252 A  
HETATM   28  C   UNL     1     -11.561  15.126  71.509  1.00  0.00    -0.443 A  
HETATM   29  C   UNL     1     -13.811  14.347  71.871  1.00  0.00    -0.549 A  
ENDBRANCH  20  24
ENDBRANCH  16  18
ENDBRANCH  13  16
BRANCH  15  30
HETATM   30  C   UNL     1      -8.995  15.824  65.691  1.00  0.00     0.195 C  
HETATM   31  H2  UNL     1      -9.963  17.493  66.509  1.00  0.00     0.000 HD 
HETATM   32  N   UNL     1      -9.349  17.269  65.727  1.00  0.00    -0.508 NA 
HETATM   33  H1  UNL     1      -8.500  17.835  65.732  1.00  0.00     0.000 HD 
BRANCH  30  34
HETATM   34  C   UNL     1      -8.036  15.596  66.880  1.00  0.00    -0.278 C  
BRANCH  34  35
HETATM   35  C   UNL     1      -7.583  16.786  67.705  1.00  0.00    -0.180 A  
HETATM   36  C   UNL     1      -5.175  16.473  66.834  1.00  0.00     0.002 C  
HETATM   37  C   UNL     1      -7.987  18.568  69.329  1.00  0.00     0.099 A  
HETATM   38  C   UNL     1      -9.866  17.028  68.918  1.00  0.00    -0.272 C  
HETATM   39  C   UNL     1      -6.223  17.192  67.650  1.00  0.00    -0.161 A  
HETATM   40  C   UNL     1      -8.449  17.446  68.612  1.00  0.00    -0.257 A  
HETATM   41  C   UNL     1      -6.676  19.016  69.207  1.00  0.00    -0.330 A  
HETATM   42  C   UNL     1      -5.797  18.311  68.382  1.00  0.00    -0.183 A  
BRANCH  41  43
HETATM   43  C   UNL     1      -6.136  20.192  69.945  1.00  0.00    -0.357 C  
HETATM   44  H2  UNL     1      -5.129  20.956  68.294  1.00  0.00     0.000 HD 
HETATM   45  H1  UNL     1      -4.977  21.895  69.788  1.00  0.00     0.000 HD 
HETATM   46  N   UNL     1      -5.346  21.090  69.282  1.00  0.00    -0.365 N  
HETATM   47  O   UNL     1      -6.383  20.373  71.134  1.00  0.00    -0.566 OA 
ENDBRANCH  41  43
ENDBRANCH  34  35
ENDBRANCH  30  34
ENDBRANCH  15  30
ENDBRANCH  12  13
ENDBRANCH   6  12
ENDBRANCH   2   3
TORSDOF 10
ENDMDL
MODEL      115
REMARK 921   NORMALIZED FREE ENERGY PREDICTED BY IDOCK:   -4.62 KCAL/MOL
REMARK 922        TOTAL FREE ENERGY PREDICTED BY IDOCK:  -10.19 KCAL/MOL
REMARK 923 INTER-LIGAND FREE ENERGY PREDICTED BY IDOCK:   -8.46 KCAL/MOL
REMARK 924 INTRA-LIGAND FREE ENERGY PREDICTED BY IDOCK:   -1.72 KCAL/MOL
REMARK 927      BINDING AFFINITY PREDICTED BY RF-SCORE:    0.00 PKD
ROOT
HETATM    1  C   UNL     1     -13.274  11.919  71.789  1.00  0.00    -0.321 C  
HETATM    2  O   UNL     1     -13.108  10.649  71.157  1.00  0.00    -0.368 OA 
ENDROOT
BRANCH   2   3
HETATM    3  C   UNL     1     -11.888  10.396  70.581  1.00  0.00    -0.350 A  
HETATM    4  C   UNL     1     -11.302  11.212  69.609  1.00  0.00    -0.366 A  
HETATM    5  C   UNL     1     -10.012  10.950  69.137  1.00  0.00    -0.181 A  
HETATM    6  C   UNL     1      -9.283   9.848  69.591  1.00  0.00    -0.246 A  
HETATM    7  C   UNL     1      -9.895   8.993  70.521  1.00  0.00    -0.263 A  
HETATM    8  C   UNL     1     -11.720   8.292  72.019  1.00  0.00    -0.346 C  
HETATM    9  O   UNL     1     -12.563   8.821  72.928  1.00  0.00    -0.288 OA 
HETATM   10  C   UNL     1     -11.181   9.264  71.026  1.00  0.00    -0.392 A  
HETATM   11  O   UNL     1     -11.366   7.123  72.045  1.00  0.00    -0.244 OA 
BRANCH   6  12
HETATM   12  C   UNL     1      -7.860   9.580  69.140  1.00  0.00    -0.082 C  
BRANCH  12  13
HETATM   13  N   UNL     1      -7.417  10.312  67.940  1.00  0.00    -0.087 N  
HETATM   14  O   UNL     1      -7.314  10.502  65.635  1.00  0.00    -0.147 OA 
HETATM   15  C   UNL     1      -7.825   9.968  66.628  1.00  0.00    -0.111 C  
BRANCH  13  16
HETATM   16  C   UNL     1      -6.255  11.227  68.088  1.00  0.00    -0.049 C  
HETATM   17  C   UNL     1      -5.214  11.110  66.960  1.00  0.00    -0.063 C  
BRANCH  16  18
HETATM   18  C   UNL     1      -6.698  12.673  68.160  1.00  0.00    -0.082 A  
HETATM   19  C   UNL     1      -6.806  14.800  67.524  1.00  0.00    -0.155 A  
HETATM   20  C   UNL     1      -7.968  14.425  68.164  1.00  0.00    -0.136 A  
HETATM   21  N   UNL     1      -7.863  13.121  68.591  1.00  0.00    -0.273 NA 
HETATM   22  H   UNL     1      -8.551  12.601  69.136  1.00  0.00     0.000 HD 
HETATM   23  N   UNL     1      -5.997  13.691  67.557  1.00  0.00    -0.344 NA 
BRANCH  20  24
HETATM   24  C   UNL     1      -9.196  15.197  68.302  1.00  0.00    -0.188 A  
HETATM   25  C   UNL     1     -10.256  17.348  68.762  1.00  0.00    -0.361 A  
HETATM   26  C   UNL     1     -11.512  16.750  68.730  1.00  0.00     0.082 A  
HETATM   27  C   UNL     1     -11.619  15.383  68.469  1.00  0.00    -0.373 A  
HETATM   28  C   UNL     1      -9.110  16.577  68.548  1.00  0.00    -0.231 A  
HETATM   29  C   UNL     1     -10.469  14.611  68.251  1.00  0.00    -0.236 A  
ENDBRANCH  20  24
ENDBRANCH  16  18
ENDBRANCH  13  16
BRANCH  15  30
HETATM   30  C   UNL     1      -8.978   8.907  66.470  1.00  0.00    -0.155 C  
HETATM   31  H2  UNL     1      -9.137   9.202  64.401  1.00  0.00     0.000 HD 
HETATM   32  N   UNL     1      -9.743   9.171  65.220  1.00  0.00    -0.443 NA 
HETATM   33  H1  UNL     1     -10.489   8.484  65.118  1.00  0.00     0.000 HD 
BRANCH  30  34
HETATM   34  C   UNL     1      -8.533   7.430  66.388  1.00  0.00    -0.129 C  
BRANCH  34  35
HETATM   35  C   UNL     1      -8.550   6.580  67.644  1.00  0.00    -0.116 A  
HETATM   36  C   UNL     1     -11.117   6.390  67.483  1.00  0.00    -0.401 C  
HETATM   37  C   UNL     1      -7.444   5.522  69.551  1.00  0.00    -0.070 A  
HETATM   38  C   UNL     1      -6.025   6.947  68.128  1.00  0.00    -0.032 C  
HETATM   39  C   UNL     1      -9.788   6.084  68.132  1.00  0.00    -0.148 A  
HETATM   40  C   UNL     1      -7.380   6.348  68.410  1.00  0.00    -0.087 A  
HETATM   41  C   UNL     1      -8.646   4.967  69.977  1.00  0.00    -0.106 A  
HETATM   42  C   UNL     1      -9.814   5.269  69.274  1.00  0.00    -0.256 A  
BRANCH  41  43
HETATM   43  C   UNL     1      -8.769   4.093  71.177  1.00  0.00    -0.093 C  
HETATM   44  H2  UNL     1     -10.595   3.288  70.589  1.00  0.00     0.000 HD 
HETATM   45  H1  UNL     1      -9.952   2.691  72.128  1.00  0.00     0.000 HD 
HETATM   46  N   UNL     1      -9.868   3.289  71.306  1.00  0.00    -0.151 N  
HETATM   47  O   UNL     1      -7.909   4.078  72.052  1.00  0.00    -0.075 OA 
ENDBRANCH  41  43
ENDBRANCH  34  35
ENDBRANCH  30  34
ENDBRANCH  15  30
ENDBRANCH  12  13
ENDBRANCH   6  12
ENDBRANCH   2   3
TORSDOF 10
ENDMDL
MODEL      116
REMARK 921   NORMALIZED FREE ENERGY PREDICTED BY IDOCK:   -4.62 KCAL/MOL
REMARK 922        TOTAL FREE ENERGY PREDICTED BY IDOCK:  -10.18 KCAL/MOL
REMARK 923 INTER-LIGAND FREE ENERGY PREDICTED BY IDOCK:   -8.80 KCAL/MOL
REMARK 924 INTRA-LIGAND FREE ENERGY PREDICTED BY IDOCK:   -1.38 KCAL/MOL
REMARK 927      BINDING AFFINITY PREDICTED BY RF-SCORE:    0.00 PKD
ROOT
HETATM    1  C   UNL     1      -7.050   4.957  74.047  1.00  0.00    -0.081 C  
HETATM    2  O   UNL     1      -8.292   4.855  73.349  1.00  0.00    -0.106 OA 
ENDROOT
BRANCH   2   3
HETATM    3  C   UNL     1      -8.736   5.982  72.702  1.00  0.00    -0.121 A  
HETATM    4  C   UNL     1      -8.774   7.250  73.287  1.00  0.00    -0.176 A  
HETATM    5  C   UNL     1      -9.144   8.373  72.540  1.00  0.00    -0.326 A  
HETATM    6  C   UNL     1      -9.523   8.260  71.199  1.00  0.00    -0.206 A  
HETATM    7  C   UNL     1      -9.544   6.977  70.628  1.00  0.00    -0.165 A  
HETATM    8  C   UNL     1      -9.196   4.540  70.645  1.00  0.00    -0.135 C  
HETATM    9  O   UNL     1      -8.282   3.635  71.050  1.00  0.00    -0.064 OA 
HETATM   10  C   UNL     1      -9.144   5.844  71.363  1.00  0.00    -0.148 A  
HETATM   11  O   UNL     1      -9.963   4.336  69.717  1.00  0.00    -0.222 OA 
BRANCH   6  12
HETATM   12  C   UNL     1      -9.867   9.470  70.353  1.00  0.00    -0.271 C  
BRANCH  12  13
HETATM   13  N   UNL     1      -8.829   9.906  69.401  1.00  0.00    -0.173 N  
HETATM   14  O   UNL     1      -8.094  10.165  67.222  1.00  0.00    -0.113 OA 
HETATM   15  C   UNL     1      -9.030   9.944  68.000  1.00  0.00    -0.121 C  
BRANCH  13  16
HETATM   16  C   UNL     1      -7.434   9.994  69.905  1.00  0.00    -0.167 C  
HETATM   17  C   UNL     1      -6.506   8.879  69.387  1.00  0.00    -0.044 C  
BRANCH  16  18
HETATM   18  C   UNL     1      -6.802  11.323  69.548  1.00  0.00    -0.115 A  
HETATM   19  C   UNL     1      -5.362  12.685  68.542  1.00  0.00    -0.058 A  
HETATM   20  C   UNL     1      -6.558  13.329  68.775  1.00  0.00    -0.099 A  
HETATM   21  N   UNL     1      -7.418  12.486  69.441  1.00  0.00    -0.284 NA 
HETATM   22  H   UNL     1      -8.351  12.714  69.784  1.00  0.00     0.000 HD 
HETATM   23  N   UNL     1      -5.518  11.425  69.065  1.00  0.00    -0.040 NA 
BRANCH  20  24
HETATM   24  C   UNL     1      -6.958  14.654  68.318  1.00  0.00    -0.113 A  
HETATM   25  C   UNL     1      -7.231  17.028  68.818  1.00  0.00    -0.226 A  
HETATM   26  C   UNL     1      -7.837  17.231  67.582  1.00  0.00    -0.192 A  
HETATM   27  C   UNL     1      -7.991  16.157  66.704  1.00  0.00    -0.305 A  
HETATM   28  C   UNL     1      -6.794  15.751  69.180  1.00  0.00    -0.168 A  
HETATM   29  C   UNL     1      -7.550  14.876  67.067  1.00  0.00    -0.027 A  
ENDBRANCH  20  24
ENDBRANCH  16  18
ENDBRANCH  13  16
BRANCH  15  30
HETATM   30  C   UNL     1     -10.495   9.732  67.460  1.00  0.00    -0.251 C  
HETATM   31  H2  UNL     1     -10.727   7.896  68.444  1.00  0.00     0.000 HD 
HETATM   32  N   UNL     1     -10.851   8.287  67.511  1.00  0.00    -0.503 NA 
HETATM   33  H1  UNL     1     -11.799   8.151  67.161  1.00  0.00     0.000 HD 
BRANCH  30  34
HETATM   34  C   UNL     1     -11.614  10.468  68.230  1.00  0.00    -0.180 C  
BRANCH  34  35
HETATM   35  C   UNL     1     -11.515  11.969  68.425  1.00  0.00    -0.356 A  
HETATM   36  C   UNL     1     -12.305  11.704  70.866  1.00  0.00    -0.436 C  
HETATM   37  C   UNL     1     -11.103  14.233  67.598  1.00  0.00    -0.305 A  
HETATM   38  C   UNL     1     -11.030  12.433  65.917  1.00  0.00    -0.323 C  
HETATM   39  C   UNL     1     -11.831  12.528  69.692  1.00  0.00    -0.382 A  
HETATM   40  C   UNL     1     -11.216  12.849  67.355  1.00  0.00    -0.331 A  
HETATM   41  C   UNL     1     -11.329  14.767  68.862  1.00  0.00    -0.302 A  
HETATM   42  C   UNL     1     -11.712  13.911  69.897  1.00  0.00    -0.358 A  
BRANCH  41  43
HETATM   43  C   UNL     1     -11.227  16.221  69.171  1.00  0.00    -0.309 C  
HETATM   44  H2  UNL     1     -11.161  16.793  67.173  1.00  0.00     0.000 HD 
HETATM   45  H1  UNL     1     -11.080  18.112  68.353  1.00  0.00     0.000 HD 
HETATM   46  N   UNL     1     -11.149  17.117  68.141  1.00  0.00    -0.233 N  
HETATM   47  O   UNL     1     -11.211  16.632  70.327  1.00  0.00    -0.262 OA 
ENDBRANCH  41  43
ENDBRANCH  34  35
ENDBRANCH  30  34
ENDBRANCH  15  30
ENDBRANCH  12  13
ENDBRANCH   6  12
ENDBRANCH   2   3
TORSDOF 10
ENDMDL
MODEL      117
REMARK 921   NORMALIZED FREE ENERGY PREDICTED BY IDOCK:   -4.61 KCAL/MOL
REMARK 922        TOTAL FREE ENERGY PREDICTED BY IDOCK:  -10.17 KCAL/MOL
REMARK 923 INTER-LIGAND FREE ENERGY PREDICTED BY IDOCK:   -8.42 KCAL/MOL
REMARK 924 INTRA-LIGAND FREE ENERGY PREDICTED BY IDOCK:   -1.75 KCAL/MOL
REMARK 927      BINDING AFFINITY PREDICTED BY RF-SCORE:    0.00 PKD
ROOT
HETATM    1  C   UNL     1      -8.530   7.772  74.391  1.00  0.00    -0.201 C  
HETATM    2  O   UNL     1      -7.817   6.646  73.877  1.00  0.00    -0.095 OA 
ENDROOT
BRANCH   2   3
HETATM    3  C   UNL     1      -7.573   6.627  72.526  1.00  0.00    -0.097 A  
HETATM    4  C   UNL     1      -7.895   7.679  71.664  1.00  0.00    -0.089 A  
HETATM    5  C   UNL     1      -7.529   7.637  70.315  1.00  0.00    -0.083 A  
HETATM    6  C   UNL     1      -6.864   6.531  69.778  1.00  0.00    -0.058 A  
HETATM    7  C   UNL     1      -6.595   5.448  70.630  1.00  0.00    -0.039 A  
HETATM    8  C   UNL     1      -6.585   4.289  72.802  1.00  0.00    -0.045 C  
HETATM    9  O   UNL     1      -6.306   4.538  74.098  1.00  0.00    -0.047 OA 
HETATM   10  C   UNL     1      -6.933   5.493  71.996  1.00  0.00    -0.080 A  
HETATM   11  O   UNL     1      -6.492   3.177  72.306  1.00  0.00    -0.014 OA 
BRANCH   6  12
HETATM   12  C   UNL     1      -6.401   6.491  68.335  1.00  0.00    -0.037 C  
BRANCH  12  13
HETATM   13  N   UNL     1      -7.260   7.192  67.364  1.00  0.00    -0.087 N  
HETATM   14  O   UNL     1      -8.504   7.174  65.411  1.00  0.00    -0.137 OA 
HETATM   15  C   UNL     1      -7.920   6.536  66.297  1.00  0.00    -0.111 C  
BRANCH  13  16
HETATM   16  C   UNL     1      -7.164   8.675  67.313  1.00  0.00    -0.080 C  
HETATM   17  C   UNL     1      -6.264   9.209  66.184  1.00  0.00    -0.064 C  
BRANCH  16  18
HETATM   18  C   UNL     1      -8.530   9.310  67.154  1.00  0.00    -0.124 A  
HETATM   19  C   UNL     1     -10.365  10.376  67.814  1.00  0.00    -0.206 A  
HETATM   20  C   UNL     1     -10.102  10.638  66.486  1.00  0.00    -0.223 A  
HETATM   21  N   UNL     1      -8.991   9.932  66.085  1.00  0.00    -0.146 NA 
HETATM   22  H   UNL     1      -8.599   9.896  65.144  1.00  0.00     0.000 HD 
HETATM   23  N   UNL     1      -9.380   9.508  68.217  1.00  0.00    -0.133 NA 
BRANCH  20  24
HETATM   24  C   UNL     1     -10.783  11.587  65.615  1.00  0.00    -0.323 A  
HETATM   25  C   UNL     1     -12.403  13.398  65.382  1.00  0.00    -0.522 A  
HETATM   26  C   UNL     1     -12.258  13.367  63.998  1.00  0.00    -0.466 A  
HETATM   27  C   UNL     1     -11.367  12.463  63.419  1.00  0.00    -0.507 A  
HETATM   28  C   UNL     1     -11.670  12.517  66.181  1.00  0.00    -0.466 A  
HETATM   29  C   UNL     1     -10.629  11.581  64.221  1.00  0.00    -0.405 A  
ENDBRANCH  20  24
ENDBRANCH  16  18
ENDBRANCH  13  16
BRANCH  15  30
HETATM   30  C   UNL     1      -7.919   4.961  66.288  1.00  0.00    -0.107 C  
HETATM   31  H2  UNL     1      -6.785   4.826  68.046  1.00  0.00     0.000 HD 
HETATM   32  N   UNL     1      -6.780   4.449  67.099  1.00  0.00    -0.050 NA 
HETATM   33  H1  UNL     1      -6.780   3.429  67.093  1.00  0.00     0.000 HD 
BRANCH  30  34
HETATM   34  C   UNL     1      -9.182   4.279  66.860  1.00  0.00    -0.160 C  
BRANCH  34  35
HETATM   35  C   UNL     1      -9.760   4.772  68.173  1.00  0.00    -0.201 A  
HETATM   36  C   UNL     1      -8.725   2.746  69.388  1.00  0.00    -0.134 C  
HETATM   37  C   UNL     1     -11.109   6.327  69.491  1.00  0.00    -0.476 A  
HETATM   38  C   UNL     1     -11.129   6.672  67.052  1.00  0.00    -0.395 C  
HETATM   39  C   UNL     1      -9.512   4.035  69.362  1.00  0.00    -0.259 A  
HETATM   40  C   UNL     1     -10.628   5.891  68.240  1.00  0.00    -0.310 A  
HETATM   41  C   UNL     1     -10.793   5.652  70.665  1.00  0.00    -0.304 A  
HETATM   42  C   UNL     1     -10.012   4.497  70.589  1.00  0.00    -0.273 A  
BRANCH  41  43
HETATM   43  C   UNL     1     -11.280   6.068  72.010  1.00  0.00    -0.288 C  
HETATM   44  H2  UNL     1     -11.689   8.020  71.423  1.00  0.00     0.000 HD 
HETATM   45  H1  UNL     1     -12.038   7.639  73.117  1.00  0.00     0.000 HD 
HETATM   46  N   UNL     1     -11.705   7.354  72.196  1.00  0.00    -0.284 N  
HETATM   47  O   UNL     1     -11.307   5.284  72.954  1.00  0.00    -0.294 OA 
ENDBRANCH  41  43
ENDBRANCH  34  35
ENDBRANCH  30  34
ENDBRANCH  15  30
ENDBRANCH  12  13
ENDBRANCH   6  12
ENDBRANCH   2   3
TORSDOF 10
ENDMDL
MODEL      118
REMARK 921   NORMALIZED FREE ENERGY PREDICTED BY IDOCK:   -4.60 KCAL/MOL
REMARK 922        TOTAL FREE ENERGY PREDICTED BY IDOCK:  -10.17 KCAL/MOL
REMARK 923 INTER-LIGAND FREE ENERGY PREDICTED BY IDOCK:   -9.74 KCAL/MOL
REMARK 924 INTRA-LIGAND FREE ENERGY PREDICTED BY IDOCK:   -0.42 KCAL/MOL
REMARK 927      BINDING AFFINITY PREDICTED BY RF-SCORE:    0.00 PKD
ROOT
HETATM    1  C   UNL     1     -11.376  15.857  70.941  1.00  0.00    -0.391 C  
HETATM    2  O   UNL     1     -10.419  15.514  69.938  1.00  0.00    -0.279 OA 
ENDROOT
BRANCH   2   3
HETATM    3  C   UNL     1     -10.742  14.479  69.097  1.00  0.00    -0.252 A  
HETATM    4  C   UNL     1     -12.053  14.128  68.764  1.00  0.00    -0.326 A  
HETATM    5  C   UNL     1     -12.310  13.126  67.824  1.00  0.00     0.081 A  
HETATM    6  C   UNL     1     -11.269  12.418  67.215  1.00  0.00    -0.357 A  
HETATM    7  C   UNL     1      -9.953  12.728  67.595  1.00  0.00    -0.217 A  
HETATM    8  C   UNL     1      -8.247  14.001  68.833  1.00  0.00     0.022 C  
HETATM    9  O   UNL     1      -7.949  15.276  69.153  1.00  0.00    -0.180 OA 
HETATM   10  C   UNL     1      -9.683  13.756  68.519  1.00  0.00    -0.193 A  
HETATM   11  O   UNL     1      -7.401  13.126  68.738  1.00  0.00    -0.106 OA 
BRANCH   6  12
HETATM   12  C   UNL     1     -11.521  11.372  66.147  1.00  0.00     0.075 C  
BRANCH  12  13
HETATM   13  N   UNL     1     -10.468  11.228  65.126  1.00  0.00    -0.286 N  
HETATM   14  O   UNL     1      -8.324  10.583  64.538  1.00  0.00    -0.168 OA 
HETATM   15  C   UNL     1      -9.247  10.552  65.363  1.00  0.00    -0.192 C  
BRANCH  13  16
HETATM   16  C   UNL     1     -10.559  12.097  63.924  1.00  0.00    -0.415 C  
HETATM   17  C   UNL     1     -11.696  11.717  62.957  1.00  0.00     0.011 C  
BRANCH  16  18
HETATM   18  C   UNL     1     -10.744  13.550  64.307  1.00  0.00    -0.308 A  
HETATM   19  C   UNL     1     -11.844  15.331  65.053  1.00  0.00    -0.100 A  
HETATM   20  C   UNL     1     -10.497  15.445  65.322  1.00  0.00    -0.415 A  
HETATM   21  N   UNL     1      -9.828  14.357  64.810  1.00  0.00    -0.526 NA 
HETATM   22  H   UNL     1      -8.819  14.203  64.817  1.00  0.00     0.000 HD 
HETATM   23  N   UNL     1     -11.983  14.142  64.382  1.00  0.00    -0.450 NA 
BRANCH  20  24
HETATM   24  C   UNL     1      -9.831  16.471  66.114  1.00  0.00    -0.355 A  
HETATM   25  C   UNL     1      -7.766  17.640  66.684  1.00  0.00    -0.284 A  
HETATM   26  C   UNL     1      -8.421  18.332  67.698  1.00  0.00    -0.260 A  
HETATM   27  C   UNL     1      -9.782  18.112  67.914  1.00  0.00    -0.302 A  
HETATM   28  C   UNL     1      -8.466  16.720  65.899  1.00  0.00    -0.032 A  
HETATM   29  C   UNL     1     -10.486  17.191  67.124  1.00  0.00    -0.291 A  
ENDBRANCH  20  24
ENDBRANCH  16  18
ENDBRANCH  13  16
BRANCH  15  30
HETATM   30  C   UNL     1      -9.109   9.726  66.696  1.00  0.00    -0.147 C  
HETATM   31  H2  UNL     1      -8.794  11.434  67.870  1.00  0.00     0.000 HD 
HETATM   32  N   UNL     1      -8.367  10.521  67.713  1.00  0.00    -0.111 NA 
HETATM   33  H1  UNL     1      -8.278   9.986  68.576  1.00  0.00     0.000 HD 
BRANCH  30  34
HETATM   34  C   UNL     1     -10.433   9.307  67.375  1.00  0.00    -0.340 C  
BRANCH  34  35
HETATM   35  C   UNL     1     -10.396   8.321  68.527  1.00  0.00    -0.230 A  
HETATM   36  C   UNL     1     -10.198   6.371  66.851  1.00  0.00    -0.277 C  
HETATM   37  C   UNL     1     -10.513   7.775  70.907  1.00  0.00    -0.214 A  
HETATM   38  C   UNL     1     -10.917  10.131  70.314  1.00  0.00    -0.380 C  
HETATM   39  C   UNL     1     -10.265   6.934  68.250  1.00  0.00    -0.201 A  
HETATM   40  C   UNL     1     -10.591   8.727  69.871  1.00  0.00    -0.230 A  
HETATM   41  C   UNL     1     -10.298   6.427  70.637  1.00  0.00    -0.243 A  
HETATM   42  C   UNL     1     -10.195   6.014  69.307  1.00  0.00    -0.263 A  
BRANCH  41  43
HETATM   43  C   UNL     1     -10.212   5.380  71.694  1.00  0.00    -0.209 C  
HETATM   44  H2  UNL     1     -10.872   6.643  73.209  1.00  0.00     0.000 HD 
HETATM   45  H1  UNL     1     -10.500   4.983  73.701  1.00  0.00     0.000 HD 
HETATM   46  N   UNL     1     -10.558   5.700  72.978  1.00  0.00    -0.225 N  
HETATM   47  O   UNL     1      -9.838   4.240  71.439  1.00  0.00    -0.177 OA 
ENDBRANCH  41  43
ENDBRANCH  34  35
ENDBRANCH  30  34
ENDBRANCH  15  30
ENDBRANCH  12  13
ENDBRANCH   6  12
ENDBRANCH   2   3
TORSDOF 10
ENDMDL
MODEL      119
REMARK 921   NORMALIZED FREE ENERGY PREDICTED BY IDOCK:   -4.55 KCAL/MOL
REMARK 922        TOTAL FREE ENERGY PREDICTED BY IDOCK:  -10.08 KCAL/MOL
REMARK 923 INTER-LIGAND FREE ENERGY PREDICTED BY IDOCK:   -7.69 KCAL/MOL
REMARK 924 INTRA-LIGAND FREE ENERGY PREDICTED BY IDOCK:   -2.38 KCAL/MOL
REMARK 927      BINDING AFFINITY PREDICTED BY RF-SCORE:    0.00 PKD
ROOT
HETATM    1  C   UNL     1     -12.311  14.252  64.960  1.00  0.00    -0.428 C  
HETATM    2  O   UNL     1     -12.335  14.403  66.381  1.00  0.00    -0.409 OA 
ENDROOT
BRANCH   2   3
HETATM    3  C   UNL     1     -11.936  13.322  67.128  1.00  0.00    -0.348 A  
HETATM    4  C   UNL     1     -11.776  12.035  66.608  1.00  0.00    -0.331 A  
HETATM    5  C   UNL     1     -11.271  11.000  67.401  1.00  0.00    -0.355 A  
HETATM    6  C   UNL     1     -10.947  11.208  68.745  1.00  0.00    -0.268 A  
HETATM    7  C   UNL     1     -11.166  12.485  69.284  1.00  0.00    -0.256 A  
HETATM    8  C   UNL     1     -11.825  14.855  69.167  1.00  0.00    -0.307 C  
HETATM    9  O   UNL     1     -11.651  15.931  68.374  1.00  0.00    -0.371 OA 
HETATM   10  C   UNL     1     -11.645  13.542  68.486  1.00  0.00    -0.368 A  
HETATM   11  O   UNL     1     -12.042  14.943  70.365  1.00  0.00    -0.288 OA 
BRANCH   6  12
HETATM   12  C   UNL     1     -10.340  10.118  69.606  1.00  0.00    -0.247 C  
BRANCH  12  13
HETATM   13  N   UNL     1      -9.306   9.288  68.961  1.00  0.00    -0.149 N  
HETATM   14  O   UNL     1      -7.142   9.036  68.178  1.00  0.00    -0.076 OA 
HETATM   15  C   UNL     1      -7.949   9.681  68.859  1.00  0.00    -0.089 C  
BRANCH  13  16
HETATM   16  C   UNL     1      -9.767   8.161  68.109  1.00  0.00    -0.161 C  
HETATM   17  C   UNL     1      -9.083   8.092  66.731  1.00  0.00    -0.189 C  
BRANCH  16  18
HETATM   18  C   UNL     1      -9.557   6.828  68.797  1.00  0.00    -0.132 A  
HETATM   19  C   UNL     1      -9.937   4.682  69.230  1.00  0.00    -0.161 A  
HETATM   20  C   UNL     1      -8.616   4.998  69.465  1.00  0.00    -0.091 A  
HETATM   21  N   UNL     1      -8.412   6.340  69.237  1.00  0.00    -0.123 NA 
HETATM   22  H   UNL     1      -7.544   6.858  69.381  1.00  0.00     0.000 HD 
HETATM   23  N   UNL     1     -10.530   5.857  68.839  1.00  0.00    -0.230 NA 
BRANCH  20  24
HETATM   24  C   UNL     1      -7.528   4.087  69.795  1.00  0.00    -0.052 A  
HETATM   25  C   UNL     1      -6.728   2.206  71.129  1.00  0.00    -0.031 A  
HETATM   26  C   UNL     1      -5.447   2.363  70.607  1.00  0.00    -0.012 A  
HETATM   27  C   UNL     1      -5.204   3.367  69.668  1.00  0.00    -0.008 A  
HETATM   28  C   UNL     1      -7.757   3.059  70.724  1.00  0.00    -0.039 A  
HETATM   29  C   UNL     1      -6.239   4.221  69.260  1.00  0.00    -0.028 A  
ENDBRANCH  20  24
ENDBRANCH  16  18
ENDBRANCH  13  16
BRANCH  15  30
HETATM   30  C   UNL     1      -7.487  10.949  69.671  1.00  0.00    -0.022 C  
HETATM   31  H2  UNL     1      -5.950   9.916  70.654  1.00  0.00     0.000 HD 
HETATM   32  N   UNL     1      -6.732  10.529  70.883  1.00  0.00    -0.393 NA 
HETATM   33  H1  UNL     1      -6.433  11.350  71.409  1.00  0.00     0.000 HD 
BRANCH  30  34
HETATM   34  C   UNL     1      -6.563  11.934  68.921  1.00  0.00    -0.087 C  
BRANCH  34  35
HETATM   35  C   UNL     1      -7.090  13.308  68.550  1.00  0.00    -0.105 A  
HETATM   36  C   UNL     1      -6.210  14.249  70.784  1.00  0.00    -0.116 C  
HETATM   37  C   UNL     1      -8.302  14.829  67.069  1.00  0.00    -0.228 A  
HETATM   38  C   UNL     1      -8.313  12.451  66.426  1.00  0.00     0.208 C  
HETATM   39  C   UNL     1      -6.892  14.393  69.445  1.00  0.00    -0.132 A  
HETATM   40  C   UNL     1      -7.866  13.526  67.384  1.00  0.00    -0.157 A  
HETATM   41  C   UNL     1      -8.031  15.906  67.906  1.00  0.00    -0.146 A  
HETATM   42  C   UNL     1      -7.345  15.676  69.100  1.00  0.00    -0.187 A  
BRANCH  41  43
HETATM   43  C   UNL     1      -8.473  17.300  67.622  1.00  0.00    -0.209 C  
HETATM   44  H2  UNL     1      -7.999  17.997  69.523  1.00  0.00     0.000 HD 
HETATM   45  H1  UNL     1      -8.675  19.199  68.411  1.00  0.00     0.000 HD 
HETATM   46  N   UNL     1      -8.372  18.244  68.606  1.00  0.00    -0.312 N  
HETATM   47  O   UNL     1      -8.927  17.620  66.527  1.00  0.00    -0.257 OA 
ENDBRANCH  41  43
ENDBRANCH  34  35
ENDBRANCH  30  34
ENDBRANCH  15  30
ENDBRANCH  12  13
ENDBRANCH   6  12
ENDBRANCH   2   3
TORSDOF 10
ENDMDL
MODEL      120
REMARK 921   NORMALIZED FREE ENERGY PREDICTED BY IDOCK:   -4.54 KCAL/MOL
REMARK 922        TOTAL FREE ENERGY PREDICTED BY IDOCK:  -10.06 KCAL/MOL
REMARK 923 INTER-LIGAND FREE ENERGY PREDICTED BY IDOCK:   -8.33 KCAL/MOL
REMARK 924 INTRA-LIGAND FREE ENERGY PREDICTED BY IDOCK:   -1.74 KCAL/MOL
REMARK 927      BINDING AFFINITY PREDICTED BY RF-SCORE:    0.00 PKD
ROOT
HETATM    1  C   UNL     1     -10.943  14.702  68.079  1.00  0.00    -0.267 C  
HETATM    2  O   UNL     1     -11.009  13.306  67.782  1.00  0.00    -0.248 OA 
ENDROOT
BRANCH   2   3
HETATM    3  C   UNL     1      -9.836  12.598  67.857  1.00  0.00    -0.218 A  
HETATM    4  C   UNL     1      -8.701  12.892  67.096  1.00  0.00    -0.205 A  
HETATM    5  C   UNL     1      -7.506  12.192  67.293  1.00  0.00    -0.152 A  
HETATM    6  C   UNL     1      -7.418  11.156  68.227  1.00  0.00    -0.094 A  
HETATM    7  C   UNL     1      -8.575  10.819  68.947  1.00  0.00    -0.155 A  
HETATM    8  C   UNL     1     -10.931  11.096  69.608  1.00  0.00    -0.192 C  
HETATM    9  O   UNL     1     -11.797  12.075  69.936  1.00  0.00    -0.320 OA 
HETATM   10  C   UNL     1      -9.774  11.537  68.778  1.00  0.00    -0.137 A  
HETATM   11  O   UNL     1     -11.041   9.949  70.015  1.00  0.00    -0.251 OA 
BRANCH   6  12
HETATM   12  C   UNL     1      -6.117  10.427  68.502  1.00  0.00    -0.043 C  
BRANCH  12  13
HETATM   13  N   UNL     1      -6.194   8.955  68.517  1.00  0.00    -0.052 N  
HETATM   14  O   UNL     1      -6.758   6.969  67.469  1.00  0.00    -0.062 OA 
HETATM   15  C   UNL     1      -6.551   8.187  67.382  1.00  0.00    -0.058 C  
BRANCH  13  16
HETATM   16  C   UNL     1      -6.215   8.285  69.843  1.00  0.00    -0.032 C  
HETATM   17  C   UNL     1      -5.733   9.174  71.005  1.00  0.00    -0.047 C  
BRANCH  16  18
HETATM   18  C   UNL     1      -7.603   7.788  70.188  1.00  0.00    -0.085 A  
HETATM   19  C   UNL     1      -9.682   7.119  69.779  1.00  0.00    -0.165 A  
HETATM   20  C   UNL     1      -9.198   6.525  70.925  1.00  0.00    -0.154 A  
HETATM   21  N   UNL     1      -7.929   6.988  71.187  1.00  0.00    -0.103 NA 
HETATM   22  H   UNL     1      -7.352   6.758  71.996  1.00  0.00     0.000 HD 
HETATM   23  N   UNL     1      -8.674   7.942  69.339  1.00  0.00    -0.137 NA 
BRANCH  20  24
HETATM   24  C   UNL     1      -9.830   5.481  71.720  1.00  0.00    -0.216 A  
HETATM   25  C   UNL     1     -11.604   4.836  73.267  1.00  0.00    -0.286 A  
HETATM   26  C   UNL     1     -11.044   3.569  73.402  1.00  0.00    -0.291 A  
HETATM   27  C   UNL     1      -9.890   3.246  72.687  1.00  0.00    -0.207 A  
HETATM   28  C   UNL     1     -11.003   5.781  72.432  1.00  0.00    -0.308 A  
HETATM   29  C   UNL     1      -9.288   4.193  71.847  1.00  0.00    -0.190 A  
ENDBRANCH  20  24
ENDBRANCH  16  18
ENDBRANCH  13  16
BRANCH  15  30
HETATM   30  C   UNL     1      -6.645   8.924  65.994  1.00  0.00    -0.065 C  
HETATM   31  H2  UNL     1      -5.332   7.588  65.053  1.00  0.00     0.000 HD 
HETATM   32  N   UNL     1      -5.455   8.594  65.162  1.00  0.00    -0.039 NA 
HETATM   33  H1  UNL     1      -5.517   9.071  64.263  1.00  0.00     0.000 HD 
BRANCH  30  34
HETATM   34  C   UNL     1      -7.875   8.578  65.124  1.00  0.00    -0.116 C  
BRANCH  34  35
HETATM   35  C   UNL     1      -8.897   9.658  64.823  1.00  0.00    -0.242 A  
HETATM   36  C   UNL     1     -10.403   8.762  66.716  1.00  0.00    -0.328 C  
HETATM   37  C   UNL     1      -9.722  11.543  63.502  1.00  0.00    -0.354 A  
HETATM   38  C   UNL     1      -7.658  10.470  62.690  1.00  0.00    -0.128 C  
HETATM   39  C   UNL     1     -10.079   9.735  65.606  1.00  0.00    -0.282 A  
HETATM   40  C   UNL     1      -8.761  10.535  63.717  1.00  0.00    -0.185 A  
HETATM   41  C   UNL     1     -10.836  11.669  64.325  1.00  0.00    -0.418 A  
HETATM   42  C   UNL     1     -11.017  10.749  65.360  1.00  0.00     0.040 A  
BRANCH  41  43
HETATM   43  C   UNL     1     -11.883  12.712  64.138  1.00  0.00    -0.410 C  
HETATM   44  H2  UNL     1     -10.588  14.293  64.526  1.00  0.00     0.000 HD 
HETATM   45  H1  UNL     1     -12.262  14.743  64.161  1.00  0.00     0.000 HD 
HETATM   46  N   UNL     1     -11.545  14.029  64.289  1.00  0.00    -0.361 N  
HETATM   47  O   UNL     1     -13.040  12.418  63.854  1.00  0.00    -0.763 OA 
ENDBRANCH  41  43
ENDBRANCH  34  35
ENDBRANCH  30  34
ENDBRANCH  15  30
ENDBRANCH  12  13
ENDBRANCH   6  12
ENDBRANCH   2   3
TORSDOF 10
ENDMDL
MODEL      121
REMARK 921   NORMALIZED FREE ENERGY PREDICTED BY IDOCK:   -4.52 KCAL/MOL
REMARK 922        TOTAL FREE ENERGY PREDICTED BY IDOCK:  -10.03 KCAL/MOL
REMARK 923 INTER-LIGAND FREE ENERGY PREDICTED BY IDOCK:   -8.66 KCAL/MOL
REMARK 924 INTRA-LIGAND FREE ENERGY PREDICTED BY IDOCK:   -1.37 KCAL/MOL
REMARK 927      BINDING AFFINITY PREDICTED BY RF-SCORE:    0.00 PKD
ROOT
HETATM    1  C   UNL     1     -12.753  11.968  63.210  1.00  0.00    -0.303 C  
HETATM    2  O   UNL     1     -11.403  12.413  63.348  1.00  0.00    -0.452 OA 
ENDROOT
BRANCH   2   3
HETATM    3  C   UNL     1     -10.892  12.465  64.621  1.00  0.00    -0.309 A  
HETATM    4  C   UNL     1     -11.397  13.291  65.628  1.00  0.00    -0.325 A  
HETATM    5  C   UNL     1     -10.894  13.222  66.931  1.00  0.00    -0.286 A  
HETATM    6  C   UNL     1      -9.849  12.354  67.260  1.00  0.00    -0.207 A  
HETATM    7  C   UNL     1      -9.300  11.568  66.235  1.00  0.00    -0.227 A  
HETATM    8  C   UNL     1      -9.163  10.719  63.927  1.00  0.00    -0.235 C  
HETATM    9  O   UNL     1      -9.974  10.275  62.946  1.00  0.00    -0.156 OA 
HETATM   10  C   UNL     1      -9.819  11.608  64.926  1.00  0.00    -0.267 A  
HETATM   11  O   UNL     1      -7.998  10.367  64.034  1.00  0.00    -0.147 OA 
BRANCH   6  12
HETATM   12  C   UNL     1      -9.330  12.217  68.678  1.00  0.00    -0.025 C  
BRANCH  12  13
HETATM   13  N   UNL     1      -8.107  11.410  68.841  1.00  0.00    -0.111 N  
HETATM   14  O   UNL     1      -7.041   9.541  69.693  1.00  0.00    -0.061 OA 
HETATM   15  C   UNL     1      -8.101  10.123  69.431  1.00  0.00    -0.160 C  
BRANCH  13  16
HETATM   16  C   UNL     1      -6.804  12.105  68.679  1.00  0.00    -0.089 C  
HETATM   17  C   UNL     1      -6.166  11.931  67.288  1.00  0.00    -0.140 C  
BRANCH  16  18
HETATM   18  C   UNL     1      -6.935  13.591  68.943  1.00  0.00    -0.108 A  
HETATM   19  C   UNL     1      -6.446  15.536  69.901  1.00  0.00    -0.146 A  
HETATM   20  C   UNL     1      -6.939  15.732  68.628  1.00  0.00    -0.124 A  
HETATM   21  N   UNL     1      -7.280  14.520  68.071  1.00  0.00    -0.125 NA 
HETATM   22  H   UNL     1      -7.715  14.369  67.161  1.00  0.00     0.000 HD 
HETATM   23  N   UNL     1      -6.479  14.178  70.101  1.00  0.00    -0.123 NA 
BRANCH  20  24
HETATM   24  C   UNL     1      -7.011  16.983  67.885  1.00  0.00    -0.169 A  
HETATM   25  C   UNL     1      -7.501  19.374  67.887  1.00  0.00    -0.305 A  
HETATM   26  C   UNL     1      -7.318  19.426  66.509  1.00  0.00    -0.251 A  
HETATM   27  C   UNL     1      -6.965  18.267  65.816  1.00  0.00    -0.284 A  
HETATM   28  C   UNL     1      -7.347  18.163  68.567  1.00  0.00    -0.285 A  
HETATM   29  C   UNL     1      -6.807  17.053  66.499  1.00  0.00    -0.281 A  
ENDBRANCH  20  24
ENDBRANCH  16  18
ENDBRANCH  13  16
BRANCH  15  30
HETATM   30  C   UNL     1      -9.490   9.435  69.712  1.00  0.00    -0.202 C  
HETATM   31  H2  UNL     1      -8.753   7.508  69.342  1.00  0.00     0.000 HD 
HETATM   32  N   UNL     1      -9.536   8.098  69.060  1.00  0.00    -0.154 NA 
HETATM   33  H1  UNL     1     -10.435   7.653  69.243  1.00  0.00     0.000 HD 
BRANCH  30  34
HETATM   34  C   UNL     1      -9.837   9.192  71.198  1.00  0.00    -0.371 C  
BRANCH  34  35
HETATM   35  C   UNL     1      -9.913   7.768  71.717  1.00  0.00    -0.219 A  
HETATM   36  C   UNL     1     -12.464   7.764  71.332  1.00  0.00    -0.342 C  
HETATM   37  C   UNL     1      -8.903   5.772  72.703  1.00  0.00    -0.125 A  
HETATM   38  C   UNL     1      -7.427   7.729  72.463  1.00  0.00    -0.101 C  
HETATM   39  C   UNL     1     -11.170   7.107  71.753  1.00  0.00    -0.278 A  
HETATM   40  C   UNL     1      -8.786   7.107  72.266  1.00  0.00    -0.142 A  
HETATM   41  C   UNL     1     -10.120   5.099  72.656  1.00  0.00    -0.220 A  
HETATM   42  C   UNL     1     -11.250   5.779  72.199  1.00  0.00    -0.327 A  
BRANCH  41  43
HETATM   43  C   UNL     1     -10.299   3.691  73.110  1.00  0.00    -0.165 C  
HETATM   44  H2  UNL     1      -8.417   3.086  72.464  1.00  0.00     0.000 HD 
HETATM   45  H1  UNL     1      -9.408   1.831  73.226  1.00  0.00     0.000 HD 
HETATM   46  N   UNL     1      -9.285   2.794  72.915  1.00  0.00    -0.088 N  
HETATM   47  O   UNL     1     -11.334   3.318  73.654  1.00  0.00    -0.224 OA 
ENDBRANCH  41  43
ENDBRANCH  34  35
ENDBRANCH  30  34
ENDBRANCH  15  30
ENDBRANCH  12  13
ENDBRANCH   6  12
ENDBRANCH   2   3
TORSDOF 10
ENDMDL
MODEL      122
REMARK 921   NORMALIZED FREE ENERGY PREDICTED BY IDOCK:   -4.51 KCAL/MOL
REMARK 922        TOTAL FREE ENERGY PREDICTED BY IDOCK:  -10.02 KCAL/MOL
REMARK 923 INTER-LIGAND FREE ENERGY PREDICTED BY IDOCK:   -8.88 KCAL/MOL
REMARK 924 INTRA-LIGAND FREE ENERGY PREDICTED BY IDOCK:   -1.14 KCAL/MOL
REMARK 927      BINDING AFFINITY PREDICTED BY RF-SCORE:    0.00 PKD
ROOT
HETATM    1  C   UNL     1     -12.735  12.032  63.509  1.00  0.00    -0.443 C  
HETATM    2  O   UNL     1     -12.548  12.230  64.911  1.00  0.00    -0.547 OA 
ENDROOT
BRANCH   2   3
HETATM    3  C   UNL     1     -11.297  11.971  65.414  1.00  0.00    -0.321 A  
HETATM    4  C   UNL     1     -10.362  11.146  64.784  1.00  0.00    -0.387 A  
HETATM    5  C   UNL     1      -9.070  11.004  65.300  1.00  0.00    -0.207 A  
HETATM    6  C   UNL     1      -8.684  11.649  66.478  1.00  0.00    -0.182 A  
HETATM    7  C   UNL     1      -9.642  12.428  67.145  1.00  0.00    -0.206 A  
HETATM    8  C   UNL     1     -11.861  13.462  67.408  1.00  0.00    -0.375 C  
HETATM    9  O   UNL     1     -12.778  14.128  66.677  1.00  0.00    -0.241 OA 
HETATM   10  C   UNL     1     -10.937  12.602  66.618  1.00  0.00    -0.292 A  
HETATM   11  O   UNL     1     -11.748  13.603  68.616  1.00  0.00    -0.308 OA 
BRANCH   6  12
HETATM   12  C   UNL     1      -7.271  11.560  67.021  1.00  0.00    -0.146 C  
BRANCH  12  13
HETATM   13  N   UNL     1      -7.150  11.446  68.486  1.00  0.00    -0.079 N  
HETATM   14  O   UNL     1      -6.393  12.290  70.504  1.00  0.00    -0.136 OA 
HETATM   15  C   UNL     1      -6.624  12.476  69.302  1.00  0.00    -0.089 C  
BRANCH  13  16
HETATM   16  C   UNL     1      -7.281  10.089  69.079  1.00  0.00    -0.076 C  
HETATM   17  C   UNL     1      -8.623   9.841  69.792  1.00  0.00    -0.215 C  
BRANCH  16  18
HETATM   18  C   UNL     1      -7.110   9.010  68.029  1.00  0.00    -0.079 A  
HETATM   19  C   UNL     1      -6.071   7.365  66.957  1.00  0.00    -0.046 A  
HETATM   20  C   UNL     1      -7.438   7.210  66.875  1.00  0.00    -0.100 A  
HETATM   21  N   UNL     1      -8.063   8.263  67.503  1.00  0.00    -0.120 NA 
HETATM   22  H   UNL     1      -9.068   8.434  67.553  1.00  0.00     0.000 HD 
HETATM   23  N   UNL     1      -5.876   8.526  67.663  1.00  0.00    -0.042 NA 
BRANCH  20  24
HETATM   24  C   UNL     1      -8.174   6.079  66.325  1.00  0.00    -0.118 A  
HETATM   25  C   UNL     1      -8.679   4.670  64.397  1.00  0.00    -0.148 A  
HETATM   26  C   UNL     1      -9.654   3.998  65.127  1.00  0.00    -0.181 A  
HETATM   27  C   UNL     1      -9.882   4.347  66.458  1.00  0.00    -0.247 A  
HETATM   28  C   UNL     1      -7.946   5.700  64.992  1.00  0.00    -0.115 A  
HETATM   29  C   UNL     1      -9.144   5.378  67.057  1.00  0.00    -0.112 A  
ENDBRANCH  20  24
ENDBRANCH  16  18
ENDBRANCH  13  16
BRANCH  15  30
HETATM   30  C   UNL     1      -6.374  13.884  68.641  1.00  0.00    -0.090 C  
HETATM   31  H2  UNL     1      -6.515  13.133  66.689  1.00  0.00     0.000 HD 
HETATM   32  N   UNL     1      -5.885  13.710  67.246  1.00  0.00    -0.359 NA 
HETATM   33  H1  UNL     1      -5.723  14.622  66.819  1.00  0.00     0.000 HD 
BRANCH  30  34
HETATM   34  C   UNL     1      -7.603  14.815  68.544  1.00  0.00    -0.120 C  
BRANCH  34  35
HETATM   35  C   UNL     1      -7.444  16.190  67.923  1.00  0.00    -0.140 A  
HETATM   36  C   UNL     1      -5.977  16.920  69.915  1.00  0.00    -0.219 C  
HETATM   37  C   UNL     1      -7.933  17.850  66.196  1.00  0.00    -0.236 A  
HETATM   38  C   UNL     1      -9.156  15.718  66.029  1.00  0.00    -0.361 C  
HETATM   39  C   UNL     1      -6.651  17.164  68.586  1.00  0.00    -0.180 A  
HETATM   40  C   UNL     1      -8.144  16.571  66.751  1.00  0.00    -0.286 A  
HETATM   41  C   UNL     1      -7.087  18.773  66.803  1.00  0.00    -0.228 A  
HETATM   42  C   UNL     1      -6.467  18.429  68.006  1.00  0.00    -0.201 A  
BRANCH  41  43
HETATM   43  C   UNL     1      -6.834  20.137  66.262  1.00  0.00    -0.239 C  
HETATM   44  H2  UNL     1      -6.711  21.022  68.139  1.00  0.00     0.000 HD 
HETATM   45  H1  UNL     1      -6.492  22.112  66.761  1.00  0.00     0.000 HD 
HETATM   46  N   UNL     1      -6.665  21.178  67.132  1.00  0.00    -0.354 N  
HETATM   47  O   UNL     1      -6.776  20.349  65.054  1.00  0.00    -0.304 OA 
ENDBRANCH  41  43
ENDBRANCH  34  35
ENDBRANCH  30  34
ENDBRANCH  15  30
ENDBRANCH  12  13
ENDBRANCH   6  12
ENDBRANCH   2   3
TORSDOF 10
ENDMDL
MODEL      123
REMARK 921   NORMALIZED FREE ENERGY PREDICTED BY IDOCK:   -4.51 KCAL/MOL
REMARK 922        TOTAL FREE ENERGY PREDICTED BY IDOCK:  -10.01 KCAL/MOL
REMARK 923 INTER-LIGAND FREE ENERGY PREDICTED BY IDOCK:  -11.29 KCAL/MOL
REMARK 924 INTRA-LIGAND FREE ENERGY PREDICTED BY IDOCK:    1.28 KCAL/MOL
REMARK 927      BINDING AFFINITY PREDICTED BY RF-SCORE:    0.00 PKD
ROOT
HETATM    1  C   UNL     1     -12.490  14.270  73.242  1.00  0.00    -0.026 C  
HETATM    2  O   UNL     1     -13.385  13.515  72.424  1.00  0.00    -0.493 OA 
ENDROOT
BRANCH   2   3
HETATM    3  C   UNL     1     -12.845  12.884  71.331  1.00  0.00    -0.283 A  
HETATM    4  C   UNL     1     -12.635  11.504  71.255  1.00  0.00    -0.452 A  
HETATM    5  C   UNL     1     -12.175  10.914  70.074  1.00  0.00    -0.422 A  
HETATM    6  C   UNL     1     -11.875  11.685  68.946  1.00  0.00    -0.392 A  
HETATM    7  C   UNL     1     -12.027  13.077  69.042  1.00  0.00    -0.312 A  
HETATM    8  C   UNL     1     -12.650  15.162  70.194  1.00  0.00    -0.279 C  
HETATM    9  O   UNL     1     -13.642  15.654  70.964  1.00  0.00    -0.588 OA 
HETATM   10  C   UNL     1     -12.519  13.678  70.217  1.00  0.00    -0.335 A  
HETATM   11  O   UNL     1     -11.955  15.867  69.479  1.00  0.00    -0.347 OA 
BRANCH   6  12
HETATM   12  C   UNL     1     -11.435  11.061  67.637  1.00  0.00    -0.224 C  
BRANCH  12  13
HETATM   13  N   UNL     1     -10.112  11.476  67.137  1.00  0.00    -0.195 N  
HETATM   14  O   UNL     1      -7.803  11.412  67.292  1.00  0.00    -0.133 OA 
HETATM   15  C   UNL     1      -8.897  10.933  67.619  1.00  0.00    -0.133 C  
BRANCH  13  16
HETATM   16  C   UNL     1     -10.045  12.730  66.343  1.00  0.00    -0.259 C  
HETATM   17  C   UNL     1     -11.322  13.035  65.539  1.00  0.00    -0.330 C  
BRANCH  16  18
HETATM   18  C   UNL     1      -9.758  13.928  67.225  1.00  0.00    -0.245 A  
HETATM   19  C   UNL     1      -8.636  15.128  68.721  1.00  0.00    -0.182 A  
HETATM   20  C   UNL     1      -9.307  15.952  67.843  1.00  0.00    -0.207 A  
HETATM   21  N   UNL     1     -10.034  15.190  66.956  1.00  0.00    -0.239 NA 
HETATM   22  H   UNL     1     -10.663  15.535  66.230  1.00  0.00     0.000 HD 
HETATM   23  N   UNL     1      -8.956  13.848  68.339  1.00  0.00    -0.189 NA 
BRANCH  20  24
HETATM   24  C   UNL     1      -9.219  17.402  67.740  1.00  0.00    -0.248 A  
HETATM   25  C   UNL     1      -7.973  19.446  68.218  1.00  0.00    -0.366 A  
HETATM   26  C   UNL     1      -9.019  20.216  67.720  1.00  0.00    -0.369 A  
HETATM   27  C   UNL     1     -10.158  19.588  67.215  1.00  0.00    -0.523 A  
HETATM   28  C   UNL     1      -8.073  18.052  68.226  1.00  0.00    -0.296 A  
HETATM   29  C   UNL     1     -10.257  18.189  67.219  1.00  0.00    -0.377 A  
ENDBRANCH  20  24
ENDBRANCH  16  18
ENDBRANCH  13  16
BRANCH  15  30
HETATM   30  C   UNL     1      -8.975   9.672  68.559  1.00  0.00    -0.124 C  
HETATM   31  H2  UNL     1     -10.034  10.694  70.052  1.00  0.00     0.000 HD 
HETATM   32  N   UNL     1      -9.209  10.100  69.966  1.00  0.00    -0.392 NA 
HETATM   33  H1  UNL     1      -9.260   9.283  70.574  1.00  0.00     0.000 HD 
BRANCH  30  34
HETATM   34  C   UNL     1     -10.093   8.655  68.238  1.00  0.00    -0.225 C  
BRANCH  34  35
HETATM   35  C   UNL     1      -9.868   7.186  68.540  1.00  0.00    -0.155 A  
HETATM   36  C   UNL     1     -11.448   7.360  70.571  1.00  0.00    -0.281 C  
HETATM   37  C   UNL     1      -8.783   5.035  68.118  1.00  0.00    -0.106 A  
HETATM   38  C   UNL     1      -8.013   6.928  66.742  1.00  0.00    -0.108 C  
HETATM   39  C   UNL     1     -10.538   6.592  69.642  1.00  0.00    -0.291 A  
HETATM   40  C   UNL     1      -8.929   6.405  67.820  1.00  0.00    -0.113 A  
HETATM   41  C   UNL     1      -9.507   4.437  69.145  1.00  0.00    -0.240 A  
HETATM   42  C   UNL     1     -10.365   5.226  69.913  1.00  0.00    -0.374 A  
BRANCH  41  43
HETATM   43  C   UNL     1      -9.386   2.996  69.504  1.00  0.00    -0.143 C  
HETATM   44  H2  UNL     1      -9.220   3.365  71.544  1.00  0.00     0.000 HD 
HETATM   45  H1  UNL     1      -9.161   1.661  71.065  1.00  0.00     0.000 HD 
HETATM   46  N   UNL     1      -9.243   2.648  70.819  1.00  0.00    -0.121 N  
HETATM   47  O   UNL     1      -9.411   2.116  68.649  1.00  0.00    -0.176 OA 
ENDBRANCH  41  43
ENDBRANCH  34  35
ENDBRANCH  30  34
ENDBRANCH  15  30
ENDBRANCH  12  13
ENDBRANCH   6  12
ENDBRANCH   2   3
TORSDOF 10
ENDMDL
MODEL      124
REMARK 921   NORMALIZED FREE ENERGY PREDICTED BY IDOCK:   -4.50 KCAL/MOL
REMARK 922        TOTAL FREE ENERGY PREDICTED BY IDOCK:  -10.01 KCAL/MOL
REMARK 923 INTER-LIGAND FREE ENERGY PREDICTED BY IDOCK:   -9.20 KCAL/MOL
REMARK 924 INTRA-LIGAND FREE ENERGY PREDICTED BY IDOCK:   -0.81 KCAL/MOL
REMARK 927      BINDING AFFINITY PREDICTED BY RF-SCORE:    0.00 PKD
ROOT
HETATM    1  C   UNL     1     -11.885  12.921  63.407  1.00  0.00    -0.507 C  
HETATM    2  O   UNL     1     -10.818  12.938  64.357  1.00  0.00    -0.335 OA 
ENDROOT
BRANCH   2   3
HETATM    3  C   UNL     1     -10.719  11.860  65.201  1.00  0.00    -0.291 A  
HETATM    4  C   UNL     1     -10.258  10.602  64.803  1.00  0.00    -0.401 A  
HETATM    5  C   UNL     1     -10.088   9.574  65.736  1.00  0.00    -0.223 A  
HETATM    6  C   UNL     1     -10.407   9.758  67.084  1.00  0.00    -0.311 A  
HETATM    7  C   UNL     1     -10.928  11.002  67.473  1.00  0.00    -0.338 A  
HETATM    8  C   UNL     1     -11.626  13.331  67.081  1.00  0.00    -0.357 C  
HETATM    9  O   UNL     1     -11.193  14.440  66.450  1.00  0.00    -0.329 OA 
HETATM   10  C   UNL     1     -11.075  12.053  66.548  1.00  0.00    -0.362 A  
HETATM   11  O   UNL     1     -12.357  13.367  68.059  1.00  0.00    -0.199 OA 
BRANCH   6  12
HETATM   12  C   UNL     1     -10.171   8.679  68.123  1.00  0.00    -0.205 C  
BRANCH  12  13
HETATM   13  N   UNL     1      -8.996   8.868  68.992  1.00  0.00    -0.136 N  
HETATM   14  O   UNL     1      -8.083   9.567  71.001  1.00  0.00    -0.312 OA 
HETATM   15  C   UNL     1      -9.091   9.268  70.347  1.00  0.00    -0.247 C  
BRANCH  13  16
HETATM   16  C   UNL     1      -7.666   8.956  68.334  1.00  0.00    -0.099 C  
HETATM   17  C   UNL     1      -7.523   8.069  67.083  1.00  0.00    -0.092 C  
BRANCH  16  18
HETATM   18  C   UNL     1      -7.345  10.380  67.929  1.00  0.00    -0.086 A  
HETATM   19  C   UNL     1      -7.006  12.065  66.521  1.00  0.00     0.304 A  
HETATM   20  C   UNL     1      -7.485  12.530  67.727  1.00  0.00    -0.130 A  
HETATM   21  N   UNL     1      -7.643  11.477  68.600  1.00  0.00    -0.128 NA 
HETATM   22  H   UNL     1      -7.935  11.534  69.576  1.00  0.00     0.000 HD 
HETATM   23  N   UNL     1      -6.890  10.705  66.673  1.00  0.00    -0.106 NA 
BRANCH  20  24
HETATM   24  C   UNL     1      -7.891  13.889  68.059  1.00  0.00    -0.154 A  
HETATM   25  C   UNL     1      -7.451  16.285  67.897  1.00  0.00    -0.142 A  
HETATM   26  C   UNL     1      -8.507  16.550  68.763  1.00  0.00    -0.248 A  
HETATM   27  C   UNL     1      -9.269  15.495  69.266  1.00  0.00    -0.268 A  
HETATM   28  C   UNL     1      -7.148  14.966  67.548  1.00  0.00    -0.215 A  
HETATM   29  C   UNL     1      -8.967  14.171  68.913  1.00  0.00     0.019 A  
ENDBRANCH  20  24
ENDBRANCH  16  18
ENDBRANCH  13  16
BRANCH  15  30
HETATM   30  C   UNL     1     -10.519   9.288  71.011  1.00  0.00    -0.314 C  
HETATM   31  H2  UNL     1     -11.372  10.385  69.441  1.00  0.00     0.000 HD 
HETATM   32  N   UNL     1     -11.320  10.415  70.459  1.00  0.00    -0.329 NA 
HETATM   33  H1  UNL     1     -12.245  10.427  70.889  1.00  0.00     0.000 HD 
BRANCH  30  34
HETATM   34  C   UNL     1     -11.379   8.021  70.806  1.00  0.00    -0.282 C  
BRANCH  34  35
HETATM   35  C   UNL     1     -10.833   6.676  71.247  1.00  0.00    -0.279 A  
HETATM   36  C   UNL     1     -10.521   7.586  73.640  1.00  0.00    -0.285 C  
HETATM   37  C   UNL     1     -10.117   4.382  70.796  1.00  0.00    -0.199 A  
HETATM   38  C   UNL     1     -10.778   5.718  68.835  1.00  0.00    -0.334 C  
HETATM   39  C   UNL     1     -10.450   6.491  72.603  1.00  0.00    -0.236 A  
HETATM   40  C   UNL     1     -10.593   5.623  70.328  1.00  0.00    -0.370 A  
HETATM   41  C   UNL     1      -9.826   4.178  72.141  1.00  0.00    -0.235 A  
HETATM   42  C   UNL     1      -9.976   5.242  73.032  1.00  0.00    -0.188 A  
BRANCH  41  43
HETATM   43  C   UNL     1      -9.315   2.889  72.686  1.00  0.00    -0.101 C  
HETATM   44  H2  UNL     1     -10.169   3.171  74.561  1.00  0.00     0.000 HD 
HETATM   45  H1  UNL     1      -9.259   1.666  74.350  1.00  0.00     0.000 HD 
HETATM   46  N   UNL     1      -9.608   2.549  73.978  1.00  0.00    -0.087 N  
HETATM   47  O   UNL     1      -8.639   2.126  72.003  1.00  0.00    -0.059 OA 
ENDBRANCH  41  43
ENDBRANCH  34  35
ENDBRANCH  30  34
ENDBRANCH  15  30
ENDBRANCH  12  13
ENDBRANCH   6  12
ENDBRANCH   2   3
TORSDOF 10
ENDMDL
MODEL      125
REMARK 921   NORMALIZED FREE ENERGY PREDICTED BY IDOCK:   -4.49 KCAL/MOL
REMARK 922        TOTAL FREE ENERGY PREDICTED BY IDOCK:   -9.99 KCAL/MOL
REMARK 923 INTER-LIGAND FREE ENERGY PREDICTED BY IDOCK:   -8.04 KCAL/MOL
REMARK 924 INTRA-LIGAND FREE ENERGY PREDICTED BY IDOCK:   -1.95 KCAL/MOL
REMARK 927      BINDING AFFINITY PREDICTED BY RF-SCORE:    0.00 PKD
ROOT
HETATM    1  C   UNL     1      -6.750   3.844  72.713  1.00  0.00    -0.041 C  
HETATM    2  O   UNL     1      -7.732   4.633  73.386  1.00  0.00    -0.091 OA 
ENDROOT
BRANCH   2   3
HETATM    3  C   UNL     1      -8.072   5.830  72.807  1.00  0.00    -0.108 A  
HETATM    4  C   UNL     1      -7.173   6.882  72.611  1.00  0.00    -0.078 A  
HETATM    5  C   UNL     1      -7.560   8.037  71.925  1.00  0.00    -0.101 A  
HETATM    6  C   UNL     1      -8.863   8.194  71.446  1.00  0.00    -0.185 A  
HETATM    7  C   UNL     1      -9.784   7.164  71.696  1.00  0.00    -0.166 A  
HETATM    8  C   UNL     1     -10.458   4.957  72.555  1.00  0.00    -0.205 C  
HETATM    9  O   UNL     1     -10.016   3.683  72.575  1.00  0.00    -0.146 OA 
HETATM   10  C   UNL     1      -9.396   5.984  72.359  1.00  0.00    -0.150 A  
HETATM   11  O   UNL     1     -11.642   5.248  72.621  1.00  0.00    -0.247 OA 
BRANCH   6  12
HETATM   12  C   UNL     1      -9.288   9.409  70.644  1.00  0.00    -0.252 C  
BRANCH  12  13
HETATM   13  N   UNL     1     -10.335   9.180  69.633  1.00  0.00    -0.211 N  
HETATM   14  O   UNL     1     -10.961   8.941  67.417  1.00  0.00    -0.125 OA 
HETATM   15  C   UNL     1     -10.055   8.975  68.260  1.00  0.00    -0.192 C  
BRANCH  13  16
HETATM   16  C   UNL     1     -11.736   9.498  70.016  1.00  0.00     0.018 C  
HETATM   17  C   UNL     1     -12.197   8.832  71.326  1.00  0.00    -0.332 C  
BRANCH  16  18
HETATM   18  C   UNL     1     -11.942  10.991  70.159  1.00  0.00    -0.360 A  
HETATM   19  C   UNL     1     -12.212  12.911  71.246  1.00  0.00     0.099 A  
HETATM   20  C   UNL     1     -11.604  13.124  70.027  1.00  0.00    -0.131 A  
HETATM   21  N   UNL     1     -11.489  11.931  69.350  1.00  0.00    -0.291 NA 
HETATM   22  H   UNL     1     -11.125  11.799  68.407  1.00  0.00     0.000 HD 
HETATM   23  N   UNL     1     -12.451  11.560  71.303  1.00  0.00    -0.333 NA 
BRANCH  20  24
HETATM   24  C   UNL     1     -11.043  14.369  69.519  1.00  0.00    -0.267 A  
HETATM   25  C   UNL     1     -11.226  16.252  67.976  1.00  0.00    -0.260 A  
HETATM   26  C   UNL     1      -9.973  16.712  68.368  1.00  0.00    -0.255 A  
HETATM   27  C   UNL     1      -9.258  16.018  69.345  1.00  0.00    -0.202 A  
HETATM   28  C   UNL     1     -11.756  15.092  68.548  1.00  0.00    -0.347 A  
HETATM   29  C   UNL     1      -9.791  14.856  69.922  1.00  0.00     0.121 A  
ENDBRANCH  20  24
ENDBRANCH  16  18
ENDBRANCH  13  16
BRANCH  15  30
HETATM   30  C   UNL     1      -8.553   8.755  67.840  1.00  0.00    -0.130 C  
HETATM   31  H2  UNL     1      -9.057   7.559  66.194  1.00  0.00     0.000 HD 
HETATM   32  N   UNL     1      -8.434   7.531  67.001  1.00  0.00    -0.120 NA 
HETATM   33  H1  UNL     1      -7.461   7.390  66.729  1.00  0.00     0.000 HD 
BRANCH  30  34
HETATM   34  C   UNL     1      -7.906   9.893  67.018  1.00  0.00    -0.102 C  
BRANCH  34  35
HETATM   35  C   UNL     1      -8.794  10.950  66.389  1.00  0.00    -0.178 A  
HETATM   36  C   UNL     1      -9.354   9.331  64.461  1.00  0.00     0.042 C  
HETATM   37  C   UNL     1      -9.745  13.200  66.303  1.00  0.00    -0.269 A  
HETATM   38  C   UNL     1      -8.076  12.794  68.069  1.00  0.00    -0.162 C  
HETATM   39  C   UNL     1      -9.484  10.650  65.184  1.00  0.00    -0.276 A  
HETATM   40  C   UNL     1      -8.879  12.267  66.906  1.00  0.00    -0.207 A  
HETATM   41  C   UNL     1     -10.487  12.875  65.172  1.00  0.00    -0.326 A  
HETATM   42  C   UNL     1     -10.335  11.606  64.609  1.00  0.00    -0.341 A  
BRANCH  41  43
HETATM   43  C   UNL     1     -11.412  13.825  64.494  1.00  0.00    -0.384 C  
HETATM   44  H2  UNL     1     -11.789  12.550  62.895  1.00  0.00     0.000 HD 
HETATM   45  H1  UNL     1     -12.622  14.112  62.844  1.00  0.00     0.000 HD 
HETATM   46  N   UNL     1     -11.989  13.461  63.309  1.00  0.00    -0.385 N  
HETATM   47  O   UNL     1     -11.666  14.926  64.972  1.00  0.00    -0.363 OA 
ENDBRANCH  41  43
ENDBRANCH  34  35
ENDBRANCH  30  34
ENDBRANCH  15  30
ENDBRANCH  12  13
ENDBRANCH   6  12
ENDBRANCH   2   3
TORSDOF 10
ENDMDL
MODEL      126
REMARK 921   NORMALIZED FREE ENERGY PREDICTED BY IDOCK:   -4.46 KCAL/MOL
REMARK 922        TOTAL FREE ENERGY PREDICTED BY IDOCK:   -9.93 KCAL/MOL
REMARK 923 INTER-LIGAND FREE ENERGY PREDICTED BY IDOCK:   -8.52 KCAL/MOL
REMARK 924 INTRA-LIGAND FREE ENERGY PREDICTED BY IDOCK:   -1.41 KCAL/MOL
REMARK 927      BINDING AFFINITY PREDICTED BY RF-SCORE:    0.00 PKD
ROOT
HETATM    1  C   UNL     1     -12.154  12.031  63.467  1.00  0.00    -0.526 C  
HETATM    2  O   UNL     1     -10.937  12.630  63.916  1.00  0.00    -0.368 OA 
ENDROOT
BRANCH   2   3
HETATM    3  C   UNL     1     -10.481  12.258  65.155  1.00  0.00    -0.288 A  
HETATM    4  C   UNL     1      -9.975  10.988  65.448  1.00  0.00    -0.313 A  
HETATM    5  C   UNL     1      -9.434  10.705  66.706  1.00  0.00    -0.189 A  
HETATM    6  C   UNL     1      -9.413  11.667  67.720  1.00  0.00    -0.178 A  
HETATM    7  C   UNL     1      -9.977  12.923  67.446  1.00  0.00    -0.217 A  
HETATM    8  C   UNL     1     -11.056  14.598  65.999  1.00  0.00    -0.332 C  
HETATM    9  O   UNL     1     -10.953  15.096  64.750  1.00  0.00    -0.399 OA 
HETATM   10  C   UNL     1     -10.497  13.228  66.173  1.00  0.00    -0.296 A  
HETATM   11  O   UNL     1     -11.506  15.242  66.934  1.00  0.00    -0.271 OA 
BRANCH   6  12
HETATM   12  C   UNL     1      -8.775  11.403  69.069  1.00  0.00     0.091 C  
BRANCH  12  13
HETATM   13  N   UNL     1      -7.432  10.796  69.039  1.00  0.00    -0.108 N  
HETATM   14  O   UNL     1      -5.969   9.136  69.719  1.00  0.00    -0.035 OA 
HETATM   15  C   UNL     1      -7.135   9.543  69.627  1.00  0.00    -0.072 C  
BRANCH  13  16
HETATM   16  C   UNL     1      -6.293  11.676  68.666  1.00  0.00    -0.055 C  
HETATM   17  C   UNL     1      -6.139  11.897  67.150  1.00  0.00    -0.152 C  
BRANCH  16  18
HETATM   18  C   UNL     1      -6.410  13.036  69.322  1.00  0.00    -0.107 A  
HETATM   19  C   UNL     1      -5.768  14.740  70.595  1.00  0.00    -0.155 A  
HETATM   20  C   UNL     1      -6.579  15.178  69.570  1.00  0.00    -0.163 A  
HETATM   21  N   UNL     1      -7.004  14.104  68.823  1.00  0.00    -0.099 NA 
HETATM   22  H   UNL     1      -7.653  14.128  68.036  1.00  0.00     0.000 HD 
HETATM   23  N   UNL     1      -5.695  13.377  70.446  1.00  0.00    -0.151 NA 
BRANCH  20  24
HETATM   24  C   UNL     1      -6.889  16.555  69.207  1.00  0.00    -0.224 A  
HETATM   25  C   UNL     1      -6.322  18.924  69.374  1.00  0.00    -0.299 A  
HETATM   26  C   UNL     1      -7.480  19.263  68.681  1.00  0.00    -0.380 A  
HETATM   27  C   UNL     1      -8.337  18.256  68.235  1.00  0.00    -0.316 A  
HETATM   28  C   UNL     1      -6.030  17.582  69.632  1.00  0.00    -0.252 A  
HETATM   29  C   UNL     1      -8.041  16.909  68.491  1.00  0.00    -0.244 A  
ENDBRANCH  20  24
ENDBRANCH  16  18
ENDBRANCH  13  16
BRANCH  15  30
HETATM   30  C   UNL     1      -8.339   8.661  70.130  1.00  0.00    -0.126 C  
HETATM   31  H2  UNL     1      -9.477  10.323  70.711  1.00  0.00     0.000 HD 
HETATM   32  N   UNL     1      -9.163   9.433  71.099  1.00  0.00    -0.293 NA 
HETATM   33  H1  UNL     1      -9.943   8.862  71.425  1.00  0.00     0.000 HD 
BRANCH  30  34
HETATM   34  C   UNL     1      -9.319   8.168  69.042  1.00  0.00    -0.147 C  
BRANCH  34  35
HETATM   35  C   UNL     1      -9.224   6.736  68.553  1.00  0.00    -0.128 A  
HETATM   36  C   UNL     1     -10.823   5.987  70.433  1.00  0.00    -0.386 C  
HETATM   37  C   UNL     1      -8.316   5.015  67.073  1.00  0.00    -0.107 A  
HETATM   38  C   UNL     1      -7.363   7.273  66.824  1.00  0.00    -0.088 C  
HETATM   39  C   UNL     1      -9.963   5.722  69.220  1.00  0.00    -0.238 A  
HETATM   40  C   UNL     1      -8.340   6.353  67.513  1.00  0.00    -0.117 A  
HETATM   41  C   UNL     1      -9.107   4.040  67.673  1.00  0.00    -0.172 A  
HETATM   42  C   UNL     1      -9.911   4.399  68.757  1.00  0.00    -0.149 A  
BRANCH  41  43
HETATM   43  C   UNL     1      -9.114   2.612  67.251  1.00  0.00    -0.164 C  
HETATM   44  H2  UNL     1      -9.459   1.890  69.171  1.00  0.00     0.000 HD 
HETATM   45  H1  UNL     1      -9.321   0.662  67.902  1.00  0.00     0.000 HD 
HETATM   46  N   UNL     1      -9.316   1.640  68.192  1.00  0.00    -0.180 N  
HETATM   47  O   UNL     1      -8.943   2.287  66.080  1.00  0.00    -0.127 OA 
ENDBRANCH  41  43
ENDBRANCH  34  35
ENDBRANCH  30  34
ENDBRANCH  15  30
ENDBRANCH  12  13
ENDBRANCH   6  12
ENDBRANCH   2   3
TORSDOF 10
ENDMDL
MODEL      127
REMARK 921   NORMALIZED FREE ENERGY PREDICTED BY IDOCK:   -4.44 KCAL/MOL
REMARK 922        TOTAL FREE ENERGY PREDICTED BY IDOCK:   -9.91 KCAL/MOL
REMARK 923 INTER-LIGAND FREE ENERGY PREDICTED BY IDOCK:   -9.20 KCAL/MOL
REMARK 924 INTRA-LIGAND FREE ENERGY PREDICTED BY IDOCK:   -0.71 KCAL/MOL
REMARK 927      BINDING AFFINITY PREDICTED BY RF-SCORE:    0.00 PKD
ROOT
HETATM    1  C   UNL     1     -13.110  14.638  72.730  1.00  0.00    -0.486 C  
HETATM    2  O   UNL     1     -13.514  13.902  71.575  1.00  0.00    -0.342 OA 
ENDROOT
BRANCH   2   3
HETATM    3  C   UNL     1     -12.576  13.728  70.588  1.00  0.00    -0.315 A  
HETATM    4  C   UNL     1     -11.984  14.781  69.885  1.00  0.00    -0.378 A  
HETATM    5  C   UNL     1     -10.962  14.541  68.962  1.00  0.00    -0.272 A  
HETATM    6  C   UNL     1     -10.525  13.242  68.684  1.00  0.00    -0.242 A  
HETATM    7  C   UNL     1     -11.162  12.179  69.344  1.00  0.00    -0.248 A  
HETATM    8  C   UNL     1     -12.763  11.207  70.943  1.00  0.00    -0.344 C  
HETATM    9  O   UNL     1     -13.198  11.396  72.205  1.00  0.00    -0.490 OA 
HETATM   10  C   UNL     1     -12.171  12.413  70.299  1.00  0.00    -0.345 A  
HETATM   11  O   UNL     1     -12.785  10.117  70.391  1.00  0.00    -0.238 OA 
BRANCH   6  12
HETATM   12  C   UNL     1      -9.377  12.962  67.735  1.00  0.00    -0.203 C  
BRANCH  12  13
HETATM   13  N   UNL     1      -8.114  12.532  68.360  1.00  0.00    -0.152 N  
HETATM   14  O   UNL     1      -6.747  10.841  69.155  1.00  0.00    -0.059 OA 
HETATM   15  C   UNL     1      -7.736  11.174  68.488  1.00  0.00    -0.129 C  
BRANCH  13  16
HETATM   16  C   UNL     1      -7.375  13.537  69.169  1.00  0.00     0.074 C  
HETATM   17  C   UNL     1      -5.942  13.115  69.541  1.00  0.00    -0.108 C  
BRANCH  16  18
HETATM   18  C   UNL     1      -7.293  14.869  68.451  1.00  0.00    -0.114 A  
HETATM   19  C   UNL     1      -6.998  16.230  66.720  1.00  0.00    -0.130 A  
HETATM   20  C   UNL     1      -7.860  16.791  67.637  1.00  0.00    -0.175 A  
HETATM   21  N   UNL     1      -7.992  15.955  68.723  1.00  0.00    -0.174 NA 
HETATM   22  H   UNL     1      -8.526  16.139  69.572  1.00  0.00     0.000 HD 
HETATM   23  N   UNL     1      -6.620  15.026  67.262  1.00  0.00    -0.285 NA 
BRANCH  20  24
HETATM   24  C   UNL     1      -8.633  18.018  67.496  1.00  0.00    -0.244 A  
HETATM   25  C   UNL     1      -8.652  20.454  67.339  1.00  0.00    -0.403 A  
HETATM   26  C   UNL     1     -10.043  20.458  67.368  1.00  0.00    -0.500 A  
HETATM   27  C   UNL     1     -10.735  19.249  67.444  1.00  0.00    -0.594 A  
HETATM   28  C   UNL     1      -7.955  19.244  67.401  1.00  0.00    -0.292 A  
HETATM   29  C   UNL     1     -10.035  18.035  67.502  1.00  0.00    -0.330 A  
ENDBRANCH  20  24
ENDBRANCH  16  18
ENDBRANCH  13  16
BRANCH  15  30
HETATM   30  C   UNL     1      -8.593  10.096  67.724  1.00  0.00    -0.118 C  
HETATM   31  H2  UNL     1      -7.035   9.603  66.411  1.00  0.00     0.000 HD 
HETATM   32  N   UNL     1      -8.022   9.858  66.370  1.00  0.00    -0.109 NA 
HETATM   33  H1  UNL     1      -8.578   9.160  65.876  1.00  0.00     0.000 HD 
BRANCH  30  34
HETATM   34  C   UNL     1      -8.685   8.706  68.392  1.00  0.00    -0.142 C  
BRANCH  34  35
HETATM   35  C   UNL     1      -8.459   7.463  67.551  1.00  0.00    -0.116 A  
HETATM   36  C   UNL     1     -11.005   7.225  67.217  1.00  0.00    -0.284 C  
HETATM   37  C   UNL     1      -7.014   5.753  66.570  1.00  0.00    -0.064 A  
HETATM   38  C   UNL     1      -5.915   7.376  68.062  1.00  0.00    -0.035 C  
HETATM   39  C   UNL     1      -9.577   6.790  66.990  1.00  0.00    -0.188 A  
HETATM   40  C   UNL     1      -7.173   6.888  67.390  1.00  0.00    -0.090 A  
HETATM   41  C   UNL     1      -8.103   5.147  65.951  1.00  0.00    -0.109 A  
HETATM   42  C   UNL     1      -9.381   5.660  66.183  1.00  0.00    -0.167 A  
BRANCH  41  43
HETATM   43  C   UNL     1      -7.989   3.944  65.080  1.00  0.00    -0.093 C  
HETATM   44  H2  UNL     1      -9.317   2.814  66.213  1.00  0.00     0.000 HD 
HETATM   45  H1  UNL     1      -8.631   2.001  64.797  1.00  0.00     0.000 HD 
HETATM   46  N   UNL     1      -8.709   2.825  65.394  1.00  0.00    -0.116 N  
HETATM   47  O   UNL     1      -7.264   3.934  64.090  1.00  0.00    -0.050 OA 
ENDBRANCH  41  43
ENDBRANCH  34  35
ENDBRANCH  30  34
ENDBRANCH  15  30
ENDBRANCH  12  13
ENDBRANCH   6  12
ENDBRANCH   2   3
TORSDOF 10
ENDMDL
MODEL      128
REMARK 921   NORMALIZED FREE ENERGY PREDICTED BY IDOCK:   -4.44 KCAL/MOL
REMARK 922        TOTAL FREE ENERGY PREDICTED BY IDOCK:   -9.90 KCAL/MOL
REMARK 923 INTER-LIGAND FREE ENERGY PREDICTED BY IDOCK:  -10.28 KCAL/MOL
REMARK 924 INTRA-LIGAND FREE ENERGY PREDICTED BY IDOCK:    0.38 KCAL/MOL
REMARK 927      BINDING AFFINITY PREDICTED BY RF-SCORE:    0.00 PKD
ROOT
HETATM    1  C   UNL     1      -5.174   9.612  69.000  1.00  0.00    -0.036 C  
HETATM    2  O   UNL     1      -5.625  10.261  67.810  1.00  0.00    -0.041 OA 
ENDROOT
BRANCH   2   3
HETATM    3  C   UNL     1      -6.856  10.864  67.859  1.00  0.00    -0.068 A  
HETATM    4  C   UNL     1      -7.132  12.009  68.611  1.00  0.00    -0.103 A  
HETATM    5  C   UNL     1      -8.382  12.631  68.538  1.00  0.00    -0.060 A  
HETATM    6  C   UNL     1      -9.406  12.110  67.742  1.00  0.00    -0.193 A  
HETATM    7  C   UNL     1      -9.150  10.925  67.034  1.00  0.00    -0.158 A  
HETATM    8  C   UNL     1      -7.729   9.063  66.274  1.00  0.00    -0.095 C  
HETATM    9  O   UNL     1      -6.485   8.847  65.802  1.00  0.00    -0.059 OA 
HETATM   10  C   UNL     1      -7.885  10.308  67.077  1.00  0.00    -0.107 A  
HETATM   11  O   UNL     1      -8.674   8.336  66.008  1.00  0.00    -0.138 OA 
BRANCH   6  12
HETATM   12  C   UNL     1     -10.747  12.802  67.598  1.00  0.00    -0.219 C  
BRANCH  12  13
HETATM   13  N   UNL     1     -11.266  13.460  68.811  1.00  0.00    -0.261 N  
HETATM   14  O   UNL     1     -12.518  13.374  70.756  1.00  0.00    -0.354 OA 
HETATM   15  C   UNL     1     -11.963  12.768  69.830  1.00  0.00    -0.298 C  
BRANCH  13  16
HETATM   16  C   UNL     1     -11.343  14.944  68.802  1.00  0.00    -0.287 C  
HETATM   17  C   UNL     1     -10.853  15.607  70.103  1.00  0.00    -0.356 C  
BRANCH  16  18
HETATM   18  C   UNL     1     -10.544  15.531  67.656  1.00  0.00    -0.291 A  
HETATM   19  C   UNL     1     -10.233  16.467  65.666  1.00  0.00    -0.292 A  
HETATM   20  C   UNL     1      -9.229  16.834  66.537  1.00  0.00    -0.268 A  
HETATM   21  N   UNL     1      -9.414  16.207  67.748  1.00  0.00    -0.216 NA 
HETATM   22  H   UNL     1      -8.797  16.255  68.559  1.00  0.00     0.000 HD 
HETATM   23  N   UNL     1     -11.041  15.615  66.377  1.00  0.00    -0.197 NA 
BRANCH  20  24
HETATM   24  C   UNL     1      -8.174  17.814  66.315  1.00  0.00    -0.252 A  
HETATM   25  C   UNL     1      -5.798  18.267  65.987  1.00  0.00    -0.231 A  
HETATM   26  C   UNL     1      -6.040  19.637  66.026  1.00  0.00    -0.191 A  
HETATM   27  C   UNL     1      -7.346  20.101  66.192  1.00  0.00    -0.312 A  
HETATM   28  C   UNL     1      -6.856  17.366  66.129  1.00  0.00    -0.278 A  
HETATM   29  C   UNL     1      -8.408  19.196  66.330  1.00  0.00    -0.326 A  
ENDBRANCH  20  24
ENDBRANCH  16  18
ENDBRANCH  13  16
BRANCH  15  30
HETATM   30  C   UNL     1     -11.981  11.194  69.772  1.00  0.00    -0.357 C  
HETATM   31  H2  UNL     1     -11.593  11.140  67.713  1.00  0.00     0.000 HD 
HETATM   32  N   UNL     1     -12.252  10.740  68.381  1.00  0.00    -0.809 NA 
HETATM   33  H1  UNL     1     -12.264   9.721  68.344  1.00  0.00     0.000 HD 
BRANCH  30  34
HETATM   34  C   UNL     1     -10.676  10.485  70.199  1.00  0.00    -0.232 C  
BRANCH  34  35
HETATM   35  C   UNL     1     -10.759   9.223  71.038  1.00  0.00    -0.387 A  
HETATM   36  C   UNL     1      -8.664   8.298  69.851  1.00  0.00    -0.134 C  
HETATM   37  C   UNL     1     -11.851   7.801  72.699  1.00  0.00    -0.317 A  
HETATM   38  C   UNL     1     -13.046   9.866  72.084  1.00  0.00    -0.497 C  
HETATM   39  C   UNL     1      -9.780   8.209  70.865  1.00  0.00    -0.191 A  
HETATM   40  C   UNL     1     -11.841   8.975  71.918  1.00  0.00    -0.447 A  
HETATM   41  C   UNL     1     -10.843   6.849  72.589  1.00  0.00    -0.290 A  
HETATM   42  C   UNL     1      -9.824   7.051  71.657  1.00  0.00    -0.169 A  
BRANCH  41  43
HETATM   43  C   UNL     1     -10.810   5.591  73.387  1.00  0.00    -0.288 C  
HETATM   44  H2  UNL     1      -9.620   6.399  74.889  1.00  0.00     0.000 HD 
HETATM   45  H1  UNL     1     -10.088   4.705  75.108  1.00  0.00     0.000 HD 
HETATM   46  N   UNL     1     -10.111   5.566  74.562  1.00  0.00    -0.253 N  
HETATM   47  O   UNL     1     -11.392   4.578  73.013  1.00  0.00    -0.220 OA 
ENDBRANCH  41  43
ENDBRANCH  34  35
ENDBRANCH  30  34
ENDBRANCH  15  30
ENDBRANCH  12  13
ENDBRANCH   6  12
ENDBRANCH   2   3
TORSDOF 10
ENDMDL
MODEL      129
REMARK 921   NORMALIZED FREE ENERGY PREDICTED BY IDOCK:   -4.43 KCAL/MOL
REMARK 922        TOTAL FREE ENERGY PREDICTED BY IDOCK:   -9.89 KCAL/MOL
REMARK 923 INTER-LIGAND FREE ENERGY PREDICTED BY IDOCK:   -9.69 KCAL/MOL
REMARK 924 INTRA-LIGAND FREE ENERGY PREDICTED BY IDOCK:   -0.20 KCAL/MOL
REMARK 927      BINDING AFFINITY PREDICTED BY RF-SCORE:    0.00 PKD
ROOT
HETATM    1  C   UNL     1      -9.213   2.761  69.101  1.00  0.00    -0.148 C  
HETATM    2  O   UNL     1      -9.447   3.107  67.735  1.00  0.00    -0.204 OA 
ENDROOT
BRANCH   2   3
HETATM    3  C   UNL     1      -9.637   4.437  67.454  1.00  0.00    -0.181 A  
HETATM    4  C   UNL     1     -10.619   5.227  68.059  1.00  0.00    -0.088 A  
HETATM    5  C   UNL     1     -10.694   6.599  67.802  1.00  0.00    -0.352 A  
HETATM    6  C   UNL     1      -9.817   7.218  66.906  1.00  0.00    -0.279 A  
HETATM    7  C   UNL     1      -8.871   6.414  66.251  1.00  0.00    -0.152 A  
HETATM    8  C   UNL     1      -7.716   4.291  65.779  1.00  0.00    -0.090 C  
HETATM    9  O   UNL     1      -7.194   3.237  66.438  1.00  0.00    -0.064 OA 
HETATM   10  C   UNL     1      -8.767   5.037  66.526  1.00  0.00    -0.109 A  
HETATM   11  O   UNL     1      -7.313   4.654  64.684  1.00  0.00    -0.068 OA 
BRANCH   6  12
HETATM   12  C   UNL     1      -9.839   8.713  66.659  1.00  0.00    -0.266 C  
BRANCH  12  13
HETATM   13  N   UNL     1      -8.920   9.516  67.486  1.00  0.00    -0.125 N  
HETATM   14  O   UNL     1      -7.902  11.541  67.958  1.00  0.00    -0.113 OA 
HETATM   15  C   UNL     1      -8.791  10.921  67.361  1.00  0.00    -0.133 C  
BRANCH  13  16
HETATM   16  C   UNL     1      -7.868   8.787  68.241  1.00  0.00    -0.101 C  
HETATM   17  C   UNL     1      -6.511   9.514  68.292  1.00  0.00    -0.053 C  
BRANCH  16  18
HETATM   18  C   UNL     1      -8.300   8.518  69.668  1.00  0.00    -0.121 A  
HETATM   19  C   UNL     1      -9.448   8.851  71.541  1.00  0.00    -0.277 A  
HETATM   20  C   UNL     1      -9.125   7.518  71.400  1.00  0.00    -0.137 A  
HETATM   21  N   UNL     1      -8.374   7.340  70.260  1.00  0.00    -0.133 NA 
HETATM   22  H   UNL     1      -7.957   6.468  69.936  1.00  0.00     0.000 HD 
HETATM   23  N   UNL     1      -8.892   9.479  70.454  1.00  0.00    -0.243 NA 
BRANCH  20  24
HETATM   24  C   UNL     1      -9.569   6.403  72.227  1.00  0.00    -0.155 A  
HETATM   25  C   UNL     1     -11.422   5.087  73.117  1.00  0.00    -0.362 A  
HETATM   26  C   UNL     1     -10.541   4.359  73.910  1.00  0.00    -0.326 A  
HETATM   27  C   UNL     1      -9.174   4.635  73.855  1.00  0.00    -0.110 A  
HETATM   28  C   UNL     1     -10.939   6.098  72.282  1.00  0.00    -0.302 A  
HETATM   29  C   UNL     1      -8.689   5.647  73.014  1.00  0.00    -0.121 A  
ENDBRANCH  20  24
ENDBRANCH  16  18
ENDBRANCH  13  16
BRANCH  15  30
HETATM   30  C   UNL     1      -9.839  11.679  66.462  1.00  0.00    -0.204 C  
HETATM   31  H2  UNL     1     -10.124  10.038  65.189  1.00  0.00     0.000 HD 
HETATM   32  N   UNL     1      -9.920  11.035  65.122  1.00  0.00    -0.259 NA 
HETATM   33  H1  UNL     1     -10.599  11.526  64.541  1.00  0.00     0.000 HD 
BRANCH  30  34
HETATM   34  C   UNL     1     -11.288  11.720  66.997  1.00  0.00    -0.387 C  
BRANCH  34  35
HETATM   35  C   UNL     1     -11.601  12.554  68.225  1.00  0.00    -0.376 A  
HETATM   36  C   UNL     1     -12.074  10.403  69.567  1.00  0.00    -0.125 C  
HETATM   37  C   UNL     1     -11.916  14.698  69.357  1.00  0.00    -0.351 A  
HETATM   38  C   UNL     1     -11.480  14.804  66.934  1.00  0.00    -0.354 C  
HETATM   39  C   UNL     1     -11.953  11.902  69.437  1.00  0.00    -0.350 A  
HETATM   40  C   UNL     1     -11.654  13.970  68.179  1.00  0.00    -0.369 A  
HETATM   41  C   UNL     1     -12.176  14.056  70.563  1.00  0.00    -0.435 A  
HETATM   42  C   UNL     1     -12.212  12.660  70.590  1.00  0.00    -0.373 A  
BRANCH  41  43
HETATM   43  C   UNL     1     -12.463  14.778  71.834  1.00  0.00    -0.340 C  
HETATM   44  H2  UNL     1     -13.783  13.330  72.533  1.00  0.00     0.000 HD 
HETATM   45  H1  UNL     1     -13.532  14.720  73.601  1.00  0.00     0.000 HD 
HETATM   46  N   UNL     1     -13.335  14.226  72.731  1.00  0.00    -0.524 N  
HETATM   47  O   UNL     1     -11.937  15.856  72.094  1.00  0.00    -0.424 OA 
ENDBRANCH  41  43
ENDBRANCH  34  35
ENDBRANCH  30  34
ENDBRANCH  15  30
ENDBRANCH  12  13
ENDBRANCH   6  12
ENDBRANCH   2   3
TORSDOF 10
ENDMDL
MODEL      130
REMARK 921   NORMALIZED FREE ENERGY PREDICTED BY IDOCK:   -4.41 KCAL/MOL
REMARK 922        TOTAL FREE ENERGY PREDICTED BY IDOCK:   -9.86 KCAL/MOL
REMARK 923 INTER-LIGAND FREE ENERGY PREDICTED BY IDOCK:   -8.24 KCAL/MOL
REMARK 924 INTRA-LIGAND FREE ENERGY PREDICTED BY IDOCK:   -1.62 KCAL/MOL
REMARK 927      BINDING AFFINITY PREDICTED BY RF-SCORE:    0.00 PKD
ROOT
HETATM    1  C   UNL     1      -5.932   5.658  68.912  1.00  0.00    -0.024 C  
HETATM    2  O   UNL     1      -6.041   6.977  69.449  1.00  0.00    -0.031 OA 
ENDROOT
BRANCH   2   3
HETATM    3  C   UNL     1      -6.293   7.992  68.560  1.00  0.00    -0.053 A  
HETATM    4  C   UNL     1      -5.558   8.201  67.390  1.00  0.00    -0.038 A  
HETATM    5  C   UNL     1      -5.930   9.193  66.477  1.00  0.00    -0.059 A  
HETATM    6  C   UNL     1      -7.023  10.029  66.721  1.00  0.00    -0.089 A  
HETATM    7  C   UNL     1      -7.725   9.860  67.925  1.00  0.00    -0.090 A  
HETATM    8  C   UNL     1      -8.203   8.755  70.072  1.00  0.00    -0.120 C  
HETATM    9  O   UNL     1      -8.320   7.513  70.585  1.00  0.00    -0.122 OA 
HETATM   10  C   UNL     1      -7.377   8.844  68.836  1.00  0.00    -0.075 A  
HETATM   11  O   UNL     1      -8.785   9.722  70.540  1.00  0.00    -0.171 OA 
BRANCH   6  12
HETATM   12  C   UNL     1      -7.483  11.068  65.717  1.00  0.00     0.073 C  
BRANCH  12  13
HETATM   13  N   UNL     1      -8.877  10.943  65.253  1.00  0.00    -0.190 N  
HETATM   14  O   UNL     1     -11.090  11.614  65.357  1.00  0.00    -0.294 OA 
HETATM   15  C   UNL     1      -9.905  11.837  65.638  1.00  0.00    -0.237 C  
BRANCH  13  16
HETATM   16  C   UNL     1      -9.276   9.654  64.628  1.00  0.00    -0.234 C  
HETATM   17  C   UNL     1      -8.321   9.170  63.521  1.00  0.00    -0.188 C  
BRANCH  16  18
HETATM   18  C   UNL     1      -9.383   8.551  65.661  1.00  0.00    -0.052 A  
HETATM   19  C   UNL     1     -10.393   7.273  67.171  1.00  0.00    -0.297 A  
HETATM   20  C   UNL     1      -9.369   6.583  66.559  1.00  0.00    -0.159 A  
HETATM   21  N   UNL     1      -8.726   7.406  65.662  1.00  0.00    -0.299 NA 
HETATM   22  H   UNL     1      -7.902   7.176  65.106  1.00  0.00     0.000 HD 
HETATM   23  N   UNL     1     -10.371   8.529  66.617  1.00  0.00    -0.284 NA 
BRANCH  20  24
HETATM   24  C   UNL     1      -9.034   5.172  66.705  1.00  0.00    -0.115 A  
HETATM   25  C   UNL     1      -9.316   3.089  67.946  1.00  0.00    -0.255 A  
HETATM   26  C   UNL     1      -8.345   2.475  67.161  1.00  0.00    -0.090 A  
HETATM   27  C   UNL     1      -7.728   3.196  66.138  1.00  0.00    -0.078 A  
HETATM   28  C   UNL     1      -9.658   4.425  67.717  1.00  0.00    -0.211 A  
HETATM   29  C   UNL     1      -8.073   4.535  65.906  1.00  0.00    -0.102 A  
ENDBRANCH  20  24
ENDBRANCH  16  18
ENDBRANCH  13  16
BRANCH  15  30
HETATM   30  C   UNL     1      -9.491  13.148  66.406  1.00  0.00    -0.220 C  
HETATM   31  H2  UNL     1     -11.466  13.835  66.554  1.00  0.00     0.000 HD 
HETATM   32  N   UNL     1     -10.553  14.180  66.258  1.00  0.00    -0.281 NA 
HETATM   33  H1  UNL     1     -10.285  15.029  66.756  1.00  0.00     0.000 HD 
BRANCH  30  34
HETATM   34  C   UNL     1      -9.260  12.998  67.926  1.00  0.00    -0.208 C  
BRANCH  34  35
HETATM   35  C   UNL     1     -10.319  13.498  68.890  1.00  0.00    -0.109 A  
HETATM   36  C   UNL     1     -11.505  11.211  68.774  1.00  0.00    -0.366 C  
HETATM   37  C   UNL     1     -11.347  15.250  70.251  1.00  0.00    -0.318 A  
HETATM   38  C   UNL     1      -9.435  15.939  68.859  1.00  0.00    -0.234 C  
HETATM   39  C   UNL     1     -11.364  12.623  69.291  1.00  0.00    -0.306 A  
HETATM   40  C   UNL     1     -10.362  14.846  69.328  1.00  0.00    -0.240 A  
HETATM   41  C   UNL     1     -12.318  14.366  70.708  1.00  0.00    -0.417 A  
HETATM   42  C   UNL     1     -12.331  13.062  70.208  1.00  0.00    -0.311 A  
BRANCH  41  43
HETATM   43  C   UNL     1     -13.384  14.743  71.678  1.00  0.00    -0.360 C  
HETATM   44  H2  UNL     1     -13.264  12.956  72.734  1.00  0.00     0.000 HD 
HETATM   45  H1  UNL     1     -14.460  14.120  73.327  1.00  0.00     0.000 HD 
HETATM   46  N   UNL     1     -13.730  13.861  72.664  1.00  0.00    -0.532 N  
HETATM   47  O   UNL     1     -13.958  15.826  71.612  1.00  0.00    -0.456 OA 
ENDBRANCH  41  43
ENDBRANCH  34  35
ENDBRANCH  30  34
ENDBRANCH  15  30
ENDBRANCH  12  13
ENDBRANCH   6  12
ENDBRANCH   2   3
TORSDOF 10
ENDMDL
MODEL      131
REMARK 921   NORMALIZED FREE ENERGY PREDICTED BY IDOCK:   -4.40 KCAL/MOL
REMARK 922        TOTAL FREE ENERGY PREDICTED BY IDOCK:   -9.84 KCAL/MOL
REMARK 923 INTER-LIGAND FREE ENERGY PREDICTED BY IDOCK:   -9.22 KCAL/MOL
REMARK 924 INTRA-LIGAND FREE ENERGY PREDICTED BY IDOCK:   -0.62 KCAL/MOL
REMARK 927      BINDING AFFINITY PREDICTED BY RF-SCORE:    0.00 PKD
ROOT
HETATM    1  C   UNL     1     -12.809  12.327  63.370  1.00  0.00    -0.222 C  
HETATM    2  O   UNL     1     -11.904  12.799  64.369  1.00  0.00    -0.342 OA 
ENDROOT
BRANCH   2   3
HETATM    3  C   UNL     1     -11.134  11.859  65.005  1.00  0.00    -0.305 A  
HETATM    4  C   UNL     1     -10.429  10.852  64.340  1.00  0.00    -0.403 A  
HETATM    5  C   UNL     1      -9.583   9.987  65.040  1.00  0.00    -0.362 A  
HETATM    6  C   UNL     1      -9.442  10.075  66.428  1.00  0.00    -0.235 A  
HETATM    7  C   UNL     1     -10.197  11.047  67.105  1.00  0.00    -0.243 A  
HETATM    8  C   UNL     1     -11.770  12.937  67.231  1.00  0.00    -0.373 C  
HETATM    9  O   UNL     1     -12.016  14.111  66.615  1.00  0.00    -0.408 OA 
HETATM   10  C   UNL     1     -11.029  11.942  66.405  1.00  0.00    -0.337 A  
HETATM   11  O   UNL     1     -12.065  12.726  68.397  1.00  0.00    -0.276 OA 
BRANCH   6  12
HETATM   12  C   UNL     1      -8.484   9.190  67.200  1.00  0.00    -0.120 C  
BRANCH  12  13
HETATM   13  N   UNL     1      -7.558   9.886  68.112  1.00  0.00    -0.081 N  
HETATM   14  O   UNL     1      -7.114  10.826  70.181  1.00  0.00    -0.173 OA 
HETATM   15  C   UNL     1      -7.839  10.106  69.483  1.00  0.00    -0.162 C  
BRANCH  13  16
HETATM   16  C   UNL     1      -6.448  10.660  67.499  1.00  0.00    -0.058 C  
HETATM   17  C   UNL     1      -6.292  10.444  65.982  1.00  0.00    -0.111 C  
BRANCH  16  18
HETATM   18  C   UNL     1      -6.615  12.147  67.738  1.00  0.00    -0.100 A  
HETATM   19  C   UNL     1      -6.086  14.300  67.596  1.00  0.00    -0.053 A  
HETATM   20  C   UNL     1      -7.451  14.142  67.705  1.00  0.00    -0.178 A  
HETATM   21  N   UNL     1      -7.754  12.806  67.840  1.00  0.00    -0.129 NA 
HETATM   22  H   UNL     1      -8.679  12.403  67.989  1.00  0.00     0.000 HD 
HETATM   23  N   UNL     1      -5.565  13.031  67.651  1.00  0.00    -0.221 NA 
BRANCH  20  24
HETATM   24  C   UNL     1      -8.478  15.169  67.590  1.00  0.00    -0.171 A  
HETATM   25  C   UNL     1     -10.349  16.358  68.611  1.00  0.00    -0.273 A  
HETATM   26  C   UNL     1     -10.587  17.035  67.419  1.00  0.00    -0.289 A  
HETATM   27  C   UNL     1      -9.765  16.798  66.316  1.00  0.00    -0.318 A  
HETATM   28  C   UNL     1      -9.303  15.435  68.694  1.00  0.00    -0.202 A  
HETATM   29  C   UNL     1      -8.713  15.875  66.401  1.00  0.00    -0.362 A  
ENDBRANCH  20  24
ENDBRANCH  16  18
ENDBRANCH  13  16
BRANCH  15  30
HETATM   30  C   UNL     1      -9.089   9.375  70.104  1.00  0.00    -0.231 C  
HETATM   31  H2  UNL     1     -10.461  10.639  69.148  1.00  0.00     0.000 HD 
HETATM   32  N   UNL     1     -10.269  10.282  70.084  1.00  0.00    -0.424 NA 
HETATM   33  H1  UNL     1     -11.078   9.808  70.487  1.00  0.00     0.000 HD 
BRANCH  30  34
HETATM   34  C   UNL     1      -9.540   8.081  69.392  1.00  0.00    -0.160 C  
BRANCH  34  35
HETATM   35  C   UNL     1      -9.466   6.761  70.137  1.00  0.00    -0.159 A  
HETATM   36  C   UNL     1      -7.196   6.259  69.022  1.00  0.00    -0.083 C  
HETATM   37  C   UNL     1     -10.405   5.067  71.629  1.00  0.00    -0.262 A  
HETATM   38  C   UNL     1     -11.876   6.966  71.081  1.00  0.00    -0.395 C  
HETATM   39  C   UNL     1      -8.333   5.924  69.957  1.00  0.00    -0.122 A  
HETATM   40  C   UNL     1     -10.540   6.284  70.930  1.00  0.00    -0.293 A  
HETATM   41  C   UNL     1      -9.256   4.291  71.518  1.00  0.00    -0.190 A  
HETATM   42  C   UNL     1      -8.235   4.716  70.665  1.00  0.00    -0.083 A  
BRANCH  41  43
HETATM   43  C   UNL     1      -9.066   2.996  72.229  1.00  0.00    -0.096 C  
HETATM   44  H2  UNL     1     -10.849   2.181  71.535  1.00  0.00     0.000 HD 
HETATM   45  H1  UNL     1      -9.889   1.136  72.594  1.00  0.00     0.000 HD 
HETATM   46  N   UNL     1     -10.019   2.023  72.107  1.00  0.00    -0.147 N  
HETATM   47  O   UNL     1      -8.076   2.783  72.923  1.00  0.00    -0.064 OA 
ENDBRANCH  41  43
ENDBRANCH  34  35
ENDBRANCH  30  34
ENDBRANCH  15  30
ENDBRANCH  12  13
ENDBRANCH   6  12
ENDBRANCH   2   3
TORSDOF 10
ENDMDL
MODEL      132
REMARK 921   NORMALIZED FREE ENERGY PREDICTED BY IDOCK:   -4.37 KCAL/MOL
REMARK 922        TOTAL FREE ENERGY PREDICTED BY IDOCK:   -9.79 KCAL/MOL
REMARK 923 INTER-LIGAND FREE ENERGY PREDICTED BY IDOCK:   -9.87 KCAL/MOL
REMARK 924 INTRA-LIGAND FREE ENERGY PREDICTED BY IDOCK:    0.08 KCAL/MOL
REMARK 927      BINDING AFFINITY PREDICTED BY RF-SCORE:    0.00 PKD
ROOT
HETATM    1  C   UNL     1      -5.244  13.525  71.372  1.00  0.00    -0.184 C  
HETATM    2  O   UNL     1      -5.323  13.565  69.946  1.00  0.00    -0.084 OA 
ENDROOT
BRANCH   2   3
HETATM    3  C   UNL     1      -6.403  12.948  69.366  1.00  0.00    -0.109 A  
HETATM    4  C   UNL     1      -6.828  11.657  69.692  1.00  0.00    -0.006 A  
HETATM    5  C   UNL     1      -7.996  11.125  69.135  1.00  0.00    -0.046 A  
HETATM    6  C   UNL     1      -8.753  11.849  68.209  1.00  0.00    -0.170 A  
HETATM    7  C   UNL     1      -8.292  13.121  67.834  1.00  0.00    -0.170 A  
HETATM    8  C   UNL     1      -6.753  15.040  67.944  1.00  0.00    -0.156 C  
HETATM    9  O   UNL     1      -6.116  15.795  68.862  1.00  0.00    -0.109 OA 
HETATM   10  C   UNL     1      -7.135  13.678  68.412  1.00  0.00    -0.107 A  
HETATM   11  O   UNL     1      -7.058  15.459  66.839  1.00  0.00    -0.191 OA 
BRANCH   6  12
HETATM   12  C   UNL     1     -10.054  11.319  67.641  1.00  0.00    -0.179 C  
BRANCH  12  13
HETATM   13  N   UNL     1      -9.978  10.743  66.286  1.00  0.00    -0.215 N  
HETATM   14  O   UNL     1     -10.753  10.642  64.107  1.00  0.00    -0.187 OA 
HETATM   15  C   UNL     1     -10.721  11.242  65.189  1.00  0.00    -0.246 C  
BRANCH  13  16
HETATM   16  C   UNL     1      -9.353   9.401  66.148  1.00  0.00    -0.205 C  
HETATM   17  C   UNL     1      -7.817   9.409  66.247  1.00  0.00    -0.100 C  
BRANCH  16  18
HETATM   18  C   UNL     1      -9.878   8.439  67.194  1.00  0.00    -0.215 A  
HETATM   19  C   UNL     1     -10.835   6.581  67.948  1.00  0.00    -0.304 A  
HETATM   20  C   UNL     1      -9.934   7.071  68.869  1.00  0.00    -0.160 A  
HETATM   21  N   UNL     1      -9.388   8.246  68.404  1.00  0.00    -0.135 NA 
HETATM   22  H   UNL     1      -8.732   8.850  68.899  1.00  0.00     0.000 HD 
HETATM   23  N   UNL     1     -10.815   7.474  66.905  1.00  0.00    -0.263 NA 
BRANCH  20  24
HETATM   24  C   UNL     1      -9.495   6.440  70.106  1.00  0.00    -0.170 A  
HETATM   25  C   UNL     1     -10.065   5.616  72.333  1.00  0.00    -0.214 A  
HETATM   26  C   UNL     1      -8.723   5.353  72.593  1.00  0.00    -0.123 A  
HETATM   27  C   UNL     1      -7.766   5.615  71.611  1.00  0.00    -0.107 A  
HETATM   28  C   UNL     1     -10.445   6.152  71.100  1.00  0.00    -0.281 A  
HETATM   29  C   UNL     1      -8.149   6.150  70.373  1.00  0.00    -0.112 A  
ENDBRANCH  20  24
ENDBRANCH  16  18
ENDBRANCH  13  16
BRANCH  15  30
HETATM   30  C   UNL     1     -11.481  12.609  65.375  1.00  0.00    -0.338 C  
HETATM   31  H2  UNL     1     -13.370  11.738  65.120  1.00  0.00     0.000 HD 
HETATM   32  N   UNL     1     -12.834  12.526  64.760  1.00  0.00    -0.820 NA 
HETATM   33  H1  UNL     1     -13.325  13.411  64.881  1.00  0.00     0.000 HD 
BRANCH  30  34
HETATM   34  C   UNL     1     -11.710  13.063  66.834  1.00  0.00    -0.441 C  
BRANCH  34  35
HETATM   35  C   UNL     1     -11.305  14.467  67.245  1.00  0.00    -0.357 A  
HETATM   36  C   UNL     1     -10.476  14.930  64.847  1.00  0.00    -0.389 C  
HETATM   37  C   UNL     1     -11.022  16.232  68.913  1.00  0.00    -0.334 A  
HETATM   38  C   UNL     1     -11.788  14.050  69.762  1.00  0.00    -0.385 C  
HETATM   39  C   UNL     1     -10.739  15.338  66.277  1.00  0.00    -0.315 A  
HETATM   40  C   UNL     1     -11.378  14.907  68.591  1.00  0.00    -0.309 A  
HETATM   41  C   UNL     1     -10.548  17.111  67.944  1.00  0.00    -0.376 A  
HETATM   42  C   UNL     1     -10.391  16.650  66.635  1.00  0.00    -0.296 A  
BRANCH  41  43
HETATM   43  C   UNL     1     -10.153  18.518  68.232  1.00  0.00    -0.390 C  
HETATM   44  H2  UNL     1     -11.805  19.336  67.270  1.00  0.00     0.000 HD 
HETATM   45  H1  UNL     1     -10.680  20.500  67.988  1.00  0.00     0.000 HD 
HETATM   46  N   UNL     1     -10.951  19.537  67.790  1.00  0.00    -0.267 N  
HETATM   47  O   UNL     1      -9.129  18.783  68.855  1.00  0.00    -0.301 OA 
ENDBRANCH  41  43
ENDBRANCH  34  35
ENDBRANCH  30  34
ENDBRANCH  15  30
ENDBRANCH  12  13
ENDBRANCH   6  12
ENDBRANCH   2   3
TORSDOF 10
ENDMDL
MODEL      133
REMARK 921   NORMALIZED FREE ENERGY PREDICTED BY IDOCK:   -4.34 KCAL/MOL
REMARK 922        TOTAL FREE ENERGY PREDICTED BY IDOCK:   -9.75 KCAL/MOL
REMARK 923 INTER-LIGAND FREE ENERGY PREDICTED BY IDOCK:   -9.75 KCAL/MOL
REMARK 924 INTRA-LIGAND FREE ENERGY PREDICTED BY IDOCK:   -0.00 KCAL/MOL
REMARK 927      BINDING AFFINITY PREDICTED BY RF-SCORE:    0.00 PKD
ROOT
HETATM    1  C   UNL     1     -12.759  14.642  73.428  1.00  0.00    -0.408 C  
HETATM    2  O   UNL     1     -13.463  14.278  72.239  1.00  0.00    -0.377 OA 
ENDROOT
BRANCH   2   3
HETATM    3  C   UNL     1     -12.935  13.254  71.493  1.00  0.00    -0.337 A  
HETATM    4  C   UNL     1     -13.047  11.904  71.836  1.00  0.00    -0.474 A  
HETATM    5  C   UNL     1     -12.573  10.905  70.980  1.00  0.00    -0.517 A  
HETATM    6  C   UNL     1     -11.941  11.223  69.775  1.00  0.00    -0.431 A  
HETATM    7  C   UNL     1     -11.773  12.580  69.458  1.00  0.00    -0.375 A  
HETATM    8  C   UNL     1     -12.047  14.995  69.850  1.00  0.00    -0.334 C  
HETATM    9  O   UNL     1     -12.996  15.873  70.236  1.00  0.00    -0.317 OA 
HETATM   10  C   UNL     1     -12.274  13.593  70.299  1.00  0.00    -0.423 A  
HETATM   11  O   UNL     1     -11.110  15.306  69.131  1.00  0.00    -0.235 OA 
BRANCH   6  12
HETATM   12  C   UNL     1     -11.476  10.156  68.803  1.00  0.00    -0.047 C  
BRANCH  12  13
HETATM   13  N   UNL     1     -10.162  10.385  68.176  1.00  0.00    -0.155 N  
HETATM   14  O   UNL     1      -7.852  10.267  68.268  1.00  0.00    -0.097 OA 
HETATM   15  C   UNL     1      -8.946   9.925  68.736  1.00  0.00    -0.140 C  
BRANCH  13  16
HETATM   16  C   UNL     1     -10.087  11.407  67.099  1.00  0.00    -0.198 C  
HETATM   17  C   UNL     1      -9.006  12.480  67.323  1.00  0.00    -0.192 C  
BRANCH  16  18
HETATM   18  C   UNL     1      -9.831  10.768  65.750  1.00  0.00    -0.240 A  
HETATM   19  C   UNL     1      -9.657  10.694  63.536  1.00  0.00    -0.323 A  
HETATM   20  C   UNL     1      -8.817   9.770  64.119  1.00  0.00    -0.231 A  
HETATM   21  N   UNL     1      -8.974   9.798  65.487  1.00  0.00    -0.164 NA 
HETATM   22  H   UNL     1      -8.518   9.188  66.165  1.00  0.00     0.000 HD 
HETATM   23  N   UNL     1     -10.317  11.297  64.578  1.00  0.00    -0.299 NA 
BRANCH  20  24
HETATM   24  C   UNL     1      -7.813   8.942  63.464  1.00  0.00    -0.141 A  
HETATM   25  C   UNL     1      -7.109   6.722  62.734  1.00  0.00    -0.051 A  
HETATM   26  C   UNL     1      -5.874   7.229  62.340  1.00  0.00    -0.049 A  
HETATM   27  C   UNL     1      -5.609   8.591  62.488  1.00  0.00    -0.072 A  
HETATM   28  C   UNL     1      -8.069   7.572  63.289  1.00  0.00    -0.031 A  
HETATM   29  C   UNL     1      -6.574   9.445  63.042  1.00  0.00    -0.099 A  
ENDBRANCH  20  24
ENDBRANCH  16  18
ENDBRANCH  13  16
BRANCH  15  30
HETATM   30  C   UNL     1      -9.026   8.933  69.956  1.00  0.00    -0.165 C  
HETATM   31  H2  UNL     1      -9.846  10.374  71.238  1.00  0.00     0.000 HD 
HETATM   32  N   UNL     1      -9.082   9.698  71.231  1.00  0.00    -0.280 NA 
HETATM   33  H1  UNL     1      -9.134   9.055  72.021  1.00  0.00     0.000 HD 
BRANCH  30  34
HETATM   34  C   UNL     1     -10.246   7.985  69.980  1.00  0.00    -0.205 C  
BRANCH  34  35
HETATM   35  C   UNL     1     -10.123   6.635  70.662  1.00  0.00    -0.205 A  
HETATM   36  C   UNL     1      -9.412   5.569  68.423  1.00  0.00    -0.144 C  
HETATM   37  C   UNL     1     -10.342   5.170  72.606  1.00  0.00    -0.248 A  
HETATM   38  C   UNL     1     -11.134   7.484  72.897  1.00  0.00    -0.426 C  
HETATM   39  C   UNL     1      -9.707   5.509  69.903  1.00  0.00    -0.233 A  
HETATM   40  C   UNL     1     -10.509   6.436  72.011  1.00  0.00    -0.236 A  
HETATM   41  C   UNL     1      -9.851   4.088  71.882  1.00  0.00    -0.247 A  
HETATM   42  C   UNL     1      -9.556   4.261  70.528  1.00  0.00    -0.267 A  
BRANCH  41  43
HETATM   43  C   UNL     1      -9.661   2.729  72.461  1.00  0.00    -0.137 C  
HETATM   44  H2  UNL     1     -11.674   2.225  72.323  1.00  0.00     0.000 HD 
HETATM   45  H1  UNL     1     -10.616   0.979  73.003  1.00  0.00     0.000 HD 
HETATM   46  N   UNL     1     -10.746   1.909  72.607  1.00  0.00    -0.141 N  
HETATM   47  O   UNL     1      -8.555   2.328  72.810  1.00  0.00    -0.062 OA 
ENDBRANCH  41  43
ENDBRANCH  34  35
ENDBRANCH  30  34
ENDBRANCH  15  30
ENDBRANCH  12  13
ENDBRANCH   6  12
ENDBRANCH   2   3
TORSDOF 10
ENDMDL
MODEL      134
REMARK 921   NORMALIZED FREE ENERGY PREDICTED BY IDOCK:   -4.33 KCAL/MOL
REMARK 922        TOTAL FREE ENERGY PREDICTED BY IDOCK:   -9.72 KCAL/MOL
REMARK 923 INTER-LIGAND FREE ENERGY PREDICTED BY IDOCK:   -7.66 KCAL/MOL
REMARK 924 INTRA-LIGAND FREE ENERGY PREDICTED BY IDOCK:   -2.06 KCAL/MOL
REMARK 927      BINDING AFFINITY PREDICTED BY RF-SCORE:    0.00 PKD
ROOT
HETATM    1  C   UNL     1     -10.738  18.185  67.572  1.00  0.00    -0.345 C  
HETATM    2  O   UNL     1      -9.657  17.611  66.835  1.00  0.00    -0.267 OA 
ENDROOT
BRANCH   2   3
HETATM    3  C   UNL     1      -9.496  16.251  66.923  1.00  0.00    -0.230 A  
HETATM    4  C   UNL     1     -10.361  15.327  66.331  1.00  0.00    -0.296 A  
HETATM    5  C   UNL     1     -10.084  13.957  66.375  1.00  0.00    -0.298 A  
HETATM    6  C   UNL     1      -8.958  13.465  67.042  1.00  0.00    -0.228 A  
HETATM    7  C   UNL     1      -8.123  14.389  67.690  1.00  0.00    -0.188 A  
HETATM    8  C   UNL     1      -7.412  16.655  68.341  1.00  0.00    -0.194 C  
HETATM    9  O   UNL     1      -7.253  17.878  67.796  1.00  0.00    -0.202 OA 
HETATM   10  C   UNL     1      -8.376  15.773  67.625  1.00  0.00    -0.170 A  
HETATM   11  O   UNL     1      -6.766  16.269  69.303  1.00  0.00    -0.179 OA 
BRANCH   6  12
HETATM   12  C   UNL     1      -8.605  11.991  67.050  1.00  0.00    -0.185 C  
BRANCH  12  13
HETATM   13  N   UNL     1      -9.706  11.063  66.738  1.00  0.00    -0.190 N  
HETATM   14  O   UNL     1     -11.409   9.665  67.450  1.00  0.00     0.057 OA 
HETATM   15  C   UNL     1     -10.596  10.559  67.718  1.00  0.00    -0.243 C  
BRANCH  13  16
HETATM   16  C   UNL     1      -9.676  10.386  65.416  1.00  0.00    -0.265 C  
HETATM   17  C   UNL     1      -9.004  11.211  64.302  1.00  0.00     0.029 C  
BRANCH  16  18
HETATM   18  C   UNL     1      -8.963   9.052  65.495  1.00  0.00    -0.204 A  
HETATM   19  C   UNL     1      -7.357   7.638  66.095  1.00  0.00    -0.078 A  
HETATM   20  C   UNL     1      -8.556   6.975  65.943  1.00  0.00    -0.145 A  
HETATM   21  N   UNL     1      -9.525   7.858  65.526  1.00  0.00    -0.290 NA 
HETATM   22  H   UNL     1     -10.491   7.633  65.286  1.00  0.00     0.000 HD 
HETATM   23  N   UNL     1      -7.621   8.948  65.777  1.00  0.00    -0.089 NA 
BRANCH  20  24
HETATM   24  C   UNL     1      -8.849   5.584  66.265  1.00  0.00    -0.134 A  
HETATM   25  C   UNL     1     -10.062   3.986  67.656  1.00  0.00     0.153 A  
HETATM   26  C   UNL     1      -9.380   2.930  67.059  1.00  0.00    -0.132 A  
HETATM   27  C   UNL     1      -8.446   3.191  66.055  1.00  0.00    -0.109 A  
HETATM   28  C   UNL     1      -9.799   5.300  67.260  1.00  0.00    -0.183 A  
HETATM   29  C   UNL     1      -8.185   4.510  65.656  1.00  0.00    -0.110 A  
ENDBRANCH  20  24
ENDBRANCH  16  18
ENDBRANCH  13  16
BRANCH  15  30
HETATM   30  C   UNL     1     -10.545  11.199  69.157  1.00  0.00    -0.204 C  
HETATM   31  H2  UNL     1     -12.364  12.211  68.908  1.00  0.00     0.000 HD 
HETATM   32  N   UNL     1     -11.409  12.410  69.205  1.00  0.00    -0.269 NA 
HETATM   33  H1  UNL     1     -11.375  12.824  70.137  1.00  0.00     0.000 HD 
BRANCH  30  34
HETATM   34  C   UNL     1     -11.022  10.296  70.317  1.00  0.00    -0.375 C  
BRANCH  34  35
HETATM   35  C   UNL     1     -10.400   8.923  70.491  1.00  0.00    -0.246 A  
HETATM   36  C   UNL     1     -12.638   8.026  71.405  1.00  0.00    -0.307 C  
HETATM   37  C   UNL     1      -8.501   7.386  70.410  1.00  0.00    -0.142 A  
HETATM   38  C   UNL     1      -8.009   9.746  69.905  1.00  0.00    -0.184 C  
HETATM   39  C   UNL     1     -11.195   7.859  70.993  1.00  0.00    -0.288 A  
HETATM   40  C   UNL     1      -9.020   8.689  70.267  1.00  0.00    -0.162 A  
HETATM   41  C   UNL     1      -9.304   6.327  70.819  1.00  0.00    -0.168 A  
HETATM   42  C   UNL     1     -10.643   6.576  71.127  1.00  0.00    -0.271 A  
BRANCH  41  43
HETATM   43  C   UNL     1      -8.804   4.934  70.991  1.00  0.00    -0.126 C  
HETATM   44  H2  UNL     1     -10.450   4.321  72.105  1.00  0.00     0.000 HD 
HETATM   45  H1  UNL     1      -9.214   3.085  71.818  1.00  0.00     0.000 HD 
HETATM   46  N   UNL     1      -9.557   4.039  71.700  1.00  0.00    -0.150 N  
HETATM   47  O   UNL     1      -7.733   4.572  70.514  1.00  0.00    -0.052 OA 
ENDBRANCH  41  43
ENDBRANCH  34  35
ENDBRANCH  30  34
ENDBRANCH  15  30
ENDBRANCH  12  13
ENDBRANCH   6  12
ENDBRANCH   2   3
TORSDOF 10
ENDMDL
MODEL      135
REMARK 921   NORMALIZED FREE ENERGY PREDICTED BY IDOCK:   -4.32 KCAL/MOL
REMARK 922        TOTAL FREE ENERGY PREDICTED BY IDOCK:   -9.72 KCAL/MOL
REMARK 923 INTER-LIGAND FREE ENERGY PREDICTED BY IDOCK:   -7.97 KCAL/MOL
REMARK 924 INTRA-LIGAND FREE ENERGY PREDICTED BY IDOCK:   -1.75 KCAL/MOL
REMARK 927      BINDING AFFINITY PREDICTED BY RF-SCORE:    0.00 PKD
ROOT
HETATM    1  C   UNL     1     -10.246   5.043  72.685  1.00  0.00    -0.188 C  
HETATM    2  O   UNL     1     -10.618   5.302  71.331  1.00  0.00    -0.225 OA 
ENDROOT
BRANCH   2   3
HETATM    3  C   UNL     1     -10.304   6.539  70.826  1.00  0.00    -0.204 A  
HETATM    4  C   UNL     1     -10.050   7.661  71.620  1.00  0.00    -0.212 A  
HETATM    5  C   UNL     1      -9.638   8.867  71.045  1.00  0.00    -0.321 A  
HETATM    6  C   UNL     1      -9.504   9.002  69.660  1.00  0.00    -0.174 A  
HETATM    7  C   UNL     1      -9.818   7.894  68.858  1.00  0.00    -0.174 A  
HETATM    8  C   UNL     1     -10.500   5.559  68.476  1.00  0.00    -0.164 C  
HETATM    9  O   UNL     1     -10.241   4.323  68.949  1.00  0.00     0.055 OA 
HETATM   10  C   UNL     1     -10.204   6.666  69.429  1.00  0.00    -0.207 A  
HETATM   11  O   UNL     1     -10.880   5.765  67.334  1.00  0.00    -0.268 OA 
BRANCH   6  12
HETATM   12  C   UNL     1      -8.999  10.280  69.019  1.00  0.00    -0.172 C  
BRANCH  12  13
HETATM   13  N   UNL     1      -7.694  10.188  68.339  1.00  0.00    -0.087 N  
HETATM   14  O   UNL     1      -6.459   9.798  66.421  1.00  0.00    -0.068 OA 
HETATM   15  C   UNL     1      -7.559  10.028  66.939  1.00  0.00    -0.096 C  
BRANCH  13  16
HETATM   16  C   UNL     1      -6.500   9.928  69.185  1.00  0.00    -0.048 C  
HETATM   17  C   UNL     1      -6.505  10.679  70.530  1.00  0.00    -0.045 C  
BRANCH  16  18
HETATM   18  C   UNL     1      -6.346   8.450  69.483  1.00  0.00    -0.037 A  
HETATM   19  C   UNL     1      -6.525   6.590  70.684  1.00  0.00    -0.048 A  
HETATM   20  C   UNL     1      -6.558   6.302  69.337  1.00  0.00    -0.044 A  
HETATM   21  N   UNL     1      -6.397   7.461  68.611  1.00  0.00    -0.038 NA 
HETATM   22  H   UNL     1      -6.331   7.539  67.596  1.00  0.00     0.000 HD 
HETATM   23  N   UNL     1      -6.358   7.951  70.764  1.00  0.00    -0.037 NA 
BRANCH  20  24
HETATM   24  C   UNL     1      -6.828   5.016  68.708  1.00  0.00    -0.051 A  
HETATM   25  C   UNL     1      -7.542   3.783  66.726  1.00  0.00    -0.080 A  
HETATM   26  C   UNL     1      -7.513   2.590  67.441  1.00  0.00    -0.061 A  
HETATM   27  C   UNL     1      -7.127   2.600  68.783  1.00  0.00    -0.044 A  
HETATM   28  C   UNL     1      -7.201   4.984  67.354  1.00  0.00    -0.070 A  
HETATM   29  C   UNL     1      -6.781   3.804  69.412  1.00  0.00    -0.037 A  
ENDBRANCH  20  24
ENDBRANCH  16  18
ENDBRANCH  13  16
BRANCH  15  30
HETATM   30  C   UNL     1      -8.851  10.187  66.052  1.00  0.00    -0.143 C  
HETATM   31  H2  UNL     1      -9.599   8.301  66.580  1.00  0.00     0.000 HD 
HETATM   32  N   UNL     1      -9.420   8.847  65.738  1.00  0.00    -0.379 NA 
HETATM   33  H1  UNL     1     -10.256   8.951  65.164  1.00  0.00     0.000 HD 
BRANCH  30  34
HETATM   34  C   UNL     1     -10.007  10.998  66.678  1.00  0.00    -0.249 C  
BRANCH  34  35
HETATM   35  C   UNL     1     -10.306  12.389  66.151  1.00  0.00    -0.271 A  
HETATM   36  C   UNL     1      -9.899  13.367  68.503  1.00  0.00    -0.178 C  
HETATM   37  C   UNL     1     -10.991  13.927  64.378  1.00  0.00    -0.322 A  
HETATM   38  C   UNL     1     -11.063  11.528  63.822  1.00  0.00    -0.471 C  
HETATM   39  C   UNL     1     -10.229  13.499  67.036  1.00  0.00    -0.249 A  
HETATM   40  C   UNL     1     -10.761  12.611  64.827  1.00  0.00    -0.335 A  
HETATM   41  C   UNL     1     -10.831  15.019  65.224  1.00  0.00    -0.399 A  
HETATM   42  C   UNL     1     -10.470  14.795  66.554  1.00  0.00    -0.291 A  
BRANCH  41  43
HETATM   43  C   UNL     1     -11.067  16.428  64.802  1.00  0.00    -0.235 C  
HETATM   44  H2  UNL     1     -10.164  17.243  66.489  1.00  0.00     0.000 HD 
HETATM   45  H1  UNL     1     -10.800  18.411  65.319  1.00  0.00     0.000 HD 
HETATM   46  N   UNL     1     -10.639  17.446  65.609  1.00  0.00    -0.257 N  
HETATM   47  O   UNL     1     -11.636  16.696  63.748  1.00  0.00    -1.045 OA 
ENDBRANCH  41  43
ENDBRANCH  34  35
ENDBRANCH  30  34
ENDBRANCH  15  30
ENDBRANCH  12  13
ENDBRANCH   6  12
ENDBRANCH   2   3
TORSDOF 10
ENDMDL
MODEL      136
REMARK 921   NORMALIZED FREE ENERGY PREDICTED BY IDOCK:   -4.31 KCAL/MOL
REMARK 922        TOTAL FREE ENERGY PREDICTED BY IDOCK:   -9.70 KCAL/MOL
REMARK 923 INTER-LIGAND FREE ENERGY PREDICTED BY IDOCK:   -8.21 KCAL/MOL
REMARK 924 INTRA-LIGAND FREE ENERGY PREDICTED BY IDOCK:   -1.49 KCAL/MOL
REMARK 927      BINDING AFFINITY PREDICTED BY RF-SCORE:    0.00 PKD
ROOT
HETATM    1  C   UNL     1      -9.347  10.333  62.949  1.00  0.00    -0.311 C  
HETATM    2  O   UNL     1      -9.114  10.756  64.293  1.00  0.00    -0.199 OA 
ENDROOT
BRANCH   2   3
HETATM    3  C   UNL     1      -9.466   9.881  65.290  1.00  0.00    -0.268 A  
HETATM    4  C   UNL     1      -8.970   8.578  65.392  1.00  0.00    -0.150 A  
HETATM    5  C   UNL     1      -9.293   7.772  66.488  1.00  0.00    -0.243 A  
HETATM    6  C   UNL     1     -10.148   8.226  67.496  1.00  0.00    -0.287 A  
HETATM    7  C   UNL     1     -10.696   9.512  67.363  1.00  0.00    -0.297 A  
HETATM    8  C   UNL     1     -10.988  11.691  66.253  1.00  0.00    -0.289 C  
HETATM    9  O   UNL     1     -10.247  12.653  65.669  1.00  0.00    -0.267 OA 
HETATM   10  C   UNL     1     -10.353  10.343  66.279  1.00  0.00    -0.270 A  
HETATM   11  O   UNL     1     -12.065  11.915  66.784  1.00  0.00    -0.593 OA 
BRANCH   6  12
HETATM   12  C   UNL     1     -10.461   7.395  68.724  1.00  0.00    -0.199 C  
BRANCH  12  13
HETATM   13  N   UNL     1     -10.748   8.149  69.957  1.00  0.00    -0.243 N  
HETATM   14  O   UNL     1      -9.999   9.248  71.852  1.00  0.00    -0.228 OA 
HETATM   15  C   UNL     1      -9.741   8.757  70.745  1.00  0.00    -0.208 C  
BRANCH  13  16
HETATM   16  C   UNL     1     -12.097   7.987  70.559  1.00  0.00     0.139 C  
HETATM   17  C   UNL     1     -12.115   7.135  71.842  1.00  0.00    -0.357 C  
BRANCH  16  18
HETATM   18  C   UNL     1     -12.719   9.328  70.888  1.00  0.00    -0.067 A  
HETATM   19  C   UNL     1     -13.860  10.796  72.104  1.00  0.00     0.312 A  
HETATM   20  C   UNL     1     -12.918  11.437  71.328  1.00  0.00    -0.316 A  
HETATM   21  N   UNL     1     -12.256  10.517  70.547  1.00  0.00    -0.318 NA 
HETATM   22  H   UNL     1     -11.546  10.714  69.843  1.00  0.00     0.000 HD 
HETATM   23  N   UNL     1     -13.746   9.464  71.792  1.00  0.00    -0.370 NA 
BRANCH  20  24
HETATM   24  C   UNL     1     -12.550  12.846  71.358  1.00  0.00    -0.319 A  
HETATM   25  C   UNL     1     -12.677  15.001  72.498  1.00  0.00    -0.440 A  
HETATM   26  C   UNL     1     -12.012  15.614  71.441  1.00  0.00    -0.476 A  
HETATM   27  C   UNL     1     -11.599  14.849  70.349  1.00  0.00    -0.330 A  
HETATM   28  C   UNL     1     -12.941  13.630  72.457  1.00  0.00    -0.396 A  
HETATM   29  C   UNL     1     -11.861  13.472  70.310  1.00  0.00    -0.327 A  
ENDBRANCH  20  24
ENDBRANCH  16  18
ENDBRANCH  13  16
BRANCH  15  30
HETATM   30  C   UNL     1      -8.283   8.823  70.154  1.00  0.00    -0.117 C  
HETATM   31  H2  UNL     1      -7.999  10.815  70.741  1.00  0.00     0.000 HD 
HETATM   32  N   UNL     1      -7.899  10.240  69.905  1.00  0.00    -0.302 NA 
HETATM   33  H1  UNL     1      -6.954  10.282  69.522  1.00  0.00     0.000 HD 
BRANCH  30  34
HETATM   34  C   UNL     1      -7.164   8.234  71.042  1.00  0.00    -0.061 C  
BRANCH  34  35
HETATM   35  C   UNL     1      -6.812   6.764  70.912  1.00  0.00    -0.059 A  
HETATM   36  C   UNL     1      -5.127   7.333  69.043  1.00  0.00    -0.014 C  
HETATM   37  C   UNL     1      -7.115   4.410  71.497  1.00  0.00    -0.043 A  
HETATM   38  C   UNL     1      -8.688   5.997  72.534  1.00  0.00    -0.122 C  
HETATM   39  C   UNL     1      -5.828   6.366  69.967  1.00  0.00    -0.018 A  
HETATM   40  C   UNL     1      -7.506   5.757  71.629  1.00  0.00    -0.094 A  
HETATM   41  C   UNL     1      -6.091   4.033  70.634  1.00  0.00    -0.018 A  
HETATM   42  C   UNL     1      -5.467   5.014  69.860  1.00  0.00    -0.011 A  
BRANCH  41  43
HETATM   43  C   UNL     1      -5.643   2.624  70.454  1.00  0.00    -0.016 C  
HETATM   44  H2  UNL     1      -5.631   2.736  68.377  1.00  0.00     0.000 HD 
HETATM   45  H1  UNL     1      -5.156   1.175  69.064  1.00  0.00     0.000 HD 
HETATM   46  N   UNL     1      -5.462   2.140  69.188  1.00  0.00    -0.013 N  
HETATM   47  O   UNL     1      -5.435   1.888  71.413  1.00  0.00    -0.004 OA 
ENDBRANCH  41  43
ENDBRANCH  34  35
ENDBRANCH  30  34
ENDBRANCH  15  30
ENDBRANCH  12  13
ENDBRANCH   6  12
ENDBRANCH   2   3
TORSDOF 10
ENDMDL
MODEL      137
REMARK 921   NORMALIZED FREE ENERGY PREDICTED BY IDOCK:   -4.29 KCAL/MOL
REMARK 922        TOTAL FREE ENERGY PREDICTED BY IDOCK:   -9.68 KCAL/MOL
REMARK 923 INTER-LIGAND FREE ENERGY PREDICTED BY IDOCK:   -9.04 KCAL/MOL
REMARK 924 INTRA-LIGAND FREE ENERGY PREDICTED BY IDOCK:   -0.64 KCAL/MOL
REMARK 927      BINDING AFFINITY PREDICTED BY RF-SCORE:    0.00 PKD
ROOT
HETATM    1  C   UNL     1      -5.719  12.158  70.224  1.00  0.00    -0.163 C  
HETATM    2  O   UNL     1      -5.298  11.552  69.001  1.00  0.00    -0.044 OA 
ENDROOT
BRANCH   2   3
HETATM    3  C   UNL     1      -5.615  10.228  68.821  1.00  0.00    -0.037 A  
HETATM    4  C   UNL     1      -5.208   9.207  69.684  1.00  0.00    -0.034 A  
HETATM    5  C   UNL     1      -5.650   7.894  69.498  1.00  0.00    -0.026 A  
HETATM    6  C   UNL     1      -6.479   7.552  68.426  1.00  0.00    -0.045 A  
HETATM    7  C   UNL     1      -6.838   8.566  67.524  1.00  0.00    -0.071 A  
HETATM    8  C   UNL     1      -6.879  10.887  66.702  1.00  0.00    -0.127 C  
HETATM    9  O   UNL     1      -7.053  12.139  67.171  1.00  0.00    -0.146 OA 
HETATM   10  C   UNL     1      -6.424   9.897  67.720  1.00  0.00    -0.063 A  
HETATM   11  O   UNL     1      -7.140  10.567  65.553  1.00  0.00    -0.142 OA 
BRANCH   6  12
HETATM   12  C   UNL     1      -7.021   6.148  68.241  1.00  0.00    -0.080 C  
BRANCH  12  13
HETATM   13  N   UNL     1      -8.489   6.023  68.210  1.00  0.00    -0.112 N  
HETATM   14  O   UNL     1     -10.444   5.159  69.099  1.00  0.00    -0.198 OA 
HETATM   15  C   UNL     1      -9.234   5.383  69.231  1.00  0.00    -0.116 C  
BRANCH  13  16
HETATM   16  C   UNL     1      -9.171   6.289  66.916  1.00  0.00    -0.130 C  
HETATM   17  C   UNL     1     -10.152   5.184  66.483  1.00  0.00    -0.269 C  
BRANCH  16  18
HETATM   18  C   UNL     1      -9.935   7.596  66.954  1.00  0.00    -0.255 A  
HETATM   19  C   UNL     1     -10.733   9.459  67.867  1.00  0.00    -0.210 A  
HETATM   20  C   UNL     1     -10.534   9.628  66.513  1.00  0.00    -0.143 A  
HETATM   21  N   UNL     1     -10.086   8.450  65.959  1.00  0.00    -0.412 NA 
HETATM   22  H   UNL     1      -9.906   8.272  64.971  1.00  0.00     0.000 HD 
HETATM   23  N   UNL     1     -10.380   8.158  68.128  1.00  0.00    -0.208 NA 
BRANCH  20  24
HETATM   24  C   UNL     1     -10.652  10.860  65.744  1.00  0.00    -0.230 A  
HETATM   25  C   UNL     1     -10.212  12.059  63.664  1.00  0.00    -0.470 A  
HETATM   26  C   UNL     1     -10.701  13.235  64.223  1.00  0.00    -0.408 A  
HETATM   27  C   UNL     1     -11.182  13.228  65.533  1.00  0.00    -0.307 A  
HETATM   28  C   UNL     1     -10.190  10.883  64.418  1.00  0.00    -0.423 A  
HETATM   29  C   UNL     1     -11.163  12.047  66.289  1.00  0.00    -0.394 A  
ENDBRANCH  20  24
ENDBRANCH  16  18
ENDBRANCH  13  16
BRANCH  15  30
HETATM   30  C   UNL     1      -8.481   4.995  70.558  1.00  0.00    -0.105 C  
HETATM   31  H2  UNL     1      -6.603   5.534  69.800  1.00  0.00     0.000 HD 
HETATM   32  N   UNL     1      -7.042   4.744  70.272  1.00  0.00    -0.048 NA 
HETATM   33  H1  UNL     1      -6.555   4.492  71.132  1.00  0.00     0.000 HD 
BRANCH  30  34
HETATM   34  C   UNL     1      -8.508   6.050  71.686  1.00  0.00    -0.127 C  
BRANCH  34  35
HETATM   35  C   UNL     1      -9.765   6.870  71.904  1.00  0.00    -0.166 A  
HETATM   36  C   UNL     1      -8.536   8.978  71.069  1.00  0.00    -0.254 C  
HETATM   37  C   UNL     1     -12.076   7.121  72.662  1.00  0.00     0.053 A  
HETATM   38  C   UNL     1     -11.033   4.927  73.069  1.00  0.00    -0.358 C  
HETATM   39  C   UNL     1      -9.757   8.254  71.585  1.00  0.00    -0.261 A  
HETATM   40  C   UNL     1     -10.923   6.324  72.514  1.00  0.00    -0.286 A  
HETATM   41  C   UNL     1     -12.091   8.455  72.268  1.00  0.00    -0.456 A  
HETATM   42  C   UNL     1     -10.923   9.018  71.750  1.00  0.00    -0.443 A  
BRANCH  41  43
HETATM   43  C   UNL     1     -13.281   9.341  72.407  1.00  0.00    -0.426 C  
HETATM   44  H2  UNL     1     -12.192  11.094  72.151  1.00  0.00     0.000 HD 
HETATM   45  H1  UNL     1     -13.932  11.301  72.410  1.00  0.00     0.000 HD 
HETATM   46  N   UNL     1     -13.117  10.695  72.314  1.00  0.00    -0.282 N  
HETATM   47  O   UNL     1     -14.402   8.884  72.604  1.00  0.00    -0.613 OA 
ENDBRANCH  41  43
ENDBRANCH  34  35
ENDBRANCH  30  34
ENDBRANCH  15  30
ENDBRANCH  12  13
ENDBRANCH   6  12
ENDBRANCH   2   3
TORSDOF 10
ENDMDL
MODEL      138
REMARK 921   NORMALIZED FREE ENERGY PREDICTED BY IDOCK:   -4.27 KCAL/MOL
REMARK 922        TOTAL FREE ENERGY PREDICTED BY IDOCK:   -9.64 KCAL/MOL
REMARK 923 INTER-LIGAND FREE ENERGY PREDICTED BY IDOCK:   -8.27 KCAL/MOL
REMARK 924 INTRA-LIGAND FREE ENERGY PREDICTED BY IDOCK:   -1.37 KCAL/MOL
REMARK 927      BINDING AFFINITY PREDICTED BY RF-SCORE:    0.00 PKD
ROOT
HETATM    1  C   UNL     1      -8.980   4.901  71.995  1.00  0.00    -0.131 C  
HETATM    2  O   UNL     1      -9.622   5.954  71.275  1.00  0.00    -0.165 OA 
ENDROOT
BRANCH   2   3
HETATM    3  C   UNL     1      -8.854   7.045  70.952  1.00  0.00    -0.148 A  
HETATM    4  C   UNL     1      -7.462   7.008  70.835  1.00  0.00    -0.082 A  
HETATM    5  C   UNL     1      -6.749   8.132  70.406  1.00  0.00    -0.037 A  
HETATM    6  C   UNL     1      -7.398   9.336  70.117  1.00  0.00    -0.096 A  
HETATM    7  C   UNL     1      -8.790   9.391  70.293  1.00  0.00    -0.269 A  
HETATM    8  C   UNL     1     -10.993   8.434  70.836  1.00  0.00    -0.243 C  
HETATM    9  O   UNL     1     -11.722   7.328  70.586  1.00  0.00    -0.303 OA 
HETATM   10  C   UNL     1      -9.520   8.256  70.696  1.00  0.00    -0.181 A  
HETATM   11  O   UNL     1     -11.498   9.518  71.089  1.00  0.00    -0.299 OA 
BRANCH   6  12
HETATM   12  C   UNL     1      -6.655  10.547  69.590  1.00  0.00    -0.098 C  
BRANCH  12  13
HETATM   13  N   UNL     1      -6.876  10.871  68.169  1.00  0.00    -0.066 N  
HETATM   14  O   UNL     1      -7.904  12.164  66.547  1.00  0.00     0.014 OA 
HETATM   15  C   UNL     1      -7.605  12.006  67.738  1.00  0.00    -0.130 C  
BRANCH  13  16
HETATM   16  C   UNL     1      -6.605   9.801  67.174  1.00  0.00    -0.070 C  
HETATM   17  C   UNL     1      -5.246   9.100  67.358  1.00  0.00    -0.037 C  
BRANCH  16  18
HETATM   18  C   UNL     1      -7.681   8.736  67.203  1.00  0.00    -0.096 A  
HETATM   19  C   UNL     1      -9.604   7.773  66.644  1.00  0.00    -0.220 A  
HETATM   20  C   UNL     1      -8.671   6.823  66.998  1.00  0.00    -0.114 A  
HETATM   21  N   UNL     1      -7.504   7.440  67.387  1.00  0.00    -0.101 NA 
HETATM   22  H   UNL     1      -6.665   6.985  67.746  1.00  0.00     0.000 HD 
HETATM   23  N   UNL     1      -8.975   8.983  66.809  1.00  0.00    -0.132 NA 
BRANCH  20  24
HETATM   24  C   UNL     1      -8.793   5.374  66.894  1.00  0.00    -0.111 A  
HETATM   25  C   UNL     1      -8.536   3.361  65.539  1.00  0.00    -0.108 A  
HETATM   26  C   UNL     1      -9.123   2.595  66.541  1.00  0.00    -0.131 A  
HETATM   27  C   UNL     1      -9.531   3.208  67.727  1.00  0.00    -0.209 A  
HETATM   28  C   UNL     1      -8.371   4.737  65.716  1.00  0.00    -0.117 A  
HETATM   29  C   UNL     1      -9.363   4.588  67.906  1.00  0.00    -0.178 A  
ENDBRANCH  20  24
ENDBRANCH  16  18
ENDBRANCH  13  16
BRANCH  15  30
HETATM   30  C   UNL     1      -7.995  13.084  68.817  1.00  0.00     0.058 C  
HETATM   31  H2  UNL     1      -6.919  14.610  67.865  1.00  0.00     0.000 HD 
HETATM   32  N   UNL     1      -7.014  14.204  68.795  1.00  0.00    -0.099 NA 
HETATM   33  H1  UNL     1      -7.268  14.902  69.494  1.00  0.00     0.000 HD 
BRANCH  30  34
HETATM   34  C   UNL     1      -9.385  13.739  68.649  1.00  0.00    -0.081 C  
BRANCH  34  35
HETATM   35  C   UNL     1     -10.160  13.514  67.365  1.00  0.00    -0.237 A  
HETATM   36  C   UNL     1      -9.214  15.714  66.408  1.00  0.00    -0.346 C  
HETATM   37  C   UNL     1     -11.746  12.259  65.991  1.00  0.00    -0.451 A  
HETATM   38  C   UNL     1     -11.444  11.461  68.302  1.00  0.00    -0.369 C  
HETATM   39  C   UNL     1     -10.046  14.458  66.309  1.00  0.00    -0.308 A  
HETATM   40  C   UNL     1     -11.078  12.443  67.218  1.00  0.00    -0.329 A  
HETATM   41  C   UNL     1     -11.566  13.139  64.929  1.00  0.00    -0.356 A  
HETATM   42  C   UNL     1     -10.731  14.244  65.103  1.00  0.00    -0.407 A  
BRANCH  41  43
HETATM   43  C   UNL     1     -12.252  12.993  63.615  1.00  0.00    -0.491 C  
HETATM   44  H2  UNL     1     -12.560  10.948  63.833  1.00  0.00     0.000 HD 
HETATM   45  H1  UNL     1     -13.166  11.659  62.329  1.00  0.00     0.000 HD 
HETATM   46  N   UNL     1     -12.696  11.759  63.229  1.00  0.00    -0.426 N  
HETATM   47  O   UNL     1     -12.426  13.953  62.871  1.00  0.00    -0.572 OA 
ENDBRANCH  41  43
ENDBRANCH  34  35
ENDBRANCH  30  34
ENDBRANCH  15  30
ENDBRANCH  12  13
ENDBRANCH   6  12
ENDBRANCH   2   3
TORSDOF 10
ENDMDL
MODEL      139
REMARK 921   NORMALIZED FREE ENERGY PREDICTED BY IDOCK:   -4.27 KCAL/MOL
REMARK 922        TOTAL FREE ENERGY PREDICTED BY IDOCK:   -9.63 KCAL/MOL
REMARK 923 INTER-LIGAND FREE ENERGY PREDICTED BY IDOCK:   -7.70 KCAL/MOL
REMARK 924 INTRA-LIGAND FREE ENERGY PREDICTED BY IDOCK:   -1.93 KCAL/MOL
REMARK 927      BINDING AFFINITY PREDICTED BY RF-SCORE:    0.00 PKD
ROOT
HETATM    1  C   UNL     1     -11.931  12.473  65.376  1.00  0.00    -0.437 C  
HETATM    2  O   UNL     1     -12.392  12.442  66.728  1.00  0.00    -0.457 OA 
ENDROOT
BRANCH   2   3
HETATM    3  C   UNL     1     -11.699  11.643  67.603  1.00  0.00    -0.228 A  
HETATM    4  C   UNL     1     -11.262  10.351  67.297  1.00  0.00    -0.153 A  
HETATM    5  C   UNL     1     -10.475   9.629  68.199  1.00  0.00    -0.266 A  
HETATM    6  C   UNL     1     -10.131  10.157  69.447  1.00  0.00    -0.250 A  
HETATM    7  C   UNL     1     -10.622  11.429  69.780  1.00  0.00     0.198 A  
HETATM    8  C   UNL     1     -11.842  13.520  69.328  1.00  0.00    -0.341 C  
HETATM    9  O   UNL     1     -11.983  14.436  68.349  1.00  0.00    -0.331 OA 
HETATM   10  C   UNL     1     -11.390  12.177  68.866  1.00  0.00    -0.335 A  
HETATM   11  O   UNL     1     -12.004  13.783  70.510  1.00  0.00    -0.323 OA 
BRANCH   6  12
HETATM   12  C   UNL     1      -9.227   9.418  70.414  1.00  0.00    -0.257 C  
BRANCH  12  13
HETATM   13  N   UNL     1      -8.037   8.780  69.824  1.00  0.00    -0.107 N  
HETATM   14  O   UNL     1      -5.941   8.959  68.857  1.00  0.00    -0.043 OA 
HETATM   15  C   UNL     1      -6.860   9.494  69.492  1.00  0.00    -0.054 C  
BRANCH  13  16
HETATM   16  C   UNL     1      -8.202   7.413  69.264  1.00  0.00    -0.131 C  
HETATM   17  C   UNL     1      -7.248   7.091  68.099  1.00  0.00    -0.091 C  
BRANCH  16  18
HETATM   18  C   UNL     1      -8.004   6.354  70.328  1.00  0.00    -0.112 A  
HETATM   19  C   UNL     1      -7.379   5.548  72.302  1.00  0.00    -0.094 A  
HETATM   20  C   UNL     1      -8.437   4.824  71.796  1.00  0.00    -0.118 A  
HETATM   21  N   UNL     1      -8.777   5.308  70.553  1.00  0.00    -0.119 NA 
HETATM   22  H   UNL     1      -9.489   4.931  69.927  1.00  0.00     0.000 HD 
HETATM   23  N   UNL     1      -7.093   6.494  71.349  1.00  0.00    -0.075 NA 
BRANCH  20  24
HETATM   24  C   UNL     1      -9.196   3.774  72.462  1.00  0.00    -0.144 A  
HETATM   25  C   UNL     1      -9.840   2.681  74.548  1.00  0.00    -0.148 A  
HETATM   26  C   UNL     1     -10.514   1.693  73.837  1.00  0.00    -0.169 A  
HETATM   27  C   UNL     1     -10.549   1.748  72.443  1.00  0.00    -0.177 A  
HETATM   28  C   UNL     1      -9.189   3.712  73.865  1.00  0.00    -0.097 A  
HETATM   29  C   UNL     1      -9.898   2.785  71.758  1.00  0.00    -0.220 A  
ENDBRANCH  20  24
ENDBRANCH  16  18
ENDBRANCH  13  16
BRANCH  15  30
HETATM   30  C   UNL     1      -6.738  10.984  69.986  1.00  0.00    -0.094 C  
HETATM   31  H2  UNL     1      -4.929  10.637  70.986  1.00  0.00     0.000 HD 
HETATM   32  N   UNL     1      -5.840  11.054  71.172  1.00  0.00    -0.359 NA 
HETATM   33  H1  UNL     1      -5.762  12.019  71.491  1.00  0.00     0.000 HD 
BRANCH  30  34
HETATM   34  C   UNL     1      -6.165  11.992  68.965  1.00  0.00    -0.079 C  
BRANCH  34  35
HETATM   35  C   UNL     1      -7.038  13.135  68.483  1.00  0.00    -0.105 A  
HETATM   36  C   UNL     1      -6.207  14.594  70.441  1.00  0.00    -0.168 C  
HETATM   37  C   UNL     1      -8.710  14.090  66.977  1.00  0.00    -0.220 A  
HETATM   38  C   UNL     1      -8.210  11.698  66.666  1.00  0.00    -0.140 C  
HETATM   39  C   UNL     1      -7.025  14.366  69.192  1.00  0.00    -0.123 A  
HETATM   40  C   UNL     1      -7.948  12.986  67.406  1.00  0.00    -0.173 A  
HETATM   41  C   UNL     1      -8.630  15.321  67.621  1.00  0.00    -0.178 A  
HETATM   42  C   UNL     1      -7.801  15.444  68.738  1.00  0.00    -0.155 A  
BRANCH  41  43
HETATM   43  C   UNL     1      -9.418  16.517  67.212  1.00  0.00    -0.235 C  
HETATM   44  H2  UNL     1     -10.288  15.570  65.577  1.00  0.00     0.000 HD 
HETATM   45  H1  UNL     1     -10.764  17.257  65.831  1.00  0.00     0.000 HD 
HETATM   46  N   UNL     1     -10.225  16.437  66.111  1.00  0.00    -0.333 N  
HETATM   47  O   UNL     1      -9.358  17.571  67.837  1.00  0.00    -0.256 OA 
ENDBRANCH  41  43
ENDBRANCH  34  35
ENDBRANCH  30  34
ENDBRANCH  15  30
ENDBRANCH  12  13
ENDBRANCH   6  12
ENDBRANCH   2   3
TORSDOF 10
ENDMDL
MODEL      140
REMARK 921   NORMALIZED FREE ENERGY PREDICTED BY IDOCK:   -4.26 KCAL/MOL
REMARK 922        TOTAL FREE ENERGY PREDICTED BY IDOCK:   -9.63 KCAL/MOL
REMARK 923 INTER-LIGAND FREE ENERGY PREDICTED BY IDOCK:   -8.46 KCAL/MOL
REMARK 924 INTRA-LIGAND FREE ENERGY PREDICTED BY IDOCK:   -1.17 KCAL/MOL
REMARK 927      BINDING AFFINITY PREDICTED BY RF-SCORE:    0.00 PKD
ROOT
HETATM    1  C   UNL     1     -10.019  16.814  68.536  1.00  0.00    -0.271 C  
HETATM    2  O   UNL     1      -8.632  16.476  68.598  1.00  0.00    -0.221 OA 
ENDROOT
BRANCH   2   3
HETATM    3  C   UNL     1      -8.322  15.147  68.743  1.00  0.00    -0.175 A  
HETATM    4  C   UNL     1      -9.201  14.105  68.435  1.00  0.00    -0.203 A  
HETATM    5  C   UNL     1      -8.787  12.772  68.512  1.00  0.00    -0.040 A  
HETATM    6  C   UNL     1      -7.497  12.436  68.933  1.00  0.00     0.001 A  
HETATM    7  C   UNL     1      -6.633  13.479  69.302  1.00  0.00    -0.103 A  
HETATM    8  C   UNL     1      -6.022  15.845  69.607  1.00  0.00    -0.154 C  
HETATM    9  O   UNL     1      -6.112  17.021  68.954  1.00  0.00    -0.156 OA 
HETATM   10  C   UNL     1      -7.031  14.826  69.199  1.00  0.00    -0.138 A  
HETATM   11  O   UNL     1      -5.142  15.603  70.418  1.00  0.00    -0.119 OA 
BRANCH   6  12
HETATM   12  C   UNL     1      -7.006  11.002  68.963  1.00  0.00    -0.097 C  
BRANCH  12  13
HETATM   13  N   UNL     1      -7.830  10.024  68.230  1.00  0.00    -0.088 N  
HETATM   14  O   UNL     1      -9.438   8.358  68.233  1.00  0.00    -0.138 OA 
HETATM   15  C   UNL     1      -8.872   9.280  68.835  1.00  0.00    -0.135 C  
BRANCH  13  16
HETATM   16  C   UNL     1      -7.336   9.573  66.903  1.00  0.00    -0.087 C  
HETATM   17  C   UNL     1      -7.294   8.043  66.733  1.00  0.00    -0.089 C  
BRANCH  16  18
HETATM   18  C   UNL     1      -8.180  10.139  65.779  1.00  0.00    -0.144 A  
HETATM   19  C   UNL     1      -9.697  10.096  64.156  1.00  0.00    -0.233 A  
HETATM   20  C   UNL     1      -9.621  11.353  64.716  1.00  0.00    -0.210 A  
HETATM   21  N   UNL     1      -8.643  11.371  65.685  1.00  0.00    -0.382 NA 
HETATM   22  H   UNL     1      -8.337  12.180  66.226  1.00  0.00     0.000 HD 
HETATM   23  N   UNL     1      -8.756   9.344  64.816  1.00  0.00    -0.187 NA 
BRANCH  20  24
HETATM   24  C   UNL     1     -10.483  12.497  64.453  1.00  0.00    -0.384 A  
HETATM   25  C   UNL     1     -11.174  14.760  65.057  1.00  0.00    -0.399 A  
HETATM   26  C   UNL     1     -12.200  14.711  64.118  1.00  0.00    -0.343 A  
HETATM   27  C   UNL     1     -12.363  13.569  63.333  1.00  0.00    -0.264 A  
HETATM   28  C   UNL     1     -10.323  13.663  65.220  1.00  0.00    -0.362 A  
HETATM   29  C   UNL     1     -11.507  12.470  63.495  1.00  0.00    -0.570 A  
ENDBRANCH  20  24
ENDBRANCH  16  18
ENDBRANCH  13  16
BRANCH  15  30
HETATM   30  C   UNL     1      -9.315   9.684  70.291  1.00  0.00    -0.242 C  
HETATM   31  H2  UNL     1     -11.358   9.519  69.851  1.00  0.00     0.000 HD 
HETATM   32  N   UNL     1     -10.715  10.189  70.275  1.00  0.00    -0.324 NA 
HETATM   33  H1  UNL     1     -11.002  10.450  71.218  1.00  0.00     0.000 HD 
BRANCH  30  34
HETATM   34  C   UNL     1      -9.287   8.555  71.346  1.00  0.00    -0.274 C  
BRANCH  34  35
HETATM   35  C   UNL     1      -9.235   7.111  70.885  1.00  0.00    -0.152 A  
HETATM   36  C   UNL     1     -11.801   6.952  71.093  1.00  0.00    -0.395 C  
HETATM   37  C   UNL     1      -8.018   5.100  70.214  1.00  0.00    -0.082 A  
HETATM   38  C   UNL     1      -6.642   7.010  70.939  1.00  0.00    -0.048 C  
HETATM   39  C   UNL     1     -10.446   6.379  70.755  1.00  0.00    -0.270 A  
HETATM   40  C   UNL     1      -8.009   6.431  70.676  1.00  0.00    -0.112 A  
HETATM   41  C   UNL     1      -9.209   4.413  70.005  1.00  0.00    -0.200 A  
HETATM   42  C   UNL     1     -10.416   5.053  70.297  1.00  0.00    -0.243 A  
BRANCH  41  43
HETATM   43  C   UNL     1      -9.273   3.005  69.524  1.00  0.00    -0.147 C  
HETATM   44  H2  UNL     1      -9.683   3.538  67.556  1.00  0.00     0.000 HD 
HETATM   45  H1  UNL     1      -9.578   1.799  67.874  1.00  0.00     0.000 HD 
HETATM   46  N   UNL     1      -9.534   2.764  68.203  1.00  0.00    -0.197 N  
HETATM   47  O   UNL     1      -9.099   2.057  70.284  1.00  0.00    -0.078 OA 
ENDBRANCH  41  43
ENDBRANCH  34  35
ENDBRANCH  30  34
ENDBRANCH  15  30
ENDBRANCH  12  13
ENDBRANCH   6  12
ENDBRANCH   2   3
TORSDOF 10
ENDMDL
MODEL      141
REMARK 921   NORMALIZED FREE ENERGY PREDICTED BY IDOCK:   -4.26 KCAL/MOL
REMARK 922        TOTAL FREE ENERGY PREDICTED BY IDOCK:   -9.63 KCAL/MOL
REMARK 923 INTER-LIGAND FREE ENERGY PREDICTED BY IDOCK:   -7.73 KCAL/MOL
REMARK 924 INTRA-LIGAND FREE ENERGY PREDICTED BY IDOCK:   -1.90 KCAL/MOL
REMARK 927      BINDING AFFINITY PREDICTED BY RF-SCORE:    0.00 PKD
ROOT
HETATM    1  C   UNL     1      -5.245   5.206  65.786  1.00  0.00    -0.012 C  
HETATM    2  O   UNL     1      -6.431   5.639  65.117  1.00  0.00    -0.037 OA 
ENDROOT
BRANCH   2   3
HETATM    3  C   UNL     1      -7.459   6.093  65.905  1.00  0.00    -0.082 A  
HETATM    4  C   UNL     1      -7.482   7.357  66.500  1.00  0.00    -0.084 A  
HETATM    5  C   UNL     1      -8.605   7.794  67.209  1.00  0.00    -0.128 A  
HETATM    6  C   UNL     1      -9.722   6.971  67.378  1.00  0.00    -0.177 A  
HETATM    7  C   UNL     1      -9.675   5.678  66.834  1.00  0.00    -0.162 A  
HETATM    8  C   UNL     1      -8.632   3.852  65.553  1.00  0.00    -0.111 C  
HETATM    9  O   UNL     1      -7.961   3.659  64.399  1.00  0.00    -0.084 OA 
HETATM   10  C   UNL     1      -8.561   5.239  66.092  1.00  0.00    -0.120 A  
HETATM   11  O   UNL     1      -9.304   2.981  66.081  1.00  0.00    -0.146 OA 
BRANCH   6  12
HETATM   12  C   UNL     1     -10.974   7.447  68.088  1.00  0.00     0.053 C  
BRANCH  12  13
HETATM   13  N   UNL     1     -10.769   8.069  69.409  1.00  0.00    -0.201 N  
HETATM   14  O   UNL     1     -10.214   9.919  70.686  1.00  0.00    -0.266 OA 
HETATM   15  C   UNL     1     -10.536   9.455  69.584  1.00  0.00    -0.225 C  
BRANCH  13  16
HETATM   16  C   UNL     1     -10.475   7.166  70.552  1.00  0.00    -0.212 C  
HETATM   17  C   UNL     1     -11.379   5.921  70.618  1.00  0.00    -0.206 C  
BRANCH  16  18
HETATM   18  C   UNL     1      -9.037   6.691  70.523  1.00  0.00    -0.152 A  
HETATM   19  C   UNL     1      -6.917   6.590  71.180  1.00  0.00    -0.068 A  
HETATM   20  C   UNL     1      -7.310   5.391  70.624  1.00  0.00    -0.071 A  
HETATM   21  N   UNL     1      -8.609   5.490  70.180  1.00  0.00    -0.119 NA 
HETATM   22  H   UNL     1      -9.139   4.774  69.683  1.00  0.00     0.000 HD 
HETATM   23  N   UNL     1      -8.009   7.415  71.081  1.00  0.00    -0.099 NA 
BRANCH  20  24
HETATM   24  C   UNL     1      -6.561   4.142  70.580  1.00  0.00    -0.032 A  
HETATM   25  C   UNL     1      -5.654   2.311  69.245  1.00  0.00    -0.018 A  
HETATM   26  C   UNL     1      -5.248   1.652  70.401  1.00  0.00    -0.004 A  
HETATM   27  C   UNL     1      -5.479   2.238  71.646  1.00  0.00    -0.008 A  
HETATM   28  C   UNL     1      -6.302   3.546  69.335  1.00  0.00    -0.029 A  
HETATM   29  C   UNL     1      -6.127   3.479  71.736  1.00  0.00    -0.014 A  
ENDBRANCH  20  24
ENDBRANCH  16  18
ENDBRANCH  13  16
BRANCH  15  30
HETATM   30  C   UNL     1     -10.734  10.398  68.339  1.00  0.00    -0.225 C  
HETATM   31  H2  UNL     1     -12.366  11.397  69.195  1.00  0.00     0.000 HD 
HETATM   32  N   UNL     1     -12.124  10.931  68.321  1.00  0.00    -0.810 NA 
HETATM   33  H1  UNL     1     -12.251  11.542  67.514  1.00  0.00     0.000 HD 
BRANCH  30  34
HETATM   34  C   UNL     1      -9.809  11.634  68.271  1.00  0.00    -0.199 C  
BRANCH  34  35
HETATM   35  C   UNL     1     -10.175  12.785  67.352  1.00  0.00    -0.222 A  
HETATM   36  C   UNL     1     -10.968  14.156  69.388  1.00  0.00    -0.216 C  
HETATM   37  C   UNL     1     -10.422  13.785  65.135  1.00  0.00    -0.399 A  
HETATM   38  C   UNL     1      -9.729  11.421  65.188  1.00  0.00    -0.280 C  
HETATM   39  C   UNL     1     -10.707  13.977  67.911  1.00  0.00    -0.246 A  
HETATM   40  C   UNL     1     -10.102  12.673  65.941  1.00  0.00    -0.276 A  
HETATM   41  C   UNL     1     -10.860  14.982  65.692  1.00  0.00    -0.356 A  
HETATM   42  C   UNL     1     -11.018  15.062  67.077  1.00  0.00    -0.318 A  
BRANCH  41  43
HETATM   43  C   UNL     1     -11.216  16.183  64.886  1.00  0.00    -0.285 C  
HETATM   44  H2  UNL     1     -10.089  17.484  66.053  1.00  0.00     0.000 HD 
HETATM   45  H1  UNL     1     -10.949  18.222  64.692  1.00  0.00     0.000 HD 
HETATM   46  N   UNL     1     -10.705  17.400  65.244  1.00  0.00    -0.134 N  
HETATM   47  O   UNL     1     -11.956  16.105  63.910  1.00  0.00    -0.947 OA 
ENDBRANCH  41  43
ENDBRANCH  34  35
ENDBRANCH  30  34
ENDBRANCH  15  30
ENDBRANCH  12  13
ENDBRANCH   6  12
ENDBRANCH   2   3
TORSDOF 10
ENDMDL
MODEL      142
REMARK 921   NORMALIZED FREE ENERGY PREDICTED BY IDOCK:   -4.26 KCAL/MOL
REMARK 922        TOTAL FREE ENERGY PREDICTED BY IDOCK:   -9.63 KCAL/MOL
REMARK 923 INTER-LIGAND FREE ENERGY PREDICTED BY IDOCK:   -7.98 KCAL/MOL
REMARK 924 INTRA-LIGAND FREE ENERGY PREDICTED BY IDOCK:   -1.65 KCAL/MOL
REMARK 927      BINDING AFFINITY PREDICTED BY RF-SCORE:    0.00 PKD
ROOT
HETATM    1  C   UNL     1      -8.354   6.676  62.552  1.00  0.00     0.037 C  
HETATM    2  O   UNL     1      -7.849   6.708  63.888  1.00  0.00    -0.114 OA 
ENDROOT
BRANCH   2   3
HETATM    3  C   UNL     1      -8.031   7.871  64.594  1.00  0.00    -0.143 A  
HETATM    4  C   UNL     1      -9.002   8.826  64.280  1.00  0.00     0.180 A  
HETATM    5  C   UNL     1      -9.200   9.941  65.100  1.00  0.00    -0.288 A  
HETATM    6  C   UNL     1      -8.413  10.156  66.235  1.00  0.00    -0.132 A  
HETATM    7  C   UNL     1      -7.397   9.229  66.516  1.00  0.00    -0.092 A  
HETATM    8  C   UNL     1      -6.109   7.169  66.120  1.00  0.00    -0.036 C  
HETATM    9  O   UNL     1      -6.313   5.871  65.816  1.00  0.00    -0.039 OA 
HETATM   10  C   UNL     1      -7.210   8.087  65.714  1.00  0.00    -0.071 A  
HETATM   11  O   UNL     1      -5.132   7.557  66.742  1.00  0.00    -0.022 OA 
BRANCH   6  12
HETATM   12  C   UNL     1      -8.652  11.324  67.173  1.00  0.00    -0.147 C  
BRANCH  12  13
HETATM   13  N   UNL     1     -10.011  11.893  67.160  1.00  0.00    -0.193 N  
HETATM   14  O   UNL     1     -12.212  11.839  67.877  1.00  0.00    -0.538 OA 
HETATM   15  C   UNL     1     -11.045  11.450  68.020  1.00  0.00    -0.257 C  
BRANCH  13  16
HETATM   16  C   UNL     1     -10.391  12.727  65.990  1.00  0.00    -0.276 C  
HETATM   17  C   UNL     1     -11.819  12.472  65.472  1.00  0.00    -0.491 C  
BRANCH  16  18
HETATM   18  C   UNL     1     -10.271  14.204  66.303  1.00  0.00    -0.295 A  
HETATM   19  C   UNL     1     -10.730  16.100  67.367  1.00  0.00    -0.291 A  
HETATM   20  C   UNL     1      -9.431  16.104  66.906  1.00  0.00    -0.230 A  
HETATM   21  N   UNL     1      -9.182  14.944  66.209  1.00  0.00    -0.402 NA 
HETATM   22  H   UNL     1      -8.322  14.702  65.717  1.00  0.00     0.000 HD 
HETATM   23  N   UNL     1     -11.262  14.904  66.950  1.00  0.00    -0.342 NA 
BRANCH  20  24
HETATM   24  C   UNL     1      -8.397  17.095  67.172  1.00  0.00    -0.216 A  
HETATM   25  C   UNL     1      -6.502  18.392  66.344  1.00  0.00    -0.235 A  
HETATM   26  C   UNL     1      -6.273  18.897  67.620  1.00  0.00    -0.206 A  
HETATM   27  C   UNL     1      -7.109  18.519  68.671  1.00  0.00    -0.298 A  
HETATM   28  C   UNL     1      -7.555  17.502  66.123  1.00  0.00    -0.320 A  
HETATM   29  C   UNL     1      -8.169  17.628  68.449  1.00  0.00    -0.289 A  
ENDBRANCH  20  24
ENDBRANCH  16  18
ENDBRANCH  13  16
BRANCH  15  30
HETATM   30  C   UNL     1     -10.660  10.470  69.191  1.00  0.00    -0.229 C  
HETATM   31  H2  UNL     1     -12.332  10.988  70.344  1.00  0.00     0.000 HD 
HETATM   32  N   UNL     1     -11.322  10.900  70.453  1.00  0.00    -0.446 NA 
HETATM   33  H1  UNL     1     -11.072  10.265  71.211  1.00  0.00     0.000 HD 
BRANCH  30  34
HETATM   34  C   UNL     1     -11.054   8.989  68.993  1.00  0.00     0.104 C  
BRANCH  34  35
HETATM   35  C   UNL     1      -9.970   7.928  68.985  1.00  0.00    -0.188 A  
HETATM   36  C   UNL     1      -8.639   9.276  70.736  1.00  0.00    -0.254 C  
HETATM   37  C   UNL     1      -8.976   5.861  68.139  1.00  0.00    -0.115 A  
HETATM   38  C   UNL     1     -11.021   6.628  66.999  1.00  0.00    -0.463 C  
HETATM   39  C   UNL     1      -8.842   8.080  69.836  1.00  0.00    -0.144 A  
HETATM   40  C   UNL     1      -9.991   6.837  68.081  1.00  0.00    -0.161 A  
HETATM   41  C   UNL     1      -7.918   5.969  69.035  1.00  0.00    -0.104 A  
HETATM   42  C   UNL     1      -7.848   7.090  69.865  1.00  0.00    -0.114 A  
BRANCH  41  43
HETATM   43  C   UNL     1      -6.818   4.969  69.134  1.00  0.00    -0.054 C  
HETATM   44  H2  UNL     1      -7.949   3.423  68.323  1.00  0.00     0.000 HD 
HETATM   45  H1  UNL     1      -6.288   3.005  68.773  1.00  0.00     0.000 HD 
HETATM   46  N   UNL     1      -7.041   3.689  68.706  1.00  0.00    -0.050 N  
HETATM   47  O   UNL     1      -5.718   5.266  69.590  1.00  0.00    -0.014 OA 
ENDBRANCH  41  43
ENDBRANCH  34  35
ENDBRANCH  30  34
ENDBRANCH  15  30
ENDBRANCH  12  13
ENDBRANCH   6  12
ENDBRANCH   2   3
TORSDOF 10
ENDMDL
MODEL      143
REMARK 921   NORMALIZED FREE ENERGY PREDICTED BY IDOCK:   -4.26 KCAL/MOL
REMARK 922        TOTAL FREE ENERGY PREDICTED BY IDOCK:   -9.62 KCAL/MOL
REMARK 923 INTER-LIGAND FREE ENERGY PREDICTED BY IDOCK:  -10.19 KCAL/MOL
REMARK 924 INTRA-LIGAND FREE ENERGY PREDICTED BY IDOCK:    0.57 KCAL/MOL
REMARK 927      BINDING AFFINITY PREDICTED BY RF-SCORE:    0.00 PKD
ROOT
HETATM    1  C   UNL     1     -10.550   7.695  73.135  1.00  0.00    -0.379 C  
HETATM    2  O   UNL     1     -11.689   8.131  72.391  1.00  0.00    -0.353 OA 
ENDROOT
BRANCH   2   3
HETATM    3  C   UNL     1     -11.447   8.774  71.202  1.00  0.00    -0.286 A  
HETATM    4  C   UNL     1     -10.541   8.316  70.242  1.00  0.00    -0.230 A  
HETATM    5  C   UNL     1     -10.415   8.965  69.009  1.00  0.00    -0.231 A  
HETATM    6  C   UNL     1     -11.161  10.109  68.712  1.00  0.00    -0.250 A  
HETATM    7  C   UNL     1     -12.026  10.605  69.700  1.00  0.00    -0.340 A  
HETATM    8  C   UNL     1     -13.139  10.556  71.896  1.00  0.00    -0.462 C  
HETATM    9  O   UNL     1     -13.755   9.681  72.716  1.00  0.00    -0.228 OA 
HETATM   10  C   UNL     1     -12.182   9.942  70.933  1.00  0.00    -0.420 A  
HETATM   11  O   UNL     1     -13.393  11.750  71.890  1.00  0.00    -0.448 OA 
BRANCH   6  12
HETATM   12  C   UNL     1     -11.087  10.791  67.360  1.00  0.00    -0.296 C  
BRANCH  12  13
HETATM   13  N   UNL     1     -10.319  12.048  67.313  1.00  0.00    -0.210 N  
HETATM   14  O   UNL     1      -8.284  13.149  67.248  1.00  0.00    -0.182 OA 
HETATM   15  C   UNL     1      -8.916  12.091  67.127  1.00  0.00    -0.185 C  
BRANCH  13  16
HETATM   16  C   UNL     1     -10.993  13.279  67.801  1.00  0.00    -0.258 C  
HETATM   17  C   UNL     1     -10.712  13.607  69.279  1.00  0.00    -0.060 C  
BRANCH  16  18
HETATM   18  C   UNL     1     -10.598  14.487  66.977  1.00  0.00    -0.278 A  
HETATM   19  C   UNL     1     -10.759  15.957  65.318  1.00  0.00    -0.424 A  
HETATM   20  C   UNL     1     -10.175  16.536  66.425  1.00  0.00    -0.316 A  
HETATM   21  N   UNL     1     -10.041  15.598  67.423  1.00  0.00    -0.247 NA 
HETATM   22  H   UNL     1      -9.598  15.735  68.331  1.00  0.00     0.000 HD 
HETATM   23  N   UNL     1     -10.992  14.650  65.670  1.00  0.00    -0.322 NA 
BRANCH  20  24
HETATM   24  C   UNL     1      -9.833  17.939  66.618  1.00  0.00    -0.342 A  
HETATM   25  C   UNL     1      -8.437  19.600  67.735  1.00  0.00    -0.358 A  
HETATM   26  C   UNL     1      -9.185  20.628  67.169  1.00  0.00    -0.429 A  
HETATM   27  C   UNL     1     -10.245  20.320  66.315  1.00  0.00    -0.447 A  
HETATM   28  C   UNL     1      -8.758  18.269  67.459  1.00  0.00    -0.256 A  
HETATM   29  C   UNL     1     -10.565  18.984  66.036  1.00  0.00    -0.499 A  
ENDBRANCH  20  24
ENDBRANCH  16  18
ENDBRANCH  13  16
BRANCH  15  30
HETATM   30  C   UNL     1      -8.184  10.756  66.724  1.00  0.00    -0.135 C  
HETATM   31  H2  UNL     1      -8.638   9.812  68.540  1.00  0.00     0.000 HD 
HETATM   32  N   UNL     1      -7.827   9.984  67.946  1.00  0.00    -0.090 NA 
HETATM   33  H1  UNL     1      -7.354   9.120  67.685  1.00  0.00     0.000 HD 
BRANCH  30  34
HETATM   34  C   UNL     1      -8.990   9.784  65.833  1.00  0.00    -0.189 C  
BRANCH  34  35
HETATM   35  C   UNL     1      -8.292   8.578  65.234  1.00  0.00    -0.168 A  
HETATM   36  C   UNL     1      -9.643   7.025  66.789  1.00  0.00    -0.221 C  
HETATM   37  C   UNL     1      -6.642   7.553  63.750  1.00  0.00    -0.053 A  
HETATM   38  C   UNL     1      -6.633  10.015  63.847  1.00  0.00    -0.130 C  
HETATM   39  C   UNL     1      -8.634   7.278  65.693  1.00  0.00    -0.123 A  
HETATM   40  C   UNL     1      -7.232   8.708  64.301  1.00  0.00    -0.094 A  
HETATM   41  C   UNL     1      -7.041   6.278  64.139  1.00  0.00    -0.057 A  
HETATM   42  C   UNL     1      -8.022   6.151  65.124  1.00  0.00    -0.117 A  
BRANCH  41  43
HETATM   43  C   UNL     1      -6.446   5.027  63.592  1.00  0.00    -0.026 C  
HETATM   44  H2  UNL     1      -4.740   5.142  64.777  1.00  0.00     0.000 HD 
HETATM   45  H1  UNL     1      -4.825   3.750  63.686  1.00  0.00     0.000 HD 
HETATM   46  N   UNL     1      -5.232   4.606  64.060  1.00  0.00    -0.009 N  
HETATM   47  O   UNL     1      -7.018   4.367  62.730  1.00  0.00    -0.037 OA 
ENDBRANCH  41  43
ENDBRANCH  34  35
ENDBRANCH  30  34
ENDBRANCH  15  30
ENDBRANCH  12  13
ENDBRANCH   6  12
ENDBRANCH   2   3
TORSDOF 10
ENDMDL
MODEL      144
REMARK 921   NORMALIZED FREE ENERGY PREDICTED BY IDOCK:   -4.25 KCAL/MOL
REMARK 922        TOTAL FREE ENERGY PREDICTED BY IDOCK:   -9.61 KCAL/MOL
REMARK 923 INTER-LIGAND FREE ENERGY PREDICTED BY IDOCK:   -9.35 KCAL/MOL
REMARK 924 INTRA-LIGAND FREE ENERGY PREDICTED BY IDOCK:   -0.26 KCAL/MOL
REMARK 927      BINDING AFFINITY PREDICTED BY RF-SCORE:    0.00 PKD
ROOT
HETATM    1  C   UNL     1      -7.560   7.313  62.747  1.00  0.00    -0.111 C  
HETATM    2  O   UNL     1      -7.809   6.937  64.102  1.00  0.00    -0.109 OA 
ENDROOT
BRANCH   2   3
HETATM    3  C   UNL     1      -7.910   7.952  65.021  1.00  0.00    -0.120 A  
HETATM    4  C   UNL     1      -8.748   9.060  64.865  1.00  0.00    -0.200 A  
HETATM    5  C   UNL     1      -8.878  10.009  65.884  1.00  0.00    -0.164 A  
HETATM    6  C   UNL     1      -8.150   9.901  67.073  1.00  0.00    -0.110 A  
HETATM    7  C   UNL     1      -7.262   8.821  67.204  1.00  0.00    -0.080 A  
HETATM    8  C   UNL     1      -6.181   6.739  66.456  1.00  0.00    -0.044 C  
HETATM    9  O   UNL     1      -6.505   5.561  65.886  1.00  0.00    -0.038 OA 
HETATM   10  C   UNL     1      -7.147   7.845  66.196  1.00  0.00    -0.062 A  
HETATM   11  O   UNL     1      -5.212   6.878  67.186  1.00  0.00    -0.011 OA 
BRANCH   6  12
HETATM   12  C   UNL     1      -8.322  10.881  68.216  1.00  0.00    -0.129 C  
BRANCH  12  13
HETATM   13  N   UNL     1      -9.686  11.403  68.417  1.00  0.00    -0.198 N  
HETATM   14  O   UNL     1     -11.799  11.183  69.338  1.00  0.00    -0.291 OA 
HETATM   15  C   UNL     1     -10.617  10.816  69.309  1.00  0.00    -0.229 C  
BRANCH  13  16
HETATM   16  C   UNL     1     -10.201  12.373  67.415  1.00  0.00    -0.208 C  
HETATM   17  C   UNL     1     -11.191  11.766  66.404  1.00  0.00    -0.382 C  
BRANCH  16  18
HETATM   18  C   UNL     1     -10.887  13.546  68.085  1.00  0.00    -0.254 A  
HETATM   19  C   UNL     1     -12.459  15.089  68.368  1.00  0.00     0.375 A  
HETATM   20  C   UNL     1     -11.894  14.745  69.578  1.00  0.00    -0.326 A  
HETATM   21  N   UNL     1     -10.891  13.824  69.376  1.00  0.00    -0.436 NA 
HETATM   22  H   UNL     1     -10.272  13.433  70.085  1.00  0.00     0.000 HD 
HETATM   23  N   UNL     1     -11.790  14.346  67.427  1.00  0.00    -0.399 NA 
BRANCH  20  24
HETATM   24  C   UNL     1     -12.316  15.164  70.908  1.00  0.00    -0.412 A  
HETATM   25  C   UNL     1     -14.143  15.568  72.476  1.00  0.00    -0.595 A  
HETATM   26  C   UNL     1     -13.248  16.089  73.405  1.00  0.00    -0.645 A  
HETATM   27  C   UNL     1     -11.887  16.135  73.100  1.00  0.00    -0.476 A  
HETATM   28  C   UNL     1     -13.680  15.108  71.240  1.00  0.00    -0.555 A  
HETATM   29  C   UNL     1     -11.421  15.670  71.861  1.00  0.00    -0.501 A  
ENDBRANCH  20  24
ENDBRANCH  16  18
ENDBRANCH  13  16
BRANCH  15  30
HETATM   30  C   UNL     1     -10.093   9.702  70.291  1.00  0.00    -0.275 C  
HETATM   31  H2  UNL     1     -11.914   9.577  71.321  1.00  0.00     0.000 HD 
HETATM   32  N   UNL     1     -10.922   9.685  71.527  1.00  0.00    -0.301 NA 
HETATM   33  H1  UNL     1     -10.582   8.963  72.163  1.00  0.00     0.000 HD 
BRANCH  30  34
HETATM   34  C   UNL     1     -10.117   8.255  69.749  1.00  0.00    -0.197 C  
BRANCH  34  35
HETATM   35  C   UNL     1      -9.872   7.102  70.704  1.00  0.00    -0.184 A  
HETATM   36  C   UNL     1      -7.349   7.203  70.181  1.00  0.00    -0.080 C  
HETATM   37  C   UNL     1     -10.652   5.362  72.234  1.00  0.00    -0.280 A  
HETATM   38  C   UNL     1     -12.402   6.659  71.083  1.00  0.00    -0.310 C  
HETATM   39  C   UNL     1      -8.546   6.634  70.904  1.00  0.00    -0.134 A  
HETATM   40  C   UNL     1     -10.936   6.404  71.328  1.00  0.00    -0.321 A  
HETATM   41  C   UNL     1      -9.345   4.964  72.493  1.00  0.00    -0.155 A  
HETATM   42  C   UNL     1      -8.301   5.591  71.810  1.00  0.00    -0.120 A  
BRANCH  41  43
HETATM   43  C   UNL     1      -8.991   3.866  73.436  1.00  0.00    -0.099 C  
HETATM   44  H2  UNL     1     -10.909   3.062  73.455  1.00  0.00     0.000 HD 
HETATM   45  H1  UNL     1      -9.716   2.224  74.460  1.00  0.00     0.000 HD 
HETATM   46  N   UNL     1      -9.958   2.976  73.814  1.00  0.00    -0.105 N  
HETATM   47  O   UNL     1      -7.855   3.743  73.882  1.00  0.00    -0.076 OA 
ENDBRANCH  41  43
ENDBRANCH  34  35
ENDBRANCH  30  34
ENDBRANCH  15  30
ENDBRANCH  12  13
ENDBRANCH   6  12
ENDBRANCH   2   3
TORSDOF 10
ENDMDL
MODEL      145
REMARK 921   NORMALIZED FREE ENERGY PREDICTED BY IDOCK:   -4.22 KCAL/MOL
REMARK 922        TOTAL FREE ENERGY PREDICTED BY IDOCK:   -9.56 KCAL/MOL
REMARK 923 INTER-LIGAND FREE ENERGY PREDICTED BY IDOCK:   -8.16 KCAL/MOL
REMARK 924 INTRA-LIGAND FREE ENERGY PREDICTED BY IDOCK:   -1.40 KCAL/MOL
REMARK 927      BINDING AFFINITY PREDICTED BY RF-SCORE:    0.00 PKD
ROOT
HETATM    1  C   UNL     1     -10.593   4.084  64.671  1.00  0.00    -0.168 C  
HETATM    2  O   UNL     1     -10.265   4.182  66.058  1.00  0.00    -0.188 OA 
ENDROOT
BRANCH   2   3
HETATM    3  C   UNL     1      -9.317   5.109  66.409  1.00  0.00    -0.146 A  
HETATM    4  C   UNL     1      -9.537   6.489  66.393  1.00  0.00    -0.151 A  
HETATM    5  C   UNL     1      -8.560   7.376  66.858  1.00  0.00    -0.120 A  
HETATM    6  C   UNL     1      -7.323   6.916  67.318  1.00  0.00    -0.091 A  
HETATM    7  C   UNL     1      -7.078   5.534  67.276  1.00  0.00    -0.074 A  
HETATM    8  C   UNL     1      -7.694   3.188  66.852  1.00  0.00    -0.076 C  
HETATM    9  O   UNL     1      -8.722   2.342  67.063  1.00  0.00    -0.108 OA 
HETATM   10  C   UNL     1      -8.066   4.631  66.838  1.00  0.00    -0.103 A  
HETATM   11  O   UNL     1      -6.537   2.812  66.749  1.00  0.00    -0.035 OA 
BRANCH   6  12
HETATM   12  C   UNL     1      -6.274   7.852  67.885  1.00  0.00    -0.050 C  
BRANCH  12  13
HETATM   13  N   UNL     1      -6.577   8.435  69.204  1.00  0.00    -0.046 N  
HETATM   14  O   UNL     1      -6.697  10.279  70.599  1.00  0.00    -0.287 OA 
HETATM   15  C   UNL     1      -6.592   9.830  69.450  1.00  0.00    -0.049 C  
BRANCH  13  16
HETATM   16  C   UNL     1      -6.544   7.524  70.378  1.00  0.00    -0.042 C  
HETATM   17  C   UNL     1      -5.346   7.753  71.319  1.00  0.00    -0.030 C  
BRANCH  16  18
HETATM   18  C   UNL     1      -7.808   7.641  71.203  1.00  0.00    -0.090 A  
HETATM   19  C   UNL     1      -9.023   8.087  73.009  1.00  0.00    -0.248 A  
HETATM   20  C   UNL     1      -9.766   8.282  71.865  1.00  0.00    -0.232 A  
HETATM   21  N   UNL     1      -9.012   7.954  70.761  1.00  0.00    -0.139 NA 
HETATM   22  H   UNL     1      -9.323   7.953  69.789  1.00  0.00     0.000 HD 
HETATM   23  N   UNL     1      -7.794   7.650  72.578  1.00  0.00    -0.095 NA 
BRANCH  20  24
HETATM   24  C   UNL     1     -11.104   8.848  71.759  1.00  0.00    -0.433 A  
HETATM   25  C   UNL     1     -12.528  10.683  71.008  1.00  0.00    -0.515 A  
HETATM   26  C   UNL     1     -13.630  10.098  71.625  1.00  0.00    -0.275 A  
HETATM   27  C   UNL     1     -13.480   8.883  72.295  1.00  0.00    -0.503 A  
HETATM   28  C   UNL     1     -11.279  10.062  71.074  1.00  0.00    -0.387 A  
HETATM   29  C   UNL     1     -12.226   8.257  72.357  1.00  0.00    -0.412 A  
ENDBRANCH  20  24
ENDBRANCH  16  18
ENDBRANCH  13  16
BRANCH  15  30
HETATM   30  C   UNL     1      -6.508  10.797  68.210  1.00  0.00    -0.058 C  
HETATM   31  H2  UNL     1      -5.688   9.328  66.960  1.00  0.00     0.000 HD 
HETATM   32  N   UNL     1      -5.501  10.291  67.238  1.00  0.00    -0.041 NA 
HETATM   33  H1  UNL     1      -5.447  10.918  66.436  1.00  0.00     0.000 HD 
BRANCH  30  34
HETATM   34  C   UNL     1      -7.814  10.982  67.405  1.00  0.00    -0.118 C  
BRANCH  34  35
HETATM   35  C   UNL     1      -8.828  12.013  67.863  1.00  0.00    -0.174 A  
HETATM   36  C   UNL     1     -10.718  10.282  67.575  1.00  0.00    -0.348 C  
HETATM   37  C   UNL     1      -9.445  14.272  68.565  1.00  0.00    -0.206 A  
HETATM   38  C   UNL     1      -7.098  13.949  67.889  1.00  0.00    -0.168 C  
HETATM   39  C   UNL     1     -10.198  11.649  67.952  1.00  0.00    -0.203 A  
HETATM   40  C   UNL     1      -8.470  13.362  68.108  1.00  0.00    -0.172 A  
HETATM   41  C   UNL     1     -10.771  13.888  68.735  1.00  0.00    -0.278 A  
HETATM   42  C   UNL     1     -11.142  12.582  68.407  1.00  0.00    -0.293 A  
BRANCH  41  43
HETATM   43  C   UNL     1     -11.840  14.811  69.209  1.00  0.00    -0.318 C  
HETATM   44  H2  UNL     1     -12.522  13.505  70.678  1.00  0.00     0.000 HD 
HETATM   45  H1  UNL     1     -13.381  15.050  70.564  1.00  0.00     0.000 HD 
HETATM   46  N   UNL     1     -12.649  14.418  70.239  1.00  0.00    -0.348 N  
HETATM   47  O   UNL     1     -12.012  15.913  68.697  1.00  0.00    -0.338 OA 
ENDBRANCH  41  43
ENDBRANCH  34  35
ENDBRANCH  30  34
ENDBRANCH  15  30
ENDBRANCH  12  13
ENDBRANCH   6  12
ENDBRANCH   2   3
TORSDOF 10
ENDMDL
MODEL      146
REMARK 921   NORMALIZED FREE ENERGY PREDICTED BY IDOCK:   -4.21 KCAL/MOL
REMARK 922        TOTAL FREE ENERGY PREDICTED BY IDOCK:   -9.54 KCAL/MOL
REMARK 923 INTER-LIGAND FREE ENERGY PREDICTED BY IDOCK:   -8.31 KCAL/MOL
REMARK 924 INTRA-LIGAND FREE ENERGY PREDICTED BY IDOCK:   -1.23 KCAL/MOL
REMARK 927      BINDING AFFINITY PREDICTED BY RF-SCORE:    0.00 PKD
ROOT
HETATM    1  C   UNL     1      -8.825  10.174  63.661  1.00  0.00    -0.226 C  
HETATM    2  O   UNL     1      -8.127   8.952  63.902  1.00  0.00    -0.147 OA 
ENDROOT
BRANCH   2   3
HETATM    3  C   UNL     1      -7.932   8.594  65.212  1.00  0.00    -0.114 A  
HETATM    4  C   UNL     1      -8.086   9.472  66.289  1.00  0.00    -0.111 A  
HETATM    5  C   UNL     1      -7.969   9.017  67.606  1.00  0.00    -0.101 A  
HETATM    6  C   UNL     1      -7.659   7.684  67.889  1.00  0.00    -0.117 A  
HETATM    7  C   UNL     1      -7.443   6.816  66.807  1.00  0.00    -0.082 A  
HETATM    8  C   UNL     1      -7.347   6.240  64.415  1.00  0.00    -0.074 C  
HETATM    9  O   UNL     1      -8.058   6.424  63.284  1.00  0.00    -0.107 OA 
HETATM   10  C   UNL     1      -7.588   7.256  65.477  1.00  0.00    -0.097 A  
HETATM   11  O   UNL     1      -6.614   5.278  64.587  1.00  0.00    -0.041 OA 
BRANCH   6  12
HETATM   12  C   UNL     1      -7.590   7.155  69.308  1.00  0.00    -0.102 C  
BRANCH  12  13
HETATM   13  N   UNL     1      -7.918   8.121  70.372  1.00  0.00    -0.096 N  
HETATM   14  O   UNL     1      -9.434   9.549  71.382  1.00  0.00    -0.224 OA 
HETATM   15  C   UNL     1      -9.223   8.626  70.585  1.00  0.00    -0.174 C  
BRANCH  13  16
HETATM   16  C   UNL     1      -6.785   8.828  71.025  1.00  0.00    -0.070 C  
HETATM   17  C   UNL     1      -5.501   7.987  71.140  1.00  0.00    -0.033 C  
BRANCH  16  18
HETATM   18  C   UNL     1      -6.436  10.106  70.290  1.00  0.00    -0.128 A  
HETATM   19  C   UNL     1      -5.376  11.369  68.801  1.00  0.00    -0.043 A  
HETATM   20  C   UNL     1      -6.629  11.878  69.064  1.00  0.00    -0.091 A  
HETATM   21  N   UNL     1      -7.250  11.110  70.023  1.00  0.00    -0.421 NA 
HETATM   22  H   UNL     1      -8.162  11.283  70.445  1.00  0.00     0.000 HD 
HETATM   23  N   UNL     1      -5.252  10.265  69.608  1.00  0.00    -0.038 NA 
BRANCH  20  24
HETATM   24  C   UNL     1      -7.300  12.983  68.392  1.00  0.00    -0.116 A  
HETATM   25  C   UNL     1      -9.377  13.939  67.536  1.00  0.00    -0.217 A  
HETATM   26  C   UNL     1      -8.672  15.000  66.976  1.00  0.00    -0.262 A  
HETATM   27  C   UNL     1      -7.287  15.069  67.134  1.00  0.00    -0.104 A  
HETATM   28  C   UNL     1      -8.696  12.942  68.238  1.00  0.00    -0.168 A  
HETATM   29  C   UNL     1      -6.604  14.069  67.842  1.00  0.00    -0.173 A  
ENDBRANCH  20  24
ENDBRANCH  16  18
ENDBRANCH  13  16
BRANCH  15  30
HETATM   30  C   UNL     1     -10.410   7.951  69.800  1.00  0.00    -0.219 C  
HETATM   31  H2  UNL     1     -10.365   6.214  70.972  1.00  0.00     0.000 HD 
HETATM   32  N   UNL     1     -10.369   6.475  69.986  1.00  0.00    -0.190 NA 
HETATM   33  H1  UNL     1     -11.138   6.039  69.478  1.00  0.00     0.000 HD 
BRANCH  30  34
HETATM   34  C   UNL     1     -11.833   8.388  70.216  1.00  0.00     0.198 C  
BRANCH  34  35
HETATM   35  C   UNL     1     -12.109   9.856  70.481  1.00  0.00    -0.289 A  
HETATM   36  C   UNL     1     -13.334   9.231  72.664  1.00  0.00    -0.352 C  
HETATM   37  C   UNL     1     -12.032  12.217  69.851  1.00  0.00    -0.380 A  
HETATM   38  C   UNL     1     -11.204  10.618  68.171  1.00  0.00    -0.366 C  
HETATM   39  C   UNL     1     -12.808  10.230  71.660  1.00  0.00    -0.568 A  
HETATM   40  C   UNL     1     -11.784  10.865  69.540  1.00  0.00    -0.400 A  
HETATM   41  C   UNL     1     -12.639  12.586  71.048  1.00  0.00    -0.350 A  
HETATM   42  C   UNL     1     -13.041  11.586  71.935  1.00  0.00    -0.492 A  
BRANCH  41  43
HETATM   43  C   UNL     1     -12.927  13.998  71.422  1.00  0.00    -0.353 C  
HETATM   44  H2  UNL     1     -13.362  13.541  73.404  1.00  0.00     0.000 HD 
HETATM   45  H1  UNL     1     -13.488  15.252  72.965  1.00  0.00     0.000 HD 
HETATM   46  N   UNL     1     -13.290  14.285  72.709  1.00  0.00    -0.524 N  
HETATM   47  O   UNL     1     -12.848  14.909  70.604  1.00  0.00    -0.351 OA 
ENDBRANCH  41  43
ENDBRANCH  34  35
ENDBRANCH  30  34
ENDBRANCH  15  30
ENDBRANCH  12  13
ENDBRANCH   6  12
ENDBRANCH   2   3
TORSDOF 10
ENDMDL
MODEL      147
REMARK 921   NORMALIZED FREE ENERGY PREDICTED BY IDOCK:   -4.21 KCAL/MOL
REMARK 922        TOTAL FREE ENERGY PREDICTED BY IDOCK:   -9.54 KCAL/MOL
REMARK 923 INTER-LIGAND FREE ENERGY PREDICTED BY IDOCK:  -10.40 KCAL/MOL
REMARK 924 INTRA-LIGAND FREE ENERGY PREDICTED BY IDOCK:    0.86 KCAL/MOL
REMARK 927      BINDING AFFINITY PREDICTED BY RF-SCORE:    0.00 PKD
ROOT
HETATM    1  C   UNL     1      -7.124   5.341  64.879  1.00  0.00    -0.058 C  
HETATM    2  O   UNL     1      -8.400   5.816  65.310  1.00  0.00    -0.137 OA 
ENDROOT
BRANCH   2   3
HETATM    3  C   UNL     1      -8.526   7.168  65.510  1.00  0.00    -0.107 A  
HETATM    4  C   UNL     1      -7.640   8.116  64.990  1.00  0.00    -0.096 A  
HETATM    5  C   UNL     1      -7.881   9.484  65.148  1.00  0.00    -0.113 A  
HETATM    6  C   UNL     1      -8.992   9.948  65.859  1.00  0.00    -0.183 A  
HETATM    7  C   UNL     1      -9.849   8.996  66.433  1.00  0.00    -0.356 A  
HETATM    8  C   UNL     1     -10.616   6.703  66.901  1.00  0.00    -0.306 C  
HETATM    9  O   UNL     1     -10.808   5.533  66.259  1.00  0.00    -0.232 OA 
HETATM   10  C   UNL     1      -9.631   7.616  66.255  1.00  0.00    -0.155 A  
HETATM   11  O   UNL     1     -11.248   7.024  67.895  1.00  0.00    -0.100 OA 
BRANCH   6  12
HETATM   12  C   UNL     1      -9.308  11.425  65.988  1.00  0.00    -0.217 C  
BRANCH  12  13
HETATM   13  N   UNL     1      -8.808  12.086  67.207  1.00  0.00    -0.175 N  
HETATM   14  O   UNL     1      -8.105  14.001  68.301  1.00  0.00    -0.132 OA 
HETATM   15  C   UNL     1      -8.672  13.490  67.326  1.00  0.00    -0.225 C  
BRANCH  13  16
HETATM   16  C   UNL     1      -8.122  11.234  68.214  1.00  0.00    -0.137 C  
HETATM   17  C   UNL     1      -6.926  11.915  68.905  1.00  0.00    -0.110 C  
BRANCH  16  18
HETATM   18  C   UNL     1      -9.081  10.778  69.294  1.00  0.00    -0.037 A  
HETATM   19  C   UNL     1     -11.062  10.427  70.238  1.00  0.00    -0.307 A  
HETATM   20  C   UNL     1     -10.144   9.498  70.678  1.00  0.00    -0.286 A  
HETATM   21  N   UNL     1      -8.913   9.762  70.120  1.00  0.00    -0.307 NA 
HETATM   22  H   UNL     1      -8.041   9.267  70.307  1.00  0.00     0.000 HD 
HETATM   23  N   UNL     1     -10.369  11.252  69.387  1.00  0.00    -0.080 NA 
BRANCH  20  24
HETATM   24  C   UNL     1     -10.391   8.330  71.512  1.00  0.00    -0.276 A  
HETATM   25  C   UNL     1     -11.327   6.085  71.717  1.00  0.00    -0.324 A  
HETATM   26  C   UNL     1     -11.043   6.076  73.079  1.00  0.00    -0.271 A  
HETATM   27  C   UNL     1     -10.418   7.181  73.660  1.00  0.00    -0.412 A  
HETATM   28  C   UNL     1     -11.002   7.201  70.942  1.00  0.00    -0.276 A  
HETATM   29  C   UNL     1     -10.089   8.300  72.882  1.00  0.00    -0.285 A  
ENDBRANCH  20  24
ENDBRANCH  16  18
ENDBRANCH  13  16
BRANCH  15  30
HETATM   30  C   UNL     1      -9.298  14.389  66.195  1.00  0.00    -0.189 C  
HETATM   31  H2  UNL     1     -10.354  12.795  65.337  1.00  0.00     0.000 HD 
HETATM   32  N   UNL     1      -9.722  13.541  65.048  1.00  0.00    -0.567 NA 
HETATM   33  H1  UNL     1     -10.127  14.124  64.315  1.00  0.00     0.000 HD 
BRANCH  30  34
HETATM   34  C   UNL     1     -10.544  15.211  66.594  1.00  0.00    -0.304 C  
BRANCH  34  35
HETATM   35  C   UNL     1     -10.999  15.212  68.041  1.00  0.00    -0.295 A  
HETATM   36  C   UNL     1     -12.334  13.045  67.621  1.00  0.00     0.114 C  
HETATM   37  C   UNL     1     -11.123  16.217  70.266  1.00  0.00    -0.375 A  
HETATM   38  C   UNL     1      -9.984  17.549  68.535  1.00  0.00    -0.344 C  
HETATM   39  C   UNL     1     -11.834  14.161  68.507  1.00  0.00    -0.390 A  
HETATM   40  C   UNL     1     -10.705  16.283  68.922  1.00  0.00    -0.300 A  
HETATM   41  C   UNL     1     -11.868  15.142  70.741  1.00  0.00    -0.371 A  
HETATM   42  C   UNL     1     -12.235  14.131  69.851  1.00  0.00    -0.416 A  
BRANCH  41  43
HETATM   43  C   UNL     1     -12.339  15.027  72.150  1.00  0.00    -0.355 C  
HETATM   44  H2  UNL     1     -11.292  16.704  72.795  1.00  0.00     0.000 HD 
HETATM   45  H1  UNL     1     -12.242  15.868  74.034  1.00  0.00     0.000 HD 
HETATM   46  N   UNL     1     -11.920  15.947  73.070  1.00  0.00    -0.480 N  
HETATM   47  O   UNL     1     -13.093  14.125  72.503  1.00  0.00    -0.420 OA 
ENDBRANCH  41  43
ENDBRANCH  34  35
ENDBRANCH  30  34
ENDBRANCH  15  30
ENDBRANCH  12  13
ENDBRANCH   6  12
ENDBRANCH   2   3
TORSDOF 10
ENDMDL
MODEL      148
REMARK 921   NORMALIZED FREE ENERGY PREDICTED BY IDOCK:   -4.20 KCAL/MOL
REMARK 922        TOTAL FREE ENERGY PREDICTED BY IDOCK:   -9.53 KCAL/MOL
REMARK 923 INTER-LIGAND FREE ENERGY PREDICTED BY IDOCK:   -9.53 KCAL/MOL
REMARK 924 INTRA-LIGAND FREE ENERGY PREDICTED BY IDOCK:   -0.00 KCAL/MOL
REMARK 927      BINDING AFFINITY PREDICTED BY RF-SCORE:    0.00 PKD
ROOT
HETATM    1  C   UNL     1      -5.412  11.301  70.594  1.00  0.00    -0.134 C  
HETATM    2  O   UNL     1      -6.317  10.568  69.767  1.00  0.00    -0.064 OA 
ENDROOT
BRANCH   2   3
HETATM    3  C   UNL     1      -7.108  11.295  68.913  1.00  0.00    -0.104 A  
HETATM    4  C   UNL     1      -7.619  12.561  69.215  1.00  0.00     0.363 A  
HETATM    5  C   UNL     1      -8.336  13.290  68.262  1.00  0.00    -0.154 A  
HETATM    6  C   UNL     1      -8.597  12.766  66.993  1.00  0.00    -0.177 A  
HETATM    7  C   UNL     1      -8.137  11.470  66.710  1.00  0.00    -0.158 A  
HETATM    8  C   UNL     1      -6.944   9.380  67.232  1.00  0.00    -0.085 C  
HETATM    9  O   UNL     1      -5.783   8.970  67.783  1.00  0.00    -0.038 OA 
HETATM   10  C   UNL     1      -7.388  10.739  67.652  1.00  0.00    -0.094 A  
HETATM   11  O   UNL     1      -7.551   8.724  66.401  1.00  0.00    -0.089 OA 
BRANCH   6  12
HETATM   12  C   UNL     1      -9.316  13.563  65.923  1.00  0.00     0.081 C  
BRANCH  12  13
HETATM   13  N   UNL     1     -10.786  13.598  66.025  1.00  0.00    -0.275 N  
HETATM   14  O   UNL     1     -12.747  14.800  66.288  1.00  0.00     0.074 OA 
HETATM   15  C   UNL     1     -11.533  14.801  66.046  1.00  0.00    -0.316 C  
BRANCH  13  16
HETATM   16  C   UNL     1     -11.472  12.348  66.446  1.00  0.00    -0.373 C  
HETATM   17  C   UNL     1     -10.679  11.063  66.142  1.00  0.00    -0.257 C  
BRANCH  16  18
HETATM   18  C   UNL     1     -11.780  12.360  67.929  1.00  0.00    -0.360 A  
HETATM   19  C   UNL     1     -11.429  11.935  70.081  1.00  0.00    -0.049 A  
HETATM   20  C   UNL     1     -12.175  13.084  69.929  1.00  0.00    -0.202 A  
HETATM   21  N   UNL     1     -12.422  13.304  68.593  1.00  0.00     0.058 NA 
HETATM   22  H   UNL     1     -12.990  14.050  68.193  1.00  0.00     0.000 HD 
HETATM   23  N   UNL     1     -11.212  11.468  68.808  1.00  0.00    -0.226 NA 
BRANCH  20  24
HETATM   24  C   UNL     1     -12.577  14.027  70.964  1.00  0.00    -0.437 A  
HETATM   25  C   UNL     1     -14.328  15.426  71.931  1.00  0.00    -0.649 A  
HETATM   26  C   UNL     1     -13.418  15.961  72.838  1.00  0.00    -0.637 A  
HETATM   27  C   UNL     1     -12.093  15.523  72.825  1.00  0.00    -0.551 A  
HETATM   28  C   UNL     1     -13.911  14.467  71.005  1.00  0.00    -0.187 A  
HETATM   29  C   UNL     1     -11.675  14.558  71.897  1.00  0.00    -0.036 A  
ENDBRANCH  20  24
ENDBRANCH  16  18
ENDBRANCH  13  16
BRANCH  15  30
HETATM   30  C   UNL     1     -10.778  16.142  65.715  1.00  0.00    -0.280 C  
HETATM   31  H2  UNL     1     -12.152  16.698  64.232  1.00  0.00     0.000 HD 
HETATM   32  N   UNL     1     -11.143  16.607  64.349  1.00  0.00    -1.251 NA 
HETATM   33  H1  UNL     1     -10.653  17.476  64.135  1.00  0.00     0.000 HD 
BRANCH  30  34
HETATM   34  C   UNL     1     -11.068  17.333  66.656  1.00  0.00     0.391 C  
BRANCH  34  35
HETATM   35  C   UNL     1      -9.910  18.039  67.336  1.00  0.00    -0.309 A  
HETATM   36  C   UNL     1     -10.074  19.959  65.622  1.00  0.00    -0.320 C  
HETATM   37  C   UNL     1      -8.136  18.154  69.014  1.00  0.00    -0.072 A  
HETATM   38  C   UNL     1      -9.407  16.046  68.922  1.00  0.00    -0.231 C  
HETATM   39  C   UNL     1      -9.470  19.294  66.835  1.00  0.00    -0.386 A  
HETATM   40  C   UNL     1      -9.181  17.440  68.394  1.00  0.00    -0.277 A  
HETATM   41  C   UNL     1      -7.764  19.421  68.576  1.00  0.00    -0.380 A  
HETATM   42  C   UNL     1      -8.423  19.974  67.475  1.00  0.00    -0.393 A  
BRANCH  41  43
HETATM   43  C   UNL     1      -6.665  20.215  69.192  1.00  0.00    -0.245 C  
HETATM   44  H2  UNL     1      -6.081  21.081  67.394  1.00  0.00     0.000 HD 
HETATM   45  H1  UNL     1      -5.147  21.566  68.818  1.00  0.00     0.000 HD 
HETATM   46  N   UNL     1      -5.900  21.023  68.396  1.00  0.00    -0.342 N  
HETATM   47  O   UNL     1      -6.428  20.160  70.395  1.00  0.00    -0.362 OA 
ENDBRANCH  41  43
ENDBRANCH  34  35
ENDBRANCH  30  34
ENDBRANCH  15  30
ENDBRANCH  12  13
ENDBRANCH   6  12
ENDBRANCH   2   3
TORSDOF 10
ENDMDL
MODEL      149
REMARK 921   NORMALIZED FREE ENERGY PREDICTED BY IDOCK:   -4.20 KCAL/MOL
REMARK 922        TOTAL FREE ENERGY PREDICTED BY IDOCK:   -9.53 KCAL/MOL
REMARK 923 INTER-LIGAND FREE ENERGY PREDICTED BY IDOCK:   -9.24 KCAL/MOL
REMARK 924 INTRA-LIGAND FREE ENERGY PREDICTED BY IDOCK:   -0.29 KCAL/MOL
REMARK 927      BINDING AFFINITY PREDICTED BY RF-SCORE:    0.00 PKD
ROOT
HETATM    1  C   UNL     1     -10.474  17.274  69.630  1.00  0.00     0.049 C  
HETATM    2  O   UNL     1      -9.721  16.064  69.536  1.00  0.00    -0.253 OA 
ENDROOT
BRANCH   2   3
HETATM    3  C   UNL     1     -10.303  15.019  68.864  1.00  0.00    -0.244 A  
HETATM    4  C   UNL     1     -11.662  14.961  68.545  1.00  0.00    -0.338 A  
HETATM    5  C   UNL     1     -12.173  13.914  67.772  1.00  0.00    -0.217 A  
HETATM    6  C   UNL     1     -11.352  12.874  67.326  1.00  0.00    -0.356 A  
HETATM    7  C   UNL     1      -9.999  12.899  67.699  1.00  0.00    -0.218 A  
HETATM    8  C   UNL     1      -8.016  13.887  68.774  1.00  0.00    -0.059 C  
HETATM    9  O   UNL     1      -7.399  15.079  68.892  1.00  0.00    -0.119 OA 
HETATM   10  C   UNL     1      -9.469  13.965  68.451  1.00  0.00    -0.211 A  
HETATM   11  O   UNL     1      -7.422  12.822  68.855  1.00  0.00    -0.078 OA 
BRANCH   6  12
HETATM   12  C   UNL     1     -11.870  11.763  66.434  1.00  0.00     0.087 C  
BRANCH  12  13
HETATM   13  N   UNL     1     -10.962  11.323  65.359  1.00  0.00    -0.187 N  
HETATM   14  O   UNL     1      -8.991  10.309  64.693  1.00  0.00    -0.178 OA 
HETATM   15  C   UNL     1      -9.814  10.529  65.592  1.00  0.00    -0.252 C  
BRANCH  13  16
HETATM   16  C   UNL     1     -11.079  12.006  64.045  1.00  0.00    -0.386 C  
HETATM   17  C   UNL     1     -12.303  11.572  63.216  1.00  0.00    -0.075 C  
BRANCH  16  18
HETATM   18  C   UNL     1     -11.144  13.511  64.209  1.00  0.00    -0.351 A  
HETATM   19  C   UNL     1     -12.097  15.467  64.657  1.00  0.00    -0.049 A  
HETATM   20  C   UNL     1     -10.750  15.506  64.948  1.00  0.00    -0.392 A  
HETATM   21  N   UNL     1     -10.170  14.302  64.619  1.00  0.00    -0.622 NA 
HETATM   22  H   UNL     1      -9.179  14.067  64.680  1.00  0.00     0.000 HD 
HETATM   23  N   UNL     1     -12.328  14.209  64.159  1.00  0.00    -0.678 NA 
BRANCH  20  24
HETATM   24  C   UNL     1     -10.012  16.577  65.605  1.00  0.00    -0.234 A  
HETATM   25  C   UNL     1      -9.965  18.887  66.391  1.00  0.00    -0.435 A  
HETATM   26  C   UNL     1      -8.624  18.756  66.736  1.00  0.00    -0.296 A  
HETATM   27  C   UNL     1      -7.976  17.537  66.535  1.00  0.00    -0.309 A  
HETATM   28  C   UNL     1     -10.652  17.806  65.833  1.00  0.00    -0.205 A  
HETATM   29  C   UNL     1      -8.666  16.451  65.978  1.00  0.00    -0.274 A  
ENDBRANCH  20  24
ENDBRANCH  16  18
ENDBRANCH  13  16
BRANCH  15  30
HETATM   30  C   UNL     1      -9.630   9.901  67.025  1.00  0.00    -0.175 C  
HETATM   31  H2  UNL     1     -11.247   8.587  66.794  1.00  0.00     0.000 HD 
HETATM   32  N   UNL     1     -10.903   9.269  67.469  1.00  0.00    -0.447 NA 
HETATM   33  H1  UNL     1     -10.783   8.863  68.397  1.00  0.00     0.000 HD 
BRANCH  30  34
HETATM   34  C   UNL     1      -8.549   8.805  67.151  1.00  0.00    -0.119 C  
BRANCH  34  35
HETATM   35  C   UNL     1      -8.755   7.476  66.447  1.00  0.00    -0.158 A  
HETATM   36  C   UNL     1     -10.176   6.645  68.433  1.00  0.00    -0.188 C  
HETATM   37  C   UNL     1      -8.352   5.924  64.602  1.00  0.00    -0.086 A  
HETATM   38  C   UNL     1      -7.091   8.039  64.535  1.00  0.00    -0.077 C  
HETATM   39  C   UNL     1      -9.548   6.475  67.070  1.00  0.00    -0.174 A  
HETATM   40  C   UNL     1      -8.098   7.159  65.232  1.00  0.00    -0.134 A  
HETATM   41  C   UNL     1      -9.198   4.979  65.174  1.00  0.00    -0.100 A  
HETATM   42  C   UNL     1      -9.775   5.255  66.416  1.00  0.00    -0.184 A  
BRANCH  41  43
HETATM   43  C   UNL     1      -9.495   3.658  64.554  1.00  0.00    -0.157 C  
HETATM   44  H2  UNL     1     -11.307   4.278  63.742  1.00  0.00     0.000 HD 
HETATM   45  H1  UNL     1     -10.857   2.595  63.420  1.00  0.00     0.000 HD 
HETATM   46  N   UNL     1     -10.654   3.500  63.845  1.00  0.00    -0.265 N  
HETATM   47  O   UNL     1      -8.725   2.708  64.664  1.00  0.00    -0.099 OA 
ENDBRANCH  41  43
ENDBRANCH  34  35
ENDBRANCH  30  34
ENDBRANCH  15  30
ENDBRANCH  12  13
ENDBRANCH   6  12
ENDBRANCH   2   3
TORSDOF 10
ENDMDL
MODEL      150
REMARK 921   NORMALIZED FREE ENERGY PREDICTED BY IDOCK:   -4.20 KCAL/MOL
REMARK 922        TOTAL FREE ENERGY PREDICTED BY IDOCK:   -9.52 KCAL/MOL
REMARK 923 INTER-LIGAND FREE ENERGY PREDICTED BY IDOCK:   -7.39 KCAL/MOL
REMARK 924 INTRA-LIGAND FREE ENERGY PREDICTED BY IDOCK:   -2.14 KCAL/MOL
REMARK 927      BINDING AFFINITY PREDICTED BY RF-SCORE:    0.00 PKD
ROOT
HETATM    1  C   UNL     1     -12.084  12.780  66.053  1.00  0.00    -0.395 C  
HETATM    2  O   UNL     1     -11.144  12.135  66.914  1.00  0.00    -0.265 OA 
ENDROOT
BRANCH   2   3
HETATM    3  C   UNL     1     -10.380  11.137  66.364  1.00  0.00    -0.252 A  
HETATM    4  C   UNL     1      -9.963  11.123  65.030  1.00  0.00    -0.325 A  
HETATM    5  C   UNL     1      -9.102  10.127  64.559  1.00  0.00    -0.280 A  
HETATM    6  C   UNL     1      -8.661   9.095  65.392  1.00  0.00    -0.192 A  
HETATM    7  C   UNL     1      -9.129   9.074  66.716  1.00  0.00    -0.178 A  
HETATM    8  C   UNL     1     -10.391   9.966  68.633  1.00  0.00    -0.195 C  
HETATM    9  O   UNL     1     -10.614  11.139  69.260  1.00  0.00    -0.217 OA 
HETATM   10  C   UNL     1      -9.971  10.090  67.208  1.00  0.00    -0.245 A  
HETATM   11  O   UNL     1     -10.457   8.888  69.202  1.00  0.00    -0.224 OA 
BRANCH   6  12
HETATM   12  C   UNL     1      -7.678   8.042  64.921  1.00  0.00    -0.118 C  
BRANCH  12  13
HETATM   13  N   UNL     1      -6.733   7.543  65.936  1.00  0.00    -0.045 N  
HETATM   14  O   UNL     1      -6.191   6.016  67.589  1.00  0.00    -0.026 OA 
HETATM   15  C   UNL     1      -6.918   6.327  66.637  1.00  0.00    -0.067 C  
BRANCH  13  16
HETATM   16  C   UNL     1      -5.731   8.504  66.467  1.00  0.00    -0.047 C  
HETATM   17  C   UNL     1      -5.587   9.789  65.631  1.00  0.00    -0.055 C  
BRANCH  16  18
HETATM   18  C   UNL     1      -6.058   8.912  67.888  1.00  0.00    -0.051 A  
HETATM   19  C   UNL     1      -7.010  10.128  69.486  1.00  0.00    -0.086 A  
HETATM   20  C   UNL     1      -6.805   8.835  69.917  1.00  0.00    -0.042 A  
HETATM   21  N   UNL     1      -6.172   8.112  68.932  1.00  0.00    -0.039 NA 
HETATM   22  H   UNL     1      -5.853   7.145  68.996  1.00  0.00     0.000 HD 
HETATM   23  N   UNL     1      -6.503  10.173  68.210  1.00  0.00    -0.053 NA 
BRANCH  20  24
HETATM   24  C   UNL     1      -7.261   8.230  71.162  1.00  0.00    -0.065 A  
HETATM   25  C   UNL     1      -8.904   8.180  72.966  1.00  0.00    -0.316 A  
HETATM   26  C   UNL     1      -8.152   7.225  73.642  1.00  0.00    -0.145 A  
HETATM   27  C   UNL     1      -6.965   6.756  73.078  1.00  0.00    -0.075 A  
HETATM   28  C   UNL     1      -8.462   8.676  71.737  1.00  0.00    -0.221 A  
HETATM   29  C   UNL     1      -6.523   7.251  71.842  1.00  0.00    -0.043 A  
ENDBRANCH  20  24
ENDBRANCH  16  18
ENDBRANCH  13  16
BRANCH  15  30
HETATM   30  C   UNL     1      -8.061   5.361  66.146  1.00  0.00    -0.106 C  
HETATM   31  H2  UNL     1      -6.723   4.057  65.195  1.00  0.00     0.000 HD 
HETATM   32  N   UNL     1      -7.585   4.559  64.985  1.00  0.00    -0.076 NA 
HETATM   33  H1  UNL     1      -8.325   3.934  64.667  1.00  0.00     0.000 HD 
BRANCH  30  34
HETATM   34  C   UNL     1      -8.575   4.336  67.182  1.00  0.00    -0.104 C  
BRANCH  34  35
HETATM   35  C   UNL     1      -9.368   4.827  68.378  1.00  0.00    -0.177 A  
HETATM   36  C   UNL     1     -10.955   6.109  66.800  1.00  0.00    -0.322 C  
HETATM   37  C   UNL     1      -9.748   5.023  70.785  1.00  0.00    -0.263 A  
HETATM   38  C   UNL     1      -7.682   3.868  70.103  1.00  0.00    -0.048 C  
HETATM   39  C   UNL     1     -10.505   5.652  68.167  1.00  0.00    -0.260 A  
HETATM   40  C   UNL     1      -8.955   4.574  69.710  1.00  0.00    -0.149 A  
HETATM   41  C   UNL     1     -10.909   5.759  70.571  1.00  0.00    -0.348 A  
HETATM   42  C   UNL     1     -11.268   6.085  69.262  1.00  0.00    -0.367 A  
BRANCH  41  43
HETATM   43  C   UNL     1     -11.779   6.262  71.671  1.00  0.00    -0.284 C  
HETATM   44  H2  UNL     1     -12.955   7.426  70.411  1.00  0.00     0.000 HD 
HETATM   45  H1  UNL     1     -13.390   7.472  72.128  1.00  0.00     0.000 HD 
HETATM   46  N   UNL     1     -12.795   7.128  71.374  1.00  0.00    -0.392 N  
HETATM   47  O   UNL     1     -11.604   5.918  72.836  1.00  0.00    -0.227 OA 
ENDBRANCH  41  43
ENDBRANCH  34  35
ENDBRANCH  30  34
ENDBRANCH  15  30
ENDBRANCH  12  13
ENDBRANCH   6  12
ENDBRANCH   2   3
TORSDOF 10
ENDMDL
MODEL      151
REMARK 921   NORMALIZED FREE ENERGY PREDICTED BY IDOCK:   -4.17 KCAL/MOL
REMARK 922        TOTAL FREE ENERGY PREDICTED BY IDOCK:   -9.48 KCAL/MOL
REMARK 923 INTER-LIGAND FREE ENERGY PREDICTED BY IDOCK:   -9.81 KCAL/MOL
REMARK 924 INTRA-LIGAND FREE ENERGY PREDICTED BY IDOCK:    0.33 KCAL/MOL
REMARK 927      BINDING AFFINITY PREDICTED BY RF-SCORE:    0.00 PKD
ROOT
HETATM    1  C   UNL     1      -5.537   8.779  71.075  1.00  0.00    -0.035 C  
HETATM    2  O   UNL     1      -6.442   9.856  71.320  1.00  0.00    -0.299 OA 
ENDROOT
BRANCH   2   3
HETATM    3  C   UNL     1      -6.802  10.624  70.241  1.00  0.00    -0.038 A  
HETATM    4  C   UNL     1      -5.923  11.475  69.565  1.00  0.00    -0.086 A  
HETATM    5  C   UNL     1      -6.328  12.154  68.412  1.00  0.00    -0.054 A  
HETATM    6  C   UNL     1      -7.631  12.034  67.920  1.00  0.00    -0.124 A  
HETATM    7  C   UNL     1      -8.532  11.228  68.633  1.00  0.00    -0.143 A  
HETATM    8  C   UNL     1      -9.167   9.684  70.443  1.00  0.00    -0.202 C  
HETATM    9  O   UNL     1      -8.699   8.584  71.067  1.00  0.00    -0.143 OA 
HETATM   10  C   UNL     1      -8.125  10.516  69.778  1.00  0.00     0.017 A  
HETATM   11  O   UNL     1     -10.358   9.945  70.365  1.00  0.00    -0.273 OA 
BRANCH   6  12
HETATM   12  C   UNL     1      -8.074  12.710  66.637  1.00  0.00     0.193 C  
BRANCH  12  13
HETATM   13  N   UNL     1      -8.883  13.932  66.799  1.00  0.00    -0.196 N  
HETATM   14  O   UNL     1     -10.673  15.249  66.151  1.00  0.00    -0.307 OA 
HETATM   15  C   UNL     1     -10.101  14.151  66.112  1.00  0.00    -0.313 C  
BRANCH  13  16
HETATM   16  C   UNL     1      -8.233  15.099  67.451  1.00  0.00    -0.193 C  
HETATM   17  C   UNL     1      -7.809  16.211  66.473  1.00  0.00    -0.263 C  
BRANCH  16  18
HETATM   18  C   UNL     1      -9.139  15.723  68.493  1.00  0.00    -0.194 A  
HETATM   19  C   UNL     1     -10.622  17.171  69.292  1.00  0.00    -0.220 A  
HETATM   20  C   UNL     1     -10.727  15.961  69.942  1.00  0.00    -0.334 A  
HETATM   21  N   UNL     1      -9.770  15.094  69.467  1.00  0.00    -0.377 NA 
HETATM   22  H   UNL     1      -9.584  14.148  69.802  1.00  0.00     0.000 HD 
HETATM   23  N   UNL     1      -9.590  17.018  68.399  1.00  0.00    -0.267 NA 
BRANCH  20  24
HETATM   24  C   UNL     1     -11.739  15.556  70.909  1.00  0.00    -0.413 A  
HETATM   25  C   UNL     1     -12.693  15.800  73.143  1.00  0.00    -0.618 A  
HETATM   26  C   UNL     1     -13.565  14.744  72.900  1.00  0.00    -0.478 A  
HETATM   27  C   UNL     1     -13.543  14.101  71.662  1.00  0.00    -0.446 A  
HETATM   28  C   UNL     1     -11.790  16.202  72.155  1.00  0.00    -0.626 A  
HETATM   29  C   UNL     1     -12.639  14.507  70.669  1.00  0.00    -0.416 A  
ENDBRANCH  20  24
ENDBRANCH  16  18
ENDBRANCH  13  16
BRANCH  15  30
HETATM   30  C   UNL     1     -10.729  12.943  65.321  1.00  0.00    -0.296 C  
HETATM   31  H2  UNL     1     -10.725  13.971  63.495  1.00  0.00     0.000 HD 
HETATM   32  N   UNL     1     -11.371  13.432  64.071  1.00  0.00    -0.539 NA 
HETATM   33  H1  UNL     1     -11.777  12.649  63.559  1.00  0.00     0.000 HD 
BRANCH  30  34
HETATM   34  C   UNL     1      -9.745  11.835  64.883  1.00  0.00    -0.199 C  
BRANCH  34  35
HETATM   35  C   UNL     1      -9.830  10.468  65.535  1.00  0.00    -0.324 A  
HETATM   36  C   UNL     1      -8.169   9.535  63.795  1.00  0.00    -0.161 C  
HETATM   37  C   UNL     1     -10.748   8.915  67.184  1.00  0.00    -0.203 A  
HETATM   38  C   UNL     1     -11.744  11.168  67.143  1.00  0.00     0.140 C  
HETATM   39  C   UNL     1      -9.057   9.398  65.009  1.00  0.00    -0.271 A  
HETATM   40  C   UNL     1     -10.734  10.193  66.591  1.00  0.00    -0.156 A  
HETATM   41  C   UNL     1      -9.926   7.892  66.722  1.00  0.00    -0.333 A  
HETATM   42  C   UNL     1      -9.100   8.137  65.623  1.00  0.00    -0.092 A  
BRANCH  41  43
HETATM   43  C   UNL     1      -9.906   6.523  67.309  1.00  0.00    -0.140 C  
HETATM   44  H2  UNL     1     -10.983   5.675  65.745  1.00  0.00     0.000 HD 
HETATM   45  H1  UNL     1     -10.505   4.564  67.040  1.00  0.00     0.000 HD 
HETATM   46  N   UNL     1     -10.519   5.502  66.637  1.00  0.00    -0.271 N  
HETATM   47  O   UNL     1      -9.355   6.292  68.381  1.00  0.00    -0.115 OA 
ENDBRANCH  41  43
ENDBRANCH  34  35
ENDBRANCH  30  34
ENDBRANCH  15  30
ENDBRANCH  12  13
ENDBRANCH   6  12
ENDBRANCH   2   3
TORSDOF 10
ENDMDL
MODEL      152
REMARK 921   NORMALIZED FREE ENERGY PREDICTED BY IDOCK:   -4.16 KCAL/MOL
REMARK 922        TOTAL FREE ENERGY PREDICTED BY IDOCK:   -9.46 KCAL/MOL
REMARK 923 INTER-LIGAND FREE ENERGY PREDICTED BY IDOCK:   -8.16 KCAL/MOL
REMARK 924 INTRA-LIGAND FREE ENERGY PREDICTED BY IDOCK:   -1.30 KCAL/MOL
REMARK 927      BINDING AFFINITY PREDICTED BY RF-SCORE:    0.00 PKD
ROOT
HETATM    1  C   UNL     1      -6.863   4.011  74.207  1.00  0.00    -0.059 C  
HETATM    2  O   UNL     1      -8.217   4.450  74.323  1.00  0.00    -0.091 OA 
ENDROOT
BRANCH   2   3
HETATM    3  C   UNL     1      -8.534   5.653  73.743  1.00  0.00    -0.113 A  
HETATM    4  C   UNL     1      -7.705   6.777  73.785  1.00  0.00    -0.089 A  
HETATM    5  C   UNL     1      -8.043   7.942  73.088  1.00  0.00    -0.213 A  
HETATM    6  C   UNL     1      -9.232   8.033  72.360  1.00  0.00    -0.264 A  
HETATM    7  C   UNL     1     -10.095   6.925  72.369  1.00  0.00    -0.189 A  
HETATM    8  C   UNL     1     -10.739   4.625  72.968  1.00  0.00    -0.233 C  
HETATM    9  O   UNL     1     -10.204   3.389  73.018  1.00  0.00    -0.144 OA 
HETATM   10  C   UNL     1      -9.750   5.737  73.042  1.00  0.00    -0.164 A  
HETATM   11  O   UNL     1     -11.933   4.824  72.803  1.00  0.00     0.005 OA 
BRANCH   6  12
HETATM   12  C   UNL     1      -9.588   9.262  71.547  1.00  0.00    -0.092 C  
BRANCH  12  13
HETATM   13  N   UNL     1     -10.515   9.043  70.422  1.00  0.00    -0.201 N  
HETATM   14  O   UNL     1     -10.875   8.714  68.159  1.00  0.00    -0.106 OA 
HETATM   15  C   UNL     1     -10.082   8.738  69.109  1.00  0.00    -0.198 C  
BRANCH  13  16
HETATM   16  C   UNL     1     -11.925   9.477  70.604  1.00  0.00    -0.197 C  
HETATM   17  C   UNL     1     -12.424   9.400  72.059  1.00  0.00    -0.440 C  
BRANCH  16  18
HETATM   18  C   UNL     1     -12.132  10.897  70.119  1.00  0.00    -0.349 A  
HETATM   19  C   UNL     1     -12.080  13.115  70.243  1.00  0.00    -0.328 A  
HETATM   20  C   UNL     1     -11.957  12.699  68.935  1.00  0.00    -0.242 A  
HETATM   21  N   UNL     1     -12.040  11.326  68.874  1.00  0.00    -0.502 NA 
HETATM   22  H   UNL     1     -12.031  10.752  68.031  1.00  0.00     0.000 HD 
HETATM   23  N   UNL     1     -12.223  11.965  70.980  1.00  0.00    -0.266 NA 
BRANCH  20  24
HETATM   24  C   UNL     1     -11.670  13.518  67.765  1.00  0.00    -0.394 A  
HETATM   25  C   UNL     1     -11.754  13.775  65.339  1.00  0.00    -0.346 A  
HETATM   26  C   UNL     1     -11.031  14.960  65.426  1.00  0.00    -0.371 A  
HETATM   27  C   UNL     1     -10.640  15.439  66.677  1.00  0.00    -0.306 A  
HETATM   28  C   UNL     1     -12.071  13.062  66.498  1.00  0.00    -0.410 A  
HETATM   29  C   UNL     1     -10.962  14.726  67.841  1.00  0.00    -0.282 A  
ENDBRANCH  20  24
ENDBRANCH  16  18
ENDBRANCH  13  16
BRANCH  15  30
HETATM   30  C   UNL     1      -8.560   8.393  68.897  1.00  0.00    -0.135 C  
HETATM   31  H2  UNL     1      -7.949   9.480  70.582  1.00  0.00     0.000 HD 
HETATM   32  N   UNL     1      -7.710   9.396  69.594  1.00  0.00    -0.088 NA 
HETATM   33  H1  UNL     1      -6.724   9.173  69.457  1.00  0.00     0.000 HD 
BRANCH  30  34
HETATM   34  C   UNL     1      -8.098   7.014  69.421  1.00  0.00    -0.130 C  
BRANCH  34  35
HETATM   35  C   UNL     1      -8.208   5.803  68.514  1.00  0.00    -0.108 A  
HETATM   36  C   UNL     1      -5.939   6.399  67.442  1.00  0.00    -0.020 C  
HETATM   37  C   UNL     1      -9.408   3.859  67.642  1.00  0.00    -0.232 A  
HETATM   38  C   UNL     1     -10.636   5.258  69.257  1.00  0.00    -0.188 C  
HETATM   39  C   UNL     1      -7.160   5.524  67.597  1.00  0.00    -0.071 A  
HETATM   40  C   UNL     1      -9.372   4.994  68.478  1.00  0.00    -0.167 A  
HETATM   41  C   UNL     1      -8.342   3.540  66.807  1.00  0.00    -0.100 A  
HETATM   42  C   UNL     1      -7.233   4.387  66.776  1.00  0.00    -0.079 A  
BRANCH  41  43
HETATM   43  C   UNL     1      -8.333   2.357  65.902  1.00  0.00    -0.094 C  
HETATM   44  H2  UNL     1     -10.093   2.896  64.933  1.00  0.00     0.000 HD 
HETATM   45  H1  UNL     1      -9.335   1.397  64.372  1.00  0.00     0.000 HD 
HETATM   46  N   UNL     1      -9.342   2.207  64.992  1.00  0.00    -0.109 N  
HETATM   47  O   UNL     1      -7.441   1.515  65.954  1.00  0.00    -0.058 OA 
ENDBRANCH  41  43
ENDBRANCH  34  35
ENDBRANCH  30  34
ENDBRANCH  15  30
ENDBRANCH  12  13
ENDBRANCH   6  12
ENDBRANCH   2   3
TORSDOF 10
ENDMDL
MODEL      153
REMARK 921   NORMALIZED FREE ENERGY PREDICTED BY IDOCK:   -4.14 KCAL/MOL
REMARK 922        TOTAL FREE ENERGY PREDICTED BY IDOCK:   -9.42 KCAL/MOL
REMARK 923 INTER-LIGAND FREE ENERGY PREDICTED BY IDOCK:   -8.34 KCAL/MOL
REMARK 924 INTRA-LIGAND FREE ENERGY PREDICTED BY IDOCK:   -1.08 KCAL/MOL
REMARK 927      BINDING AFFINITY PREDICTED BY RF-SCORE:    0.00 PKD
ROOT
HETATM    1  C   UNL     1      -7.778   3.267  73.355  1.00  0.00    -0.064 C  
HETATM    2  O   UNL     1      -8.424   4.392  73.953  1.00  0.00    -0.099 OA 
ENDROOT
BRANCH   2   3
HETATM    3  C   UNL     1      -8.539   5.524  73.186  1.00  0.00    -0.117 A  
HETATM    4  C   UNL     1      -7.446   6.253  72.710  1.00  0.00    -0.096 A  
HETATM    5  C   UNL     1      -7.630   7.341  71.850  1.00  0.00    -0.085 A  
HETATM    6  C   UNL     1      -8.909   7.756  71.470  1.00  0.00    -0.150 A  
HETATM    7  C   UNL     1     -10.010   7.062  71.997  1.00  0.00    -0.172 A  
HETATM    8  C   UNL     1     -11.077   5.284  73.325  1.00  0.00    -0.316 C  
HETATM    9  O   UNL     1     -10.960   3.960  73.552  1.00  0.00    -0.215 OA 
HETATM   10  C   UNL     1      -9.834   5.947  72.839  1.00  0.00    -0.179 A  
HETATM   11  O   UNL     1     -12.134   5.885  73.440  1.00  0.00     0.689 OA 
BRANCH   6  12
HETATM   12  C   UNL     1      -9.131   8.891  70.490  1.00  0.00    -0.200 C  
BRANCH  12  13
HETATM   13  N   UNL     1     -10.139   8.650  69.442  1.00  0.00    -0.198 N  
HETATM   14  O   UNL     1     -10.665   8.253  67.223  1.00  0.00    -0.289 OA 
HETATM   15  C   UNL     1      -9.805   8.296  68.112  1.00  0.00    -0.172 C  
BRANCH  13  16
HETATM   16  C   UNL     1     -11.526   9.111  69.710  1.00  0.00     0.130 C  
HETATM   17  C   UNL     1     -12.116   8.596  71.036  1.00  0.00    -0.247 C  
BRANCH  16  18
HETATM   18  C   UNL     1     -11.611  10.623  69.724  1.00  0.00    -0.309 A  
HETATM   19  C   UNL     1     -12.198  12.633  68.979  1.00  0.00     0.018 A  
HETATM   20  C   UNL     1     -12.083  12.639  70.352  1.00  0.00    -0.300 A  
HETATM   21  N   UNL     1     -11.673  11.400  70.790  1.00  0.00    -0.383 NA 
HETATM   22  H   UNL     1     -11.459  11.133  71.751  1.00  0.00     0.000 HD 
HETATM   23  N   UNL     1     -11.865  11.359  68.590  1.00  0.00    -0.453 NA 
BRANCH  20  24
HETATM   24  C   UNL     1     -12.433  13.716  71.269  1.00  0.00    -0.412 A  
HETATM   25  C   UNL     1     -14.005  14.627  72.899  1.00  0.00    -0.067 A  
HETATM   26  C   UNL     1     -13.273  15.808  72.965  1.00  0.00    -0.671 A  
HETATM   27  C   UNL     1     -12.113  15.944  72.201  1.00  0.00    -0.596 A  
HETATM   28  C   UNL     1     -13.587  13.591  72.060  1.00  0.00    -0.589 A  
HETATM   29  C   UNL     1     -11.691  14.903  71.362  1.00  0.00    -0.387 A  
ENDBRANCH  20  24
ENDBRANCH  16  18
ENDBRANCH  13  16
BRANCH  15  30
HETATM   30  C   UNL     1      -8.307   7.921  67.804  1.00  0.00    -0.129 C  
HETATM   31  H2  UNL     1      -8.791   6.922  66.026  1.00  0.00     0.000 HD 
HETATM   32  N   UNL     1      -8.255   6.757  66.877  1.00  0.00    -0.112 NA 
HETATM   33  H1  UNL     1      -7.284   6.515  66.678  1.00  0.00     0.000 HD 
BRANCH  30  34
HETATM   34  C   UNL     1      -7.455   9.026  67.140  1.00  0.00    -0.087 C  
BRANCH  34  35
HETATM   35  C   UNL     1      -7.970  10.452  67.128  1.00  0.00    -0.115 A  
HETATM   36  C   UNL     1      -6.746  10.914  69.351  1.00  0.00    -0.107 C  
HETATM   37  C   UNL     1      -9.313  12.256  66.168  1.00  0.00    -0.177 A  
HETATM   38  C   UNL     1      -9.515  10.055  65.079  1.00  0.00    -0.339 C  
HETATM   39  C   UNL     1      -7.603  11.333  68.181  1.00  0.00    -0.105 A  
HETATM   40  C   UNL     1      -8.893  10.911  66.154  1.00  0.00    -0.195 A  
HETATM   41  C   UNL     1      -8.882  13.139  67.153  1.00  0.00    -0.222 A  
HETATM   42  C   UNL     1      -8.045  12.665  68.164  1.00  0.00    -0.164 A  
BRANCH  41  43
HETATM   43  C   UNL     1      -9.301  14.568  67.216  1.00  0.00    -0.210 C  
HETATM   44  H2  UNL     1     -11.238  14.185  66.565  1.00  0.00     0.000 HD 
HETATM   45  H1  UNL     1     -10.865  15.881  66.910  1.00  0.00     0.000 HD 
HETATM   46  N   UNL     1     -10.579  14.903  66.866  1.00  0.00    -0.294 N  
HETATM   47  O   UNL     1      -8.525  15.449  67.574  1.00  0.00    -0.158 OA 
ENDBRANCH  41  43
ENDBRANCH  34  35
ENDBRANCH  30  34
ENDBRANCH  15  30
ENDBRANCH  12  13
ENDBRANCH   6  12
ENDBRANCH   2   3
TORSDOF 10
ENDMDL
MODEL      154
REMARK 921   NORMALIZED FREE ENERGY PREDICTED BY IDOCK:   -4.13 KCAL/MOL
REMARK 922        TOTAL FREE ENERGY PREDICTED BY IDOCK:   -9.42 KCAL/MOL
REMARK 923 INTER-LIGAND FREE ENERGY PREDICTED BY IDOCK:   -8.81 KCAL/MOL
REMARK 924 INTRA-LIGAND FREE ENERGY PREDICTED BY IDOCK:   -0.61 KCAL/MOL
REMARK 927      BINDING AFFINITY PREDICTED BY RF-SCORE:    0.00 PKD
ROOT
HETATM    1  C   UNL     1      -7.127   3.690  67.205  1.00  0.00    -0.059 C  
HETATM    2  O   UNL     1      -7.868   4.115  68.350  1.00  0.00    -0.073 OA 
ENDROOT
BRANCH   2   3
HETATM    3  C   UNL     1      -8.086   5.463  68.484  1.00  0.00    -0.095 A  
HETATM    4  C   UNL     1      -9.081   6.162  67.794  1.00  0.00    -0.117 A  
HETATM    5  C   UNL     1      -9.315   7.516  68.052  1.00  0.00    -0.142 A  
HETATM    6  C   UNL     1      -8.541   8.223  68.976  1.00  0.00    -0.135 A  
HETATM    7  C   UNL     1      -7.501   7.538  69.623  1.00  0.00    -0.092 A  
HETATM    8  C   UNL     1      -6.153   5.545  70.149  1.00  0.00    -0.025 C  
HETATM    9  O   UNL     1      -6.320   4.239  70.439  1.00  0.00    -0.025 OA 
HETATM   10  C   UNL     1      -7.277   6.166  69.394  1.00  0.00    -0.074 A  
HETATM   11  O   UNL     1      -5.191   6.191  70.535  1.00  0.00    -0.012 OA 
BRANCH   6  12
HETATM   12  C   UNL     1      -8.817   9.674  69.317  1.00  0.00    -0.164 C  
BRANCH  12  13
HETATM   13  N   UNL     1     -10.218  10.113  69.182  1.00  0.00    -0.201 N  
HETATM   14  O   UNL     1     -11.901  11.079  67.921  1.00  0.00    -0.600 OA 
HETATM   15  C   UNL     1     -10.772  10.574  67.964  1.00  0.00    -0.245 C  
BRANCH  13  16
HETATM   16  C   UNL     1     -10.972  10.383  70.434  1.00  0.00    -0.248 C  
HETATM   17  C   UNL     1     -12.157  11.351  70.258  1.00  0.00    -0.459 C  
BRANCH  16  18
HETATM   18  C   UNL     1     -11.508   9.103  71.042  1.00  0.00    -0.306 A  
HETATM   19  C   UNL     1     -12.884   7.371  71.247  1.00  0.00    -0.321 A  
HETATM   20  C   UNL     1     -11.625   7.047  71.705  1.00  0.00    -0.280 A  
HETATM   21  N   UNL     1     -10.801   8.146  71.615  1.00  0.00    -0.238 NA 
HETATM   22  H   UNL     1      -9.833   8.209  71.928  1.00  0.00     0.000 HD 
HETATM   23  N   UNL     1     -12.805   8.686  70.860  1.00  0.00     0.034 NA 
BRANCH  20  24
HETATM   24  C   UNL     1     -11.141   5.739  72.127  1.00  0.00    -0.327 A  
HETATM   25  C   UNL     1      -9.712   3.811  71.682  1.00  0.00    -0.239 A  
HETATM   26  C   UNL     1     -10.247   3.145  72.780  1.00  0.00    -0.238 A  
HETATM   27  C   UNL     1     -11.214   3.774  73.564  1.00  0.00    -0.299 A  
HETATM   28  C   UNL     1     -10.155   5.097  71.361  1.00  0.00    -0.265 A  
HETATM   29  C   UNL     1     -11.656   5.066  73.244  1.00  0.00    -0.251 A  
ENDBRANCH  20  24
ENDBRANCH  16  18
ENDBRANCH  13  16
BRANCH  15  30
HETATM   30  C   UNL     1      -9.919  10.394  66.652  1.00  0.00    -0.210 C  
HETATM   31  H2  UNL     1     -11.577   9.832  65.500  1.00  0.00     0.000 HD 
HETATM   32  N   UNL     1     -10.634   9.501  65.700  1.00  0.00     0.178 NA 
HETATM   33  H1  UNL     1     -10.081   9.384  64.851  1.00  0.00     0.000 HD 
BRANCH  30  34
HETATM   34  C   UNL     1      -9.606  11.685  65.864  1.00  0.00    -0.250 C  
BRANCH  34  35
HETATM   35  C   UNL     1      -9.957  13.029  66.474  1.00  0.00    -0.262 A  
HETATM   36  C   UNL     1      -7.990  12.793  68.126  1.00  0.00    -0.156 C  
HETATM   37  C   UNL     1     -11.377  15.010  66.665  1.00  0.00    -0.289 A  
HETATM   38  C   UNL     1     -12.154  13.263  65.111  1.00  0.00    -0.452 C  
HETATM   39  C   UNL     1      -9.162  13.540  67.535  1.00  0.00    -0.219 A  
HETATM   40  C   UNL     1     -11.116  13.749  66.091  1.00  0.00    -0.296 A  
HETATM   41  C   UNL     1     -10.546  15.546  67.644  1.00  0.00    -0.291 A  
HETATM   42  C   UNL     1      -9.454  14.797  68.086  1.00  0.00    -0.208 A  
BRANCH  41  43
HETATM   43  C   UNL     1     -10.780  16.870  68.286  1.00  0.00    -0.377 C  
HETATM   44  H2  UNL     1     -10.951  17.884  66.478  1.00  0.00     0.000 HD 
HETATM   45  H1  UNL     1     -11.129  18.876  67.935  1.00  0.00     0.000 HD 
HETATM   46  N   UNL     1     -10.969  17.970  67.495  1.00  0.00    -0.221 N  
HETATM   47  O   UNL     1     -10.805  16.997  69.506  1.00  0.00    -0.264 OA 
ENDBRANCH  41  43
ENDBRANCH  34  35
ENDBRANCH  30  34
ENDBRANCH  15  30
ENDBRANCH  12  13
ENDBRANCH   6  12
ENDBRANCH   2   3
TORSDOF 10
ENDMDL
MODEL      155
REMARK 921   NORMALIZED FREE ENERGY PREDICTED BY IDOCK:   -4.12 KCAL/MOL
REMARK 922        TOTAL FREE ENERGY PREDICTED BY IDOCK:   -9.39 KCAL/MOL
REMARK 923 INTER-LIGAND FREE ENERGY PREDICTED BY IDOCK:   -9.71 KCAL/MOL
REMARK 924 INTRA-LIGAND FREE ENERGY PREDICTED BY IDOCK:    0.32 KCAL/MOL
REMARK 927      BINDING AFFINITY PREDICTED BY RF-SCORE:    0.00 PKD
ROOT
HETATM    1  C   UNL     1      -5.471  12.563  70.483  1.00  0.00    -0.162 C  
HETATM    2  O   UNL     1      -5.751  11.310  69.857  1.00  0.00    -0.068 OA 
ENDROOT
BRANCH   2   3
HETATM    3  C   UNL     1      -6.833  11.264  69.014  1.00  0.00    -0.099 A  
HETATM    4  C   UNL     1      -6.907  11.964  67.807  1.00  0.00    -0.094 A  
HETATM    5  C   UNL     1      -7.996  11.796  66.946  1.00  0.00    -0.149 A  
HETATM    6  C   UNL     1      -9.061  10.954  67.280  1.00  0.00    -0.146 A  
HETATM    7  C   UNL     1      -9.016  10.298  68.520  1.00  0.00    -0.134 A  
HETATM    8  C   UNL     1      -7.971   9.681  70.663  1.00  0.00    -0.037 C  
HETATM    9  O   UNL     1      -6.774   9.294  71.148  1.00  0.00    -0.092 OA 
HETATM   10  C   UNL     1      -7.910  10.437  69.380  1.00  0.00    -0.163 A  
HETATM   11  O   UNL     1      -9.029   9.379  71.192  1.00  0.00    -0.267 OA 
BRANCH   6  12
HETATM   12  C   UNL     1     -10.221  10.707  66.336  1.00  0.00    -0.234 C  
BRANCH  12  13
HETATM   13  N   UNL     1      -9.930  10.875  64.900  1.00  0.00    -0.278 N  
HETATM   14  O   UNL     1     -10.408  11.864  62.863  1.00  0.00    -0.247 OA 
HETATM   15  C   UNL     1     -10.559  11.852  64.092  1.00  0.00    -0.350 C  
BRANCH  13  16
HETATM   16  C   UNL     1      -9.199   9.775  64.218  1.00  0.00    -0.232 C  
HETATM   17  C   UNL     1      -7.872  10.208  63.570  1.00  0.00    -0.158 C  
BRANCH  16  18
HETATM   18  C   UNL     1      -8.897   8.639  65.174  1.00  0.00    -0.103 A  
HETATM   19  C   UNL     1      -7.663   7.440  66.581  1.00  0.00    -0.101 A  
HETATM   20  C   UNL     1      -9.002   7.331  66.894  1.00  0.00    -0.135 A  
HETATM   21  N   UNL     1      -9.751   8.040  65.983  1.00  0.00    -0.450 NA 
HETATM   22  H   UNL     1     -10.769   8.093  65.941  1.00  0.00     0.000 HD 
HETATM   23  N   UNL     1      -7.613   8.245  65.470  1.00  0.00    -0.084 NA 
BRANCH  20  24
HETATM   24  C   UNL     1      -9.593   6.678  68.054  1.00  0.00    -0.123 A  
HETATM   25  C   UNL     1      -9.606   4.776  69.584  1.00  0.00    -0.253 A  
HETATM   26  C   UNL     1     -10.754   5.263  70.201  1.00  0.00    -0.217 A  
HETATM   27  C   UNL     1     -11.316   6.463  69.763  1.00  0.00    -0.494 A  
HETATM   28  C   UNL     1      -9.031   5.478  68.522  1.00  0.00    -0.114 A  
HETATM   29  C   UNL     1     -10.737   7.170  68.699  1.00  0.00    -0.198 A  
ENDBRANCH  20  24
ENDBRANCH  16  18
ENDBRANCH  13  16
BRANCH  15  30
HETATM   30  C   UNL     1     -11.432  12.949  64.808  1.00  0.00    -0.321 C  
HETATM   31  H2  UNL     1     -12.882  11.570  65.432  1.00  0.00     0.000 HD 
HETATM   32  N   UNL     1     -12.833  12.469  64.954  1.00  0.00    -0.800 NA 
HETATM   33  H1  UNL     1     -13.398  13.181  65.417  1.00  0.00     0.000 HD 
BRANCH  30  34
HETATM   34  C   UNL     1     -10.977  13.357  66.227  1.00  0.00    -0.296 C  
BRANCH  34  35
HETATM   35  C   UNL     1     -10.767  14.826  66.544  1.00  0.00    -0.319 A  
HETATM   36  C   UNL     1     -10.617  14.262  69.057  1.00  0.00    -0.243 C  
HETATM   37  C   UNL     1     -10.616  17.177  65.891  1.00  0.00    -0.219 A  
HETATM   38  C   UNL     1     -11.219  15.591  64.105  1.00  0.00     0.102 C  
HETATM   39  C   UNL     1     -10.581  15.226  67.895  1.00  0.00    -0.260 A  
HETATM   40  C   UNL     1     -10.854  15.831  65.548  1.00  0.00    -0.343 A  
HETATM   41  C   UNL     1     -10.347  17.554  67.203  1.00  0.00    -0.330 A  
HETATM   42  C   UNL     1     -10.351  16.576  68.199  1.00  0.00    -0.296 A  
BRANCH  41  43
HETATM   43  C   UNL     1     -10.095  18.962  67.618  1.00  0.00    -0.365 C  
HETATM   44  H2  UNL     1      -9.176  18.427  69.406  1.00  0.00     0.000 HD 
HETATM   45  H1  UNL     1      -9.295  20.167  69.094  1.00  0.00     0.000 HD 
HETATM   46  N   UNL     1      -9.468  19.203  68.810  1.00  0.00    -0.393 N  
HETATM   47  O   UNL     1     -10.437  19.910  66.918  1.00  0.00    -0.446 OA 
ENDBRANCH  41  43
ENDBRANCH  34  35
ENDBRANCH  30  34
ENDBRANCH  15  30
ENDBRANCH  12  13
ENDBRANCH   6  12
ENDBRANCH   2   3
TORSDOF 10
ENDMDL
MODEL      156
REMARK 921   NORMALIZED FREE ENERGY PREDICTED BY IDOCK:   -4.10 KCAL/MOL
REMARK 922        TOTAL FREE ENERGY PREDICTED BY IDOCK:   -9.36 KCAL/MOL
REMARK 923 INTER-LIGAND FREE ENERGY PREDICTED BY IDOCK:   -8.57 KCAL/MOL
REMARK 924 INTRA-LIGAND FREE ENERGY PREDICTED BY IDOCK:   -0.79 KCAL/MOL
REMARK 927      BINDING AFFINITY PREDICTED BY RF-SCORE:    0.00 PKD
ROOT
HETATM    1  C   UNL     1      -6.667  17.720  67.349  1.00  0.00    -0.164 C  
HETATM    2  O   UNL     1      -6.510  16.394  66.842  1.00  0.00    -0.201 OA 
ENDROOT
BRANCH   2   3
HETATM    3  C   UNL     1      -7.560  15.529  67.026  1.00  0.00    -0.193 A  
HETATM    4  C   UNL     1      -8.676  15.471  66.187  1.00  0.00    -0.186 A  
HETATM    5  C   UNL     1      -9.663  14.499  66.373  1.00  0.00    -0.314 A  
HETATM    6  C   UNL     1      -9.586  13.579  67.423  1.00  0.00    -0.227 A  
HETATM    7  C   UNL     1      -8.497  13.676  68.304  1.00  0.00    -0.170 A  
HETATM    8  C   UNL     1      -6.370  14.629  69.098  1.00  0.00    -0.106 C  
HETATM    9  O   UNL     1      -5.178  15.027  68.612  1.00  0.00    -0.087 OA 
HETATM   10  C   UNL     1      -7.482  14.632  68.106  1.00  0.00    -0.125 A  
HETATM   11  O   UNL     1      -6.518  14.228  70.243  1.00  0.00    -0.163 OA 
BRANCH   6  12
HETATM   12  C   UNL     1     -10.611  12.477  67.607  1.00  0.00    -0.217 C  
BRANCH  12  13
HETATM   13  N   UNL     1     -11.231  12.390  68.942  1.00  0.00    -0.264 N  
HETATM   14  O   UNL     1     -11.717  11.169  70.847  1.00  0.00    -0.246 OA 
HETATM   15  C   UNL     1     -11.060  11.280  69.804  1.00  0.00    -0.167 C  
BRANCH  13  16
HETATM   16  C   UNL     1     -12.325  13.347  69.251  1.00  0.00    -0.045 C  
HETATM   17  C   UNL     1     -13.106  13.017  70.536  1.00  0.00     0.284 C  
BRANCH  16  18
HETATM   18  C   UNL     1     -11.799  14.762  69.381  1.00  0.00    -0.323 A  
HETATM   19  C   UNL     1     -10.423  16.363  70.076  1.00  0.00    -0.131 A  
HETATM   20  C   UNL     1     -10.979  16.695  68.859  1.00  0.00    -0.294 A  
HETATM   21  N   UNL     1     -11.864  15.715  68.470  1.00  0.00    -0.483 NA 
HETATM   22  H   UNL     1     -12.454  15.722  67.638  1.00  0.00     0.000 HD 
HETATM   23  N   UNL     1     -10.975  15.151  70.411  1.00  0.00    -0.259 NA 
BRANCH  20  24
HETATM   24  C   UNL     1     -10.647  17.831  68.010  1.00  0.00    -0.372 A  
HETATM   25  C   UNL     1      -9.691  20.069  67.816  1.00  0.00    -0.528 A  
HETATM   26  C   UNL     1     -10.090  20.138  66.484  1.00  0.00    -0.577 A  
HETATM   27  C   UNL     1     -10.751  19.054  65.905  1.00  0.00    -0.404 A  
HETATM   28  C   UNL     1      -9.966  18.925  68.569  1.00  0.00    -0.463 A  
HETATM   29  C   UNL     1     -11.024  17.904  66.661  1.00  0.00     0.193 A  
ENDBRANCH  20  24
ENDBRANCH  16  18
ENDBRANCH  13  16
BRANCH  15  30
HETATM   30  C   UNL     1      -9.981  10.202  69.412  1.00  0.00    -0.228 C  
HETATM   31  H2  UNL     1     -10.039   9.277  71.292  1.00  0.00     0.000 HD 
HETATM   32  N   UNL     1      -9.348   9.647  70.640  1.00  0.00    -0.325 NA 
HETATM   33  H1  UNL     1      -8.649   8.950  70.386  1.00  0.00     0.000 HD 
BRANCH  30  34
HETATM   34  C   UNL     1     -10.498   8.982  68.617  1.00  0.00    -0.229 C  
BRANCH  34  35
HETATM   35  C   UNL     1      -9.768   7.657  68.736  1.00  0.00    -0.153 A  
HETATM   36  C   UNL     1      -8.124   8.397  66.892  1.00  0.00    -0.099 C  
HETATM   37  C   UNL     1      -9.507   5.411  69.665  1.00  0.00    -0.194 A  
HETATM   38  C   UNL     1     -11.524   6.644  70.358  1.00  0.00    -0.444 C  
HETATM   39  C   UNL     1      -8.633   7.413  67.918  1.00  0.00    -0.125 A  
HETATM   40  C   UNL     1     -10.242   6.609  69.565  1.00  0.00    -0.208 A  
HETATM   41  C   UNL     1      -8.346   5.209  68.925  1.00  0.00    -0.087 A  
HETATM   42  C   UNL     1      -7.929   6.206  68.041  1.00  0.00    -0.110 A  
BRANCH  41  43
HETATM   43  C   UNL     1      -7.537   3.960  68.990  1.00  0.00    -0.054 C  
HETATM   44  H2  UNL     1      -8.593   3.019  67.466  1.00  0.00     0.000 HD 
HETATM   45  H1  UNL     1      -7.275   2.077  68.182  1.00  0.00     0.000 HD 
HETATM   46  N   UNL     1      -7.830   2.932  68.138  1.00  0.00    -0.055 N  
HETATM   47  O   UNL     1      -6.615   3.833  69.790  1.00  0.00    -0.032 OA 
ENDBRANCH  41  43
ENDBRANCH  34  35
ENDBRANCH  30  34
ENDBRANCH  15  30
ENDBRANCH  12  13
ENDBRANCH   6  12
ENDBRANCH   2   3
TORSDOF 10
ENDMDL
MODEL      157
REMARK 921   NORMALIZED FREE ENERGY PREDICTED BY IDOCK:   -4.06 KCAL/MOL
REMARK 922        TOTAL FREE ENERGY PREDICTED BY IDOCK:   -9.30 KCAL/MOL
REMARK 923 INTER-LIGAND FREE ENERGY PREDICTED BY IDOCK:   -9.47 KCAL/MOL
REMARK 924 INTRA-LIGAND FREE ENERGY PREDICTED BY IDOCK:    0.17 KCAL/MOL
REMARK 927      BINDING AFFINITY PREDICTED BY RF-SCORE:    0.00 PKD
ROOT
HETATM    1  C   UNL     1      -5.232  10.422  67.143  1.00  0.00    -0.040 C  
HETATM    2  O   UNL     1      -6.093  11.243  66.353  1.00  0.00    -0.140 OA 
ENDROOT
BRANCH   2   3
HETATM    3  C   UNL     1      -7.370  11.436  66.819  1.00  0.00    -0.135 A  
HETATM    4  C   UNL     1      -7.672  12.135  67.991  1.00  0.00    -0.134 A  
HETATM    5  C   UNL     1      -8.999  12.381  68.357  1.00  0.00    -0.133 A  
HETATM    6  C   UNL     1     -10.064  11.905  67.586  1.00  0.00    -0.202 A  
HETATM    7  C   UNL     1      -9.761  11.150  66.442  1.00  0.00    -0.235 A  
HETATM    8  C   UNL     1      -8.233  10.119  64.810  1.00  0.00    -0.161 C  
HETATM    9  O   UNL     1      -7.123  10.422  64.108  1.00  0.00    -0.089 OA 
HETATM   10  C   UNL     1      -8.428  10.923  66.049  1.00  0.00    -0.167 A  
HETATM   11  O   UNL     1      -9.055   9.299  64.429  1.00  0.00    -0.189 OA 
BRANCH   6  12
HETATM   12  C   UNL     1     -11.508  12.213  67.929  1.00  0.00    -0.328 C  
BRANCH  12  13
HETATM   13  N   UNL     1     -11.740  12.831  69.247  1.00  0.00    -0.307 N  
HETATM   14  O   UNL     1     -12.421  12.648  71.452  1.00  0.00    -0.257 OA 
HETATM   15  C   UNL     1     -12.082  12.087  70.402  1.00  0.00    -0.321 C  
BRANCH  13  16
HETATM   16  C   UNL     1     -11.938  14.303  69.286  1.00  0.00    -0.335 C  
HETATM   17  C   UNL     1     -11.415  14.975  70.569  1.00  0.00    -0.333 C  
BRANCH  16  18
HETATM   18  C   UNL     1     -11.273  14.980  68.106  1.00  0.00    -0.308 A  
HETATM   19  C   UNL     1     -11.148  15.839  66.060  1.00  0.00    -0.085 A  
HETATM   20  C   UNL     1     -10.262  16.471  66.906  1.00  0.00    -0.296 A  
HETATM   21  N   UNL     1     -10.320  15.893  68.154  1.00  0.00    -0.249 NA 
HETATM   22  H   UNL     1      -9.740  16.126  68.960  1.00  0.00     0.000 HD 
HETATM   23  N   UNL     1     -11.759  14.875  66.824  1.00  0.00    -0.293 NA 
BRANCH  20  24
HETATM   24  C   UNL     1      -9.445  17.643  66.624  1.00  0.00    -0.288 A  
HETATM   25  C   UNL     1      -9.325  20.058  66.285  1.00  0.00    -0.456 A  
HETATM   26  C   UNL     1      -7.979  19.956  65.945  1.00  0.00    -0.288 A  
HETATM   27  C   UNL     1      -7.357  18.707  65.959  1.00  0.00    -0.276 A  
HETATM   28  C   UNL     1     -10.049  18.912  66.623  1.00  0.00    -0.437 A  
HETATM   29  C   UNL     1      -8.083  17.557  66.301  1.00  0.00    -0.289 A  
ENDBRANCH  20  24
ENDBRANCH  16  18
ENDBRANCH  13  16
BRANCH  15  30
HETATM   30  C   UNL     1     -11.985  10.517  70.322  1.00  0.00    -0.325 C  
HETATM   31  H2  UNL     1     -12.447  10.466  68.278  1.00  0.00     0.000 HD 
HETATM   32  N   UNL     1     -12.748  10.020  69.144  1.00  0.00     0.295 NA 
HETATM   33  H1  UNL     1     -12.684   9.003  69.093  1.00  0.00     0.000 HD 
BRANCH  30  34
HETATM   34  C   UNL     1     -10.562   9.932  70.179  1.00  0.00    -0.350 C  
BRANCH  34  35
HETATM   35  C   UNL     1     -10.370   8.429  70.235  1.00  0.00    -0.212 A  
HETATM   36  C   UNL     1      -9.926   8.578  72.771  1.00  0.00    -0.193 C  
HETATM   37  C   UNL     1     -10.212   6.231  69.176  1.00  0.00    -0.229 A  
HETATM   38  C   UNL     1     -10.469   8.152  67.655  1.00  0.00    -0.300 C  
HETATM   39  C   UNL     1     -10.087   7.809  71.481  1.00  0.00    -0.212 A  
HETATM   40  C   UNL     1     -10.360   7.628  69.065  1.00  0.00    -0.220 A  
HETATM   41  C   UNL     1     -10.021   5.618  70.410  1.00  0.00    -0.267 A  
HETATM   42  C   UNL     1      -9.940   6.415  71.553  1.00  0.00    -0.200 A  
BRANCH  41  43
HETATM   43  C   UNL     1      -9.854   4.148  70.581  1.00  0.00    -0.179 C  
HETATM   44  H2  UNL     1      -9.830   4.241  72.658  1.00  0.00     0.000 HD 
HETATM   45  H1  UNL     1      -9.660   2.622  71.960  1.00  0.00     0.000 HD 
HETATM   46  N   UNL     1      -9.775   3.629  71.844  1.00  0.00    -0.157 N  
HETATM   47  O   UNL     1      -9.784   3.392  69.616  1.00  0.00    -0.144 OA 
ENDBRANCH  41  43
ENDBRANCH  34  35
ENDBRANCH  30  34
ENDBRANCH  15  30
ENDBRANCH  12  13
ENDBRANCH   6  12
ENDBRANCH   2   3
TORSDOF 10
ENDMDL
MODEL      158
REMARK 921   NORMALIZED FREE ENERGY PREDICTED BY IDOCK:   -4.05 KCAL/MOL
REMARK 922        TOTAL FREE ENERGY PREDICTED BY IDOCK:   -9.30 KCAL/MOL
REMARK 923 INTER-LIGAND FREE ENERGY PREDICTED BY IDOCK:  -10.02 KCAL/MOL
REMARK 924 INTRA-LIGAND FREE ENERGY PREDICTED BY IDOCK:    0.73 KCAL/MOL
REMARK 927      BINDING AFFINITY PREDICTED BY RF-SCORE:    0.00 PKD
ROOT
HETATM    1  C   UNL     1      -5.172  14.081  70.040  1.00  0.00    -0.091 C  
HETATM    2  O   UNL     1      -5.325  12.717  69.644  1.00  0.00    -0.073 OA 
ENDROOT
BRANCH   2   3
HETATM    3  C   UNL     1      -6.487  12.386  68.992  1.00  0.00    -0.097 A  
HETATM    4  C   UNL     1      -7.029  13.132  67.942  1.00  0.00    -0.132 A  
HETATM    5  C   UNL     1      -8.162  12.685  67.255  1.00  0.00    -0.184 A  
HETATM    6  C   UNL     1      -8.809  11.500  67.618  1.00  0.00    -0.152 A  
HETATM    7  C   UNL     1      -8.301  10.782  68.712  1.00  0.00    -0.147 A  
HETATM    8  C   UNL     1      -6.692  10.356  70.527  1.00  0.00    -0.031 C  
HETATM    9  O   UNL     1      -5.361  10.357  70.741  1.00  0.00    -0.063 OA 
HETATM   10  C   UNL     1      -7.143  11.208  69.391  1.00  0.00    -0.110 A  
HETATM   11  O   UNL     1      -7.465   9.658  71.165  1.00  0.00    -0.328 OA 
BRANCH   6  12
HETATM   12  C   UNL     1     -10.000  10.964  66.848  1.00  0.00    -0.194 C  
BRANCH  12  13
HETATM   13  N   UNL     1      -9.711  10.427  65.506  1.00  0.00    -0.229 N  
HETATM   14  O   UNL     1      -8.904   8.724  64.162  1.00  0.00    -0.067 OA 
HETATM   15  C   UNL     1      -9.287   9.096  65.279  1.00  0.00    -0.156 C  
BRANCH  13  16
HETATM   16  C   UNL     1      -9.547  11.406  64.400  1.00  0.00    -0.188 C  
HETATM   17  C   UNL     1     -10.001  10.884  63.025  1.00  0.00    -0.317 C  
BRANCH  16  18
HETATM   18  C   UNL     1     -10.305  12.687  64.681  1.00  0.00    -0.330 A  
HETATM   19  C   UNL     1     -12.038  13.927  65.312  1.00  0.00    -0.410 A  
HETATM   20  C   UNL     1     -10.854  14.589  65.555  1.00  0.00    -0.336 A  
HETATM   21  N   UNL     1      -9.796  13.826  65.114  1.00  0.00    -0.587 NA 
HETATM   22  H   UNL     1      -8.811  14.089  65.120  1.00  0.00     0.000 HD 
HETATM   23  N   UNL     1     -11.679  12.737  64.729  1.00  0.00    -0.335 NA 
BRANCH  20  24
HETATM   24  C   UNL     1     -10.668  15.848  66.264  1.00  0.00    -0.261 A  
HETATM   25  C   UNL     1     -10.587  17.039  68.394  1.00  0.00    -0.375 A  
HETATM   26  C   UNL     1     -10.464  18.253  67.724  1.00  0.00    -0.430 A  
HETATM   27  C   UNL     1     -10.426  18.271  66.330  1.00  0.00    -0.397 A  
HETATM   28  C   UNL     1     -10.686  15.849  67.669  1.00  0.00    -0.312 A  
HETATM   29  C   UNL     1     -10.522  17.076  65.603  1.00  0.00    -0.229 A  
ENDBRANCH  20  24
ENDBRANCH  16  18
ENDBRANCH  13  16
BRANCH  15  30
HETATM   30  C   UNL     1      -9.350   8.086  66.486  1.00  0.00    -0.205 C  
HETATM   31  H2  UNL     1      -8.035   9.217  67.664  1.00  0.00     0.000 HD 
HETATM   32  N   UNL     1      -8.150   8.253  67.351  1.00  0.00    -0.119 NA 
HETATM   33  H1  UNL     1      -8.191   7.600  68.133  1.00  0.00     0.000 HD 
BRANCH  30  34
HETATM   34  C   UNL     1     -10.569   8.228  67.425  1.00  0.00    -0.324 C  
BRANCH  34  35
HETATM   35  C   UNL     1     -10.573   7.489  68.750  1.00  0.00    -0.179 A  
HETATM   36  C   UNL     1     -10.405   5.241  67.496  1.00  0.00    -0.221 C  
HETATM   37  C   UNL     1     -10.736   7.427  71.189  1.00  0.00    -0.246 A  
HETATM   38  C   UNL     1     -11.070   9.628  70.134  1.00  0.00    -0.314 C  
HETATM   39  C   UNL     1     -10.476   6.072  68.755  1.00  0.00    -0.307 A  
HETATM   40  C   UNL     1     -10.776   8.157  69.984  1.00  0.00    -0.243 A  
HETATM   41  C   UNL     1     -10.554   6.048  71.194  1.00  0.00    -0.303 A  
HETATM   42  C   UNL     1     -10.445   5.377  69.974  1.00  0.00    -0.373 A  
BRANCH  41  43
HETATM   43  C   UNL     1     -10.510   5.229  72.438  1.00  0.00    -0.215 C  
HETATM   44  H2  UNL     1     -10.476   6.880  73.702  1.00  0.00     0.000 HD 
HETATM   45  H1  UNL     1     -10.443   5.300  74.502  1.00  0.00     0.000 HD 
HETATM   46  N   UNL     1     -10.473   5.861  73.650  1.00  0.00    -0.247 N  
HETATM   47  O   UNL     1     -10.506   4.002  72.400  1.00  0.00    -0.164 OA 
ENDBRANCH  41  43
ENDBRANCH  34  35
ENDBRANCH  30  34
ENDBRANCH  15  30
ENDBRANCH  12  13
ENDBRANCH   6  12
ENDBRANCH   2   3
TORSDOF 10
ENDMDL
MODEL      159
REMARK 921   NORMALIZED FREE ENERGY PREDICTED BY IDOCK:   -4.02 KCAL/MOL
REMARK 922        TOTAL FREE ENERGY PREDICTED BY IDOCK:   -9.24 KCAL/MOL
REMARK 923 INTER-LIGAND FREE ENERGY PREDICTED BY IDOCK:   -6.34 KCAL/MOL
REMARK 924 INTRA-LIGAND FREE ENERGY PREDICTED BY IDOCK:   -2.90 KCAL/MOL
REMARK 927      BINDING AFFINITY PREDICTED BY RF-SCORE:    0.00 PKD
ROOT
HETATM    1  C   UNL     1     -12.015  12.898  65.820  1.00  0.00    -0.443 C  
HETATM    2  O   UNL     1     -10.663  12.543  66.114  1.00  0.00    -0.254 OA 
ENDROOT
BRANCH   2   3
HETATM    3  C   UNL     1     -10.136  11.479  65.426  1.00  0.00    -0.260 A  
HETATM    4  C   UNL     1      -9.928  11.474  64.044  1.00  0.00    -0.341 A  
HETATM    5  C   UNL     1      -9.294  10.395  63.419  1.00  0.00    -0.334 A  
HETATM    6  C   UNL     1      -8.882   9.275  64.147  1.00  0.00    -0.178 A  
HETATM    7  C   UNL     1      -9.146   9.253  65.525  1.00  0.00    -0.275 A  
HETATM    8  C   UNL     1      -9.972  10.213  67.637  1.00  0.00    -0.181 C  
HETATM    9  O   UNL     1      -9.934  11.373  68.322  1.00  0.00    -0.185 OA 
HETATM   10  C   UNL     1      -9.756  10.347  66.169  1.00  0.00    -0.262 A  
HETATM   11  O   UNL     1     -10.102   9.127  68.181  1.00  0.00    -0.173 OA 
BRANCH   6  12
HETATM   12  C   UNL     1      -8.137   8.123  63.501  1.00  0.00    -0.113 C  
BRANCH  12  13
HETATM   13  N   UNL     1      -6.881   7.720  64.158  1.00  0.00    -0.060 N  
HETATM   14  O   UNL     1      -5.766   6.443  65.734  1.00  0.00    -0.020 OA 
HETATM   15  C   UNL     1      -6.800   6.654  65.087  1.00  0.00    -0.050 C  
BRANCH  13  16
HETATM   16  C   UNL     1      -5.738   8.668  64.088  1.00  0.00    -0.065 C  
HETATM   17  C   UNL     1      -5.810   9.654  62.907  1.00  0.00    -0.096 C  
BRANCH  16  18
HETATM   18  C   UNL     1      -5.617   9.480  65.361  1.00  0.00    -0.053 A  
HETATM   19  C   UNL     1      -5.977  11.207  66.712  1.00  0.00    -0.116 A  
HETATM   20  C   UNL     1      -5.767  10.056  67.441  1.00  0.00    -0.046 A  
HETATM   21  N   UNL     1      -5.499   9.009  66.588  1.00  0.00    -0.039 NA 
HETATM   22  H   UNL     1      -5.257   8.055  66.854  1.00  0.00     0.000 HD 
HETATM   23  N   UNL     1      -5.847  10.836  65.396  1.00  0.00    -0.116 NA 
BRANCH  20  24
HETATM   24  C   UNL     1      -5.904   9.878  68.880  1.00  0.00    -0.034 A  
HETATM   25  C   UNL     1      -5.291  10.603  71.129  1.00  0.00    -0.085 A  
HETATM   26  C   UNL     1      -5.987   9.531  71.679  1.00  0.00     0.002 A  
HETATM   27  C   UNL     1      -6.656   8.640  70.838  1.00  0.00    -0.049 A  
HETATM   28  C   UNL     1      -5.252  10.775  69.743  1.00  0.00    -0.039 A  
HETATM   29  C   UNL     1      -6.620   8.815  69.447  1.00  0.00    -0.045 A  
ENDBRANCH  20  24
ENDBRANCH  16  18
ENDBRANCH  13  16
BRANCH  15  30
HETATM   30  C   UNL     1      -8.057   5.719  65.246  1.00  0.00    -0.130 C  
HETATM   31  H2  UNL     1      -7.261   4.226  64.009  1.00  0.00     0.000 HD 
HETATM   32  N   UNL     1      -8.124   4.760  64.110  1.00  0.00    -0.105 NA 
HETATM   33  H1  UNL     1      -8.939   4.154  64.214  1.00  0.00     0.000 HD 
BRANCH  30  34
HETATM   34  C   UNL     1      -8.102   4.858  66.528  1.00  0.00    -0.107 C  
BRANCH  34  35
HETATM   35  C   UNL     1      -8.911   5.340  67.717  1.00  0.00    -0.110 A  
HETATM   36  C   UNL     1      -6.928   4.815  69.280  1.00  0.00    -0.051 C  
HETATM   37  C   UNL     1     -10.971   6.184  68.729  1.00  0.00    -0.421 A  
HETATM   38  C   UNL     1     -11.093   5.612  66.336  1.00  0.00     0.060 C  
HETATM   39  C   UNL     1      -8.323   5.326  69.010  1.00  0.00    -0.095 A  
HETATM   40  C   UNL     1     -10.275   5.709  67.599  1.00  0.00    -0.243 A  
HETATM   41  C   UNL     1     -10.363   6.250  69.979  1.00  0.00    -0.252 A  
HETATM   42  C   UNL     1      -9.048   5.801  70.114  1.00  0.00    -0.155 A  
BRANCH  41  43
HETATM   43  C   UNL     1     -11.055   6.737  71.205  1.00  0.00    -0.270 C  
HETATM   44  H2  UNL     1      -9.300   7.366  72.127  1.00  0.00     0.000 HD 
HETATM   45  H1  UNL     1     -10.788   7.623  73.052  1.00  0.00     0.000 HD 
HETATM   46  N   UNL     1     -10.314   7.289  72.213  1.00  0.00    -0.204 N  
HETATM   47  O   UNL     1     -12.273   6.654  71.331  1.00  0.00    -0.347 OA 
ENDBRANCH  41  43
ENDBRANCH  34  35
ENDBRANCH  30  34
ENDBRANCH  15  30
ENDBRANCH  12  13
ENDBRANCH   6  12
ENDBRANCH   2   3
TORSDOF 10
ENDMDL
MODEL      160
REMARK 921   NORMALIZED FREE ENERGY PREDICTED BY IDOCK:   -4.02 KCAL/MOL
REMARK 922        TOTAL FREE ENERGY PREDICTED BY IDOCK:   -9.24 KCAL/MOL
REMARK 923 INTER-LIGAND FREE ENERGY PREDICTED BY IDOCK:   -9.13 KCAL/MOL
REMARK 924 INTRA-LIGAND FREE ENERGY PREDICTED BY IDOCK:   -0.10 KCAL/MOL
REMARK 927      BINDING AFFINITY PREDICTED BY RF-SCORE:    0.00 PKD
ROOT
HETATM    1  C   UNL     1      -7.467   4.828  69.836  1.00  0.00    -0.055 C  
HETATM    2  O   UNL     1      -8.478   5.752  70.242  1.00  0.00    -0.124 OA 
ENDROOT
BRANCH   2   3
HETATM    3  C   UNL     1      -8.256   7.078  69.966  1.00  0.00    -0.133 A  
HETATM    4  C   UNL     1      -6.992   7.617  69.711  1.00  0.00    -0.051 A  
HETATM    5  C   UNL     1      -6.847   8.957  69.339  1.00  0.00    -0.049 A  
HETATM    6  C   UNL     1      -7.952   9.808  69.245  1.00  0.00    -0.112 A  
HETATM    7  C   UNL     1      -9.215   9.283  69.561  1.00  0.00    -0.168 A  
HETATM    8  C   UNL     1     -10.765   7.482  70.208  1.00  0.00    -0.238 C  
HETATM    9  O   UNL     1     -11.022   6.192  69.912  1.00  0.00    -0.316 OA 
HETATM   10  C   UNL     1      -9.375   7.927  69.907  1.00  0.00    -0.156 A  
HETATM   11  O   UNL     1     -11.620   8.250  70.623  1.00  0.00    -0.271 OA 
BRANCH   6  12
HETATM   12  C   UNL     1      -7.826  11.246  68.782  1.00  0.00    -0.139 C  
BRANCH  12  13
HETATM   13  N   UNL     1      -8.029  11.479  67.341  1.00  0.00    -0.136 N  
HETATM   14  O   UNL     1      -9.456  11.755  65.539  1.00  0.00    -0.227 OA 
HETATM   15  C   UNL     1      -9.301  11.719  66.767  1.00  0.00    -0.194 C  
BRANCH  13  16
HETATM   16  C   UNL     1      -6.911  11.128  66.428  1.00  0.00    -0.095 C  
HETATM   17  C   UNL     1      -5.512  11.397  67.013  1.00  0.00    -0.098 C  
BRANCH  16  18
HETATM   18  C   UNL     1      -6.968   9.670  66.021  1.00  0.00    -0.093 A  
HETATM   19  C   UNL     1      -6.308   7.549  65.960  1.00  0.00    -0.042 A  
HETATM   20  C   UNL     1      -7.673   7.637  65.792  1.00  0.00    -0.100 A  
HETATM   21  N   UNL     1      -8.056   8.959  65.785  1.00  0.00    -0.104 NA 
HETATM   22  H   UNL     1      -8.997   9.320  65.628  1.00  0.00     0.000 HD 
HETATM   23  N   UNL     1      -5.869   8.846  66.071  1.00  0.00    -0.050 NA 
BRANCH  20  24
HETATM   24  C   UNL     1      -8.635   6.544  65.738  1.00  0.00    -0.149 A  
HETATM   25  C   UNL     1     -10.639   5.494  66.655  1.00  0.00    -0.365 A  
HETATM   26  C   UNL     1     -10.469   4.402  65.810  1.00  0.00    -0.211 A  
HETATM   27  C   UNL     1      -9.397   4.381  64.917  1.00  0.00    -0.163 A  
HETATM   28  C   UNL     1      -9.731   6.555  66.617  1.00  0.00    -0.201 A  
HETATM   29  C   UNL     1      -8.488   5.448  64.876  1.00  0.00    -0.148 A  
ENDBRANCH  20  24
ENDBRANCH  16  18
ENDBRANCH  13  16
BRANCH  15  30
HETATM   30  C   UNL     1     -10.512  11.975  67.741  1.00  0.00    -0.203 C  
HETATM   31  H2  UNL     1      -9.433  13.319  68.933  1.00  0.00     0.000 HD 
HETATM   32  N   UNL     1     -10.015  12.489  69.046  1.00  0.00    -0.409 NA 
HETATM   33  H1  UNL     1     -10.800  12.654  69.676  1.00  0.00     0.000 HD 
BRANCH  30  34
HETATM   34  C   UNL     1     -11.565  12.998  67.259  1.00  0.00    -0.409 C  
BRANCH  34  35
HETATM   35  C   UNL     1     -11.277  14.480  67.400  1.00  0.00    -0.337 A  
HETATM   36  C   UNL     1     -10.260  14.508  65.030  1.00  0.00    -0.398 C  
HETATM   37  C   UNL     1     -11.242  16.562  68.682  1.00  0.00    -0.297 A  
HETATM   38  C   UNL     1     -11.961  14.547  69.903  1.00  0.00    -0.382 C  
HETATM   39  C   UNL     1     -10.673  15.177  66.319  1.00  0.00    -0.320 A  
HETATM   40  C   UNL     1     -11.495  15.177  68.615  1.00  0.00    -0.341 A  
HETATM   41  C   UNL     1     -10.731  17.258  67.592  1.00  0.00    -0.307 A  
HETATM   42  C   UNL     1     -10.431  16.555  66.423  1.00  0.00    -0.275 A  
BRANCH  41  43
HETATM   43  C   UNL     1     -10.441  18.719  67.612  1.00  0.00    -0.435 C  
HETATM   44  H2  UNL     1     -10.056  18.767  69.655  1.00  0.00     0.000 HD 
HETATM   45  H1  UNL     1      -9.909  20.316  68.809  1.00  0.00     0.000 HD 
HETATM   46  N   UNL     1     -10.107  19.316  68.796  1.00  0.00    -0.428 N  
HETATM   47  O   UNL     1     -10.497  19.400  66.592  1.00  0.00    -0.404 OA 
ENDBRANCH  41  43
ENDBRANCH  34  35
ENDBRANCH  30  34
ENDBRANCH  15  30
ENDBRANCH  12  13
ENDBRANCH   6  12
ENDBRANCH   2   3
TORSDOF 10
ENDMDL
MODEL      161
REMARK 921   NORMALIZED FREE ENERGY PREDICTED BY IDOCK:   -4.01 KCAL/MOL
REMARK 922        TOTAL FREE ENERGY PREDICTED BY IDOCK:   -9.23 KCAL/MOL
REMARK 923 INTER-LIGAND FREE ENERGY PREDICTED BY IDOCK:   -8.91 KCAL/MOL
REMARK 924 INTRA-LIGAND FREE ENERGY PREDICTED BY IDOCK:   -0.32 KCAL/MOL
REMARK 927      BINDING AFFINITY PREDICTED BY RF-SCORE:    0.00 PKD
ROOT
HETATM    1  C   UNL     1      -9.577   3.150  71.333  1.00  0.00    -0.157 C  
HETATM    2  O   UNL     1     -10.152   4.136  72.192  1.00  0.00    -0.177 OA 
ENDROOT
BRANCH   2   3
HETATM    3  C   UNL     1     -10.153   5.431  71.739  1.00  0.00    -0.196 A  
HETATM    4  C   UNL     1     -11.027   5.910  70.759  1.00  0.00    -0.343 A  
HETATM    5  C   UNL     1     -11.043   7.265  70.414  1.00  0.00    -0.291 A  
HETATM    6  C   UNL     1     -10.164   8.176  71.008  1.00  0.00    -0.221 A  
HETATM    7  C   UNL     1      -9.244   7.683  71.948  1.00  0.00    -0.167 A  
HETATM    8  C   UNL     1      -8.227   5.925  73.340  1.00  0.00    -0.115 C  
HETATM    9  O   UNL     1      -8.598   4.902  74.135  1.00  0.00    -0.111 OA 
HETATM   10  C   UNL     1      -9.240   6.326  72.324  1.00  0.00    -0.139 A  
HETATM   11  O   UNL     1      -7.173   6.527  73.483  1.00  0.00    -0.081 OA 
BRANCH   6  12
HETATM   12  C   UNL     1     -10.205   9.659  70.697  1.00  0.00    -0.278 C  
BRANCH  12  13
HETATM   13  N   UNL     1     -11.213  10.081  69.707  1.00  0.00    -0.257 N  
HETATM   14  O   UNL     1     -11.753  10.731  67.552  1.00  0.00    -0.510 OA 
HETATM   15  C   UNL     1     -10.930  10.227  68.327  1.00  0.00    -0.264 C  
BRANCH  13  16
HETATM   16  C   UNL     1     -12.470  10.681  70.225  1.00  0.00    -0.304 C  
HETATM   17  C   UNL     1     -12.860  10.203  71.636  1.00  0.00    -0.559 C  
BRANCH  16  18
HETATM   18  C   UNL     1     -12.387  12.193  70.257  1.00  0.00    -0.191 A  
HETATM   19  C   UNL     1     -12.094  14.193  71.178  1.00  0.00    -0.314 A  
HETATM   20  C   UNL     1     -11.730  14.213  69.848  1.00  0.00    -0.309 A  
HETATM   21  N   UNL     1     -11.964  12.980  69.285  1.00  0.00    -0.302 NA 
HETATM   22  H   UNL     1     -11.835  12.723  68.306  1.00  0.00     0.000 HD 
HETATM   23  N   UNL     1     -12.539  12.916  71.416  1.00  0.00    -0.283 NA 
BRANCH  20  24
HETATM   24  C   UNL     1     -11.088  15.298  69.118  1.00  0.00    -0.266 A  
HETATM   25  C   UNL     1      -9.883  16.033  67.126  1.00  0.00    -0.236 A  
HETATM   26  C   UNL     1      -9.700  17.294  67.687  1.00  0.00    -0.272 A  
HETATM   27  C   UNL     1     -10.221  17.569  68.951  1.00  0.00    -0.353 A  
HETATM   28  C   UNL     1     -10.573  15.047  67.836  1.00  0.00    -0.259 A  
HETATM   29  C   UNL     1     -10.916  16.579  69.662  1.00  0.00    -0.287 A  
ENDBRANCH  20  24
ENDBRANCH  16  18
ENDBRANCH  13  16
BRANCH  15  30
HETATM   30  C   UNL     1      -9.544   9.697  67.799  1.00  0.00    -0.139 C  
HETATM   31  H2  UNL     1      -8.444  10.803  69.199  1.00  0.00     0.000 HD 
HETATM   32  N   UNL     1      -8.457  10.634  68.193  1.00  0.00    -0.118 NA 
HETATM   33  H1  UNL     1      -7.560  10.290  67.851  1.00  0.00     0.000 HD 
BRANCH  30  34
HETATM   34  C   UNL     1      -9.110   8.307  68.316  1.00  0.00    -0.135 C  
BRANCH  34  35
HETATM   35  C   UNL     1      -8.489   7.317  67.348  1.00  0.00    -0.119 A  
HETATM   36  C   UNL     1     -10.796   6.222  66.989  1.00  0.00    -0.458 C  
HETATM   37  C   UNL     1      -6.569   6.342  66.191  1.00  0.00    -0.048 A  
HETATM   38  C   UNL     1      -6.062   8.093  67.848  1.00  0.00    -0.047 C  
HETATM   39  C   UNL     1      -9.316   6.350  66.718  1.00  0.00    -0.167 A  
HETATM   40  C   UNL     1      -7.090   7.257  67.127  1.00  0.00    -0.087 A  
HETATM   41  C   UNL     1      -7.395   5.452  65.510  1.00  0.00    -0.073 A  
HETATM   42  C   UNL     1      -8.762   5.450  65.794  1.00  0.00    -0.149 A  
BRANCH  41  43
HETATM   43  C   UNL     1      -6.895   4.462  64.516  1.00  0.00    -0.045 C  
HETATM   44  H2  UNL     1      -8.713   4.324  63.516  1.00  0.00     0.000 HD 
HETATM   45  H1  UNL     1      -7.404   3.318  62.873  1.00  0.00     0.000 HD 
HETATM   46  N   UNL     1      -7.747   3.996  63.553  1.00  0.00    -0.069 N  
HETATM   47  O   UNL     1      -5.738   4.054  64.542  1.00  0.00    -0.013 OA 
ENDBRANCH  41  43
ENDBRANCH  34  35
ENDBRANCH  30  34
ENDBRANCH  15  30
ENDBRANCH  12  13
ENDBRANCH   6  12
ENDBRANCH   2   3
TORSDOF 10
ENDMDL
MODEL      162
REMARK 921   NORMALIZED FREE ENERGY PREDICTED BY IDOCK:   -3.97 KCAL/MOL
REMARK 922        TOTAL FREE ENERGY PREDICTED BY IDOCK:   -9.17 KCAL/MOL
REMARK 923 INTER-LIGAND FREE ENERGY PREDICTED BY IDOCK:   -8.79 KCAL/MOL
REMARK 924 INTRA-LIGAND FREE ENERGY PREDICTED BY IDOCK:   -0.38 KCAL/MOL
REMARK 927      BINDING AFFINITY PREDICTED BY RF-SCORE:    0.00 PKD
ROOT
HETATM    1  C   UNL     1     -12.889  11.897  63.348  1.00  0.00    -0.256 C  
HETATM    2  O   UNL     1     -12.525  12.436  64.620  1.00  0.00    -0.466 OA 
ENDROOT
BRANCH   2   3
HETATM    3  C   UNL     1     -11.345  11.998  65.167  1.00  0.00    -0.304 A  
HETATM    4  C   UNL     1     -10.416  11.210  64.482  1.00  0.00    -0.415 A  
HETATM    5  C   UNL     1      -9.188  10.881  65.064  1.00  0.00    -0.233 A  
HETATM    6  C   UNL     1      -8.865  11.295  66.359  1.00  0.00    -0.184 A  
HETATM    7  C   UNL     1      -9.823  12.034  67.071  1.00  0.00    -0.205 A  
HETATM    8  C   UNL     1     -11.981  13.192  67.333  1.00  0.00    -0.327 C  
HETATM    9  O   UNL     1     -12.780  14.040  66.654  1.00  0.00    -0.255 OA 
HETATM   10  C   UNL     1     -11.051  12.396  66.483  1.00  0.00    -0.346 A  
HETATM   11  O   UNL     1     -11.966  13.128  68.552  1.00  0.00    -0.337 OA 
BRANCH   6  12
HETATM   12  C   UNL     1      -7.516  11.004  66.986  1.00  0.00    -0.127 C  
BRANCH  12  13
HETATM   13  N   UNL     1      -7.435  11.175  68.448  1.00  0.00    -0.096 N  
HETATM   14  O   UNL     1      -6.635  12.331  70.287  1.00  0.00     0.018 OA 
HETATM   15  C   UNL     1      -6.824  12.294  69.064  1.00  0.00    -0.094 C  
BRANCH  13  16
HETATM   16  C   UNL     1      -7.713   9.984  69.292  1.00  0.00    -0.117 C  
HETATM   17  C   UNL     1      -9.185   9.844  69.719  1.00  0.00    -0.252 C  
BRANCH  16  18
HETATM   18  C   UNL     1      -7.313   8.704  68.587  1.00  0.00    -0.081 A  
HETATM   19  C   UNL     1      -6.111   6.869  68.231  1.00  0.00    -0.033 A  
HETATM   20  C   UNL     1      -7.405   6.695  67.788  1.00  0.00    -0.096 A  
HETATM   21  N   UNL     1      -8.119   7.857  67.973  1.00  0.00    -0.124 NA 
HETATM   22  H   UNL     1      -9.084   8.031  67.691  1.00  0.00     0.000 HD 
HETATM   23  N   UNL     1      -6.057   8.157  68.705  1.00  0.00    -0.043 NA 
BRANCH  20  24
HETATM   24  C   UNL     1      -8.019   5.470  67.295  1.00  0.00    -0.101 A  
HETATM   25  C   UNL     1      -9.449   3.541  67.735  1.00  0.00    -0.230 A  
HETATM   26  C   UNL     1      -9.142   3.011  66.486  1.00  0.00    -0.163 A  
HETATM   27  C   UNL     1      -8.290   3.711  65.631  1.00  0.00    -0.105 A  
HETATM   28  C   UNL     1      -8.894   4.760  68.134  1.00  0.00    -0.116 A  
HETATM   29  C   UNL     1      -7.735   4.936  66.029  1.00  0.00    -0.091 A  
ENDBRANCH  20  24
ENDBRANCH  16  18
ENDBRANCH  13  16
BRANCH  15  30
HETATM   30  C   UNL     1      -6.421  13.511  68.149  1.00  0.00    -0.123 C  
HETATM   31  H2  UNL     1      -5.597  12.283  66.663  1.00  0.00     0.000 HD 
HETATM   32  N   UNL     1      -5.340  13.104  67.210  1.00  0.00    -0.344 NA 
HETATM   33  H1  UNL     1      -5.080  13.892  66.617  1.00  0.00     0.000 HD 
BRANCH  30  34
HETATM   34  C   UNL     1      -7.546  14.096  67.267  1.00  0.00    -0.104 C  
BRANCH  34  35
HETATM   35  C   UNL     1      -8.059  15.495  67.552  1.00  0.00    -0.185 A  
HETATM   36  C   UNL     1      -9.609  15.346  65.496  1.00  0.00    -0.253 C  
HETATM   37  C   UNL     1      -8.044  17.585  68.821  1.00  0.00    -0.232 A  
HETATM   38  C   UNL     1      -6.333  15.925  69.443  1.00  0.00    -0.160 C  
HETATM   39  C   UNL     1      -9.052  16.058  66.706  1.00  0.00    -0.271 A  
HETATM   40  C   UNL     1      -7.507  16.305  68.576  1.00  0.00    -0.176 A  
HETATM   41  C   UNL     1      -9.077  18.098  68.044  1.00  0.00    -0.289 A  
HETATM   42  C   UNL     1      -9.560  17.337  66.978  1.00  0.00    -0.262 A  
BRANCH  41  43
HETATM   43  C   UNL     1      -9.675  19.445  68.257  1.00  0.00    -0.397 C  
HETATM   44  H2  UNL     1      -9.228  20.113  66.339  1.00  0.00     0.000 HD 
HETATM   45  H1  UNL     1     -10.061  21.277  67.383  1.00  0.00     0.000 HD 
HETATM   46  N   UNL     1      -9.651  20.355  67.236  1.00  0.00    -0.434 N  
HETATM   47  O   UNL     1     -10.189  19.758  69.327  1.00  0.00    -0.381 OA 
ENDBRANCH  41  43
ENDBRANCH  34  35
ENDBRANCH  30  34
ENDBRANCH  15  30
ENDBRANCH  12  13
ENDBRANCH   6  12
ENDBRANCH   2   3
TORSDOF 10
ENDMDL
MODEL      163
REMARK 921   NORMALIZED FREE ENERGY PREDICTED BY IDOCK:   -3.97 KCAL/MOL
REMARK 922        TOTAL FREE ENERGY PREDICTED BY IDOCK:   -9.16 KCAL/MOL
REMARK 923 INTER-LIGAND FREE ENERGY PREDICTED BY IDOCK:   -8.37 KCAL/MOL
REMARK 924 INTRA-LIGAND FREE ENERGY PREDICTED BY IDOCK:   -0.79 KCAL/MOL
REMARK 927      BINDING AFFINITY PREDICTED BY RF-SCORE:    0.00 PKD
ROOT
HETATM    1  C   UNL     1      -9.522  10.121  62.512  1.00  0.00    -0.235 C  
HETATM    2  O   UNL     1      -8.549   9.956  63.545  1.00  0.00    -0.164 OA 
ENDROOT
BRANCH   2   3
HETATM    3  C   UNL     1      -8.898  10.383  64.802  1.00  0.00    -0.193 A  
HETATM    4  C   UNL     1     -10.214  10.637  65.199  1.00  0.00    -0.368 A  
HETATM    5  C   UNL     1     -10.510  10.974  66.524  1.00  0.00    -0.309 A  
HETATM    6  C   UNL     1      -9.501  11.103  67.483  1.00  0.00    -0.178 A  
HETATM    7  C   UNL     1      -8.173  10.908  67.070  1.00  0.00    -0.134 A  
HETATM    8  C   UNL     1      -6.424  10.347  65.431  1.00  0.00    -0.115 C  
HETATM    9  O   UNL     1      -6.171   9.437  64.468  1.00  0.00    -0.074 OA 
HETATM   10  C   UNL     1      -7.867  10.539  65.746  1.00  0.00    -0.154 A  
HETATM   11  O   UNL     1      -5.539  10.920  66.048  1.00  0.00    -0.115 OA 
BRANCH   6  12
HETATM   12  C   UNL     1      -9.804  11.405  68.937  1.00  0.00    -0.112 C  
BRANCH  12  13
HETATM   13  N   UNL     1     -10.778  10.512  69.591  1.00  0.00    -0.251 N  
HETATM   14  O   UNL     1     -11.546   8.376  70.044  1.00  0.00    -0.016 OA 
HETATM   15  C   UNL     1     -10.636   9.104  69.625  1.00  0.00    -0.228 C  
BRANCH  13  16
HETATM   16  C   UNL     1     -12.105  11.085  69.935  1.00  0.00    -0.361 C  
HETATM   17  C   UNL     1     -12.544  10.826  71.389  1.00  0.00    -0.516 C  
BRANCH  16  18
HETATM   18  C   UNL     1     -12.137  12.581  69.703  1.00  0.00    -0.207 A  
HETATM   19  C   UNL     1     -11.892  14.726  70.232  1.00  0.00    -0.302 A  
HETATM   20  C   UNL     1     -11.693  14.533  68.882  1.00  0.00    -0.319 A  
HETATM   21  N   UNL     1     -11.895  13.208  68.567  1.00  0.00    -0.340 NA 
HETATM   22  H   UNL     1     -11.865  12.792  67.636  1.00  0.00     0.000 HD 
HETATM   23  N   UNL     1     -12.205  13.487  70.736  1.00  0.00    -0.356 NA 
BRANCH  20  24
HETATM   24  C   UNL     1     -11.229  15.508  67.903  1.00  0.00    -0.325 A  
HETATM   25  C   UNL     1     -10.460  15.965  65.632  1.00  0.00    -0.411 A  
HETATM   26  C   UNL     1     -10.190  17.287  65.976  1.00  0.00    -0.314 A  
HETATM   27  C   UNL     1     -10.453  17.729  67.273  1.00  0.00    -0.356 A  
HETATM   28  C   UNL     1     -10.976  15.086  66.588  1.00  0.00    -0.325 A  
HETATM   29  C   UNL     1     -10.974  16.847  68.231  1.00  0.00    -0.298 A  
ENDBRANCH  20  24
ENDBRANCH  16  18
ENDBRANCH  13  16
BRANCH  15  30
HETATM   30  C   UNL     1      -9.267   8.489  69.147  1.00  0.00    -0.150 C  
HETATM   31  H2  UNL     1      -8.893   7.564  70.990  1.00  0.00     0.000 HD 
HETATM   32  N   UNL     1      -8.414   8.169  70.324  1.00  0.00    -0.124 NA 
HETATM   33  H1  UNL     1      -7.528   7.772  70.013  1.00  0.00     0.000 HD 
BRANCH  30  34
HETATM   34  C   UNL     1      -9.360   7.183  68.328  1.00  0.00    -0.130 C  
BRANCH  34  35
HETATM   35  C   UNL     1      -8.633   5.946  68.820  1.00  0.00    -0.110 A  
HETATM   36  C   UNL     1      -6.733   6.392  67.134  1.00  0.00    -0.060 C  
HETATM   37  C   UNL     1      -8.478   3.942  70.212  1.00  0.00    -0.091 A  
HETATM   38  C   UNL     1     -10.603   5.182  70.330  1.00  0.00    -0.230 C  
HETATM   39  C   UNL     1      -7.378   5.604  68.249  1.00  0.00    -0.076 A  
HETATM   40  C   UNL     1      -9.211   5.058  69.762  1.00  0.00    -0.168 A  
HETATM   41  C   UNL     1      -7.211   3.658  69.712  1.00  0.00    -0.042 A  
HETATM   42  C   UNL     1      -6.678   4.481  68.718  1.00  0.00    -0.046 A  
BRANCH  41  43
HETATM   43  C   UNL     1      -6.397   2.489  70.149  1.00  0.00    -0.024 C  
HETATM   44  H2  UNL     1      -4.823   2.912  68.857  1.00  0.00     0.000 HD 
HETATM   45  H1  UNL     1      -4.617   1.477  69.874  1.00  0.00     0.000 HD 
HETATM   46  N   UNL     1      -5.174   2.277  69.575  1.00  0.00    -0.011 N  
HETATM   47  O   UNL     1      -6.799   1.712  71.010  1.00  0.00    -0.030 OA 
ENDBRANCH  41  43
ENDBRANCH  34  35
ENDBRANCH  30  34
ENDBRANCH  15  30
ENDBRANCH  12  13
ENDBRANCH   6  12
ENDBRANCH   2   3
TORSDOF 10
ENDMDL
MODEL      164
REMARK 921   NORMALIZED FREE ENERGY PREDICTED BY IDOCK:   -3.97 KCAL/MOL
REMARK 922        TOTAL FREE ENERGY PREDICTED BY IDOCK:   -9.16 KCAL/MOL
REMARK 923 INTER-LIGAND FREE ENERGY PREDICTED BY IDOCK:   -8.98 KCAL/MOL
REMARK 924 INTRA-LIGAND FREE ENERGY PREDICTED BY IDOCK:   -0.18 KCAL/MOL
REMARK 927      BINDING AFFINITY PREDICTED BY RF-SCORE:    0.00 PKD
ROOT
HETATM    1  C   UNL     1     -10.856  16.256  68.135  1.00  0.00    -0.342 C  
HETATM    2  O   UNL     1     -10.010  15.539  67.234  1.00  0.00    -0.234 OA 
ENDROOT
BRANCH   2   3
HETATM    3  C   UNL     1      -9.237  14.539  67.768  1.00  0.00    -0.194 A  
HETATM    4  C   UNL     1      -9.759  13.373  68.334  1.00  0.00    -0.201 A  
HETATM    5  C   UNL     1      -8.913  12.348  68.771  1.00  0.00     0.150 A  
HETATM    6  C   UNL     1      -7.523  12.472  68.690  1.00  0.00    -0.090 A  
HETATM    7  C   UNL     1      -6.997  13.669  68.179  1.00  0.00    -0.119 A  
HETATM    8  C   UNL     1      -7.167  15.911  67.175  1.00  0.00    -0.219 C  
HETATM    9  O   UNL     1      -7.845  16.553  66.203  1.00  0.00    -0.291 OA 
HETATM   10  C   UNL     1      -7.841  14.694  67.708  1.00  0.00    -0.165 A  
HETATM   11  O   UNL     1      -6.055  16.255  67.545  1.00  0.00    -0.136 OA 
BRANCH   6  12
HETATM   12  C   UNL     1      -6.588  11.350  69.098  1.00  0.00    -0.095 C  
BRANCH  12  13
HETATM   13  N   UNL     1      -6.636  10.136  68.264  1.00  0.00    -0.054 N  
HETATM   14  O   UNL     1      -6.690   7.828  68.087  1.00  0.00    -0.062 OA 
HETATM   15  C   UNL     1      -6.810   8.835  68.797  1.00  0.00    -0.062 C  
BRANCH  13  16
HETATM   16  C   UNL     1      -6.164  10.253  66.859  1.00  0.00    -0.068 C  
HETATM   17  C   UNL     1      -5.208   9.128  66.421  1.00  0.00    -0.036 C  
BRANCH  16  18
HETATM   18  C   UNL     1      -7.325  10.277  65.887  1.00  0.00    -0.131 A  
HETATM   19  C   UNL     1      -8.947   9.415  64.637  1.00  0.00    -0.187 A  
HETATM   20  C   UNL     1      -9.268  10.697  65.032  1.00  0.00    -0.211 A  
HETATM   21  N   UNL     1      -8.231  11.229  65.764  1.00  0.00    -0.366 NA 
HETATM   22  H   UNL     1      -8.174  12.176  66.139  1.00  0.00     0.000 HD 
HETATM   23  N   UNL     1      -7.700   9.173  65.158  1.00  0.00    -0.101 NA 
BRANCH  20  24
HETATM   24  C   UNL     1     -10.530  11.398  64.839  1.00  0.00    -0.363 A  
HETATM   25  C   UNL     1     -12.239  12.209  63.296  1.00  0.00    -0.533 A  
HETATM   26  C   UNL     1     -12.892  12.858  64.340  1.00  0.00    -0.235 A  
HETATM   27  C   UNL     1     -12.380  12.767  65.635  1.00  0.00    -0.444 A  
HETATM   28  C   UNL     1     -11.071  11.484  63.545  1.00  0.00    -0.434 A  
HETATM   29  C   UNL     1     -11.209  12.037  65.886  1.00  0.00    -0.385 A  
ENDBRANCH  20  24
ENDBRANCH  16  18
ENDBRANCH  13  16
BRANCH  15  30
HETATM   30  C   UNL     1      -7.195   8.709  70.318  1.00  0.00    -0.049 C  
HETATM   31  H2  UNL     1      -8.911   9.895  70.112  1.00  0.00     0.000 HD 
HETATM   32  N   UNL     1      -8.089   9.833  70.711  1.00  0.00    -0.389 NA 
HETATM   33  H1  UNL     1      -8.338   9.750  71.697  1.00  0.00     0.000 HD 
BRANCH  30  34
HETATM   34  C   UNL     1      -7.941   7.417  70.723  1.00  0.00    -0.104 C  
BRANCH  34  35
HETATM   35  C   UNL     1      -9.444   7.462  70.926  1.00  0.00    -0.165 A  
HETATM   36  C   UNL     1      -9.092   7.849  73.451  1.00  0.00    -0.347 C  
HETATM   37  C   UNL     1     -11.740   7.274  70.108  1.00  0.00    -0.095 A  
HETATM   38  C   UNL     1      -9.964   6.757  68.482  1.00  0.00    -0.149 C  
HETATM   39  C   UNL     1      -9.964   7.687  72.229  1.00  0.00    -0.242 A  
HETATM   40  C   UNL     1     -10.353   7.184  69.874  1.00  0.00    -0.224 A  
HETATM   41  C   UNL     1     -12.245   7.580  71.368  1.00  0.00    -0.363 A  
HETATM   42  C   UNL     1     -11.351   7.765  72.425  1.00  0.00    -0.400 A  
BRANCH  41  43
HETATM   43  C   UNL     1     -13.700   7.681  71.669  1.00  0.00    -0.374 C  
HETATM   44  H2  UNL     1     -13.837   5.736  72.394  1.00  0.00     0.000 HD 
HETATM   45  H1  UNL     1     -15.342   6.670  72.410  1.00  0.00     0.000 HD 
HETATM   46  N   UNL     1     -14.346   6.600  72.204  1.00  0.00    -0.082 N  
HETATM   47  O   UNL     1     -14.332   8.709  71.448  1.00  0.00    -0.386 OA 
ENDBRANCH  41  43
ENDBRANCH  34  35
ENDBRANCH  30  34
ENDBRANCH  15  30
ENDBRANCH  12  13
ENDBRANCH   6  12
ENDBRANCH   2   3
TORSDOF 10
ENDMDL
MODEL      165
REMARK 921   NORMALIZED FREE ENERGY PREDICTED BY IDOCK:   -3.96 KCAL/MOL
REMARK 922        TOTAL FREE ENERGY PREDICTED BY IDOCK:   -9.14 KCAL/MOL
REMARK 923 INTER-LIGAND FREE ENERGY PREDICTED BY IDOCK:   -9.74 KCAL/MOL
REMARK 924 INTRA-LIGAND FREE ENERGY PREDICTED BY IDOCK:    0.60 KCAL/MOL
REMARK 927      BINDING AFFINITY PREDICTED BY RF-SCORE:    0.00 PKD
ROOT
HETATM    1  C   UNL     1     -12.936  14.300  73.326  1.00  0.00    -0.177 C  
HETATM    2  O   UNL     1     -13.710  13.657  72.313  1.00  0.00    -0.496 OA 
ENDROOT
BRANCH   2   3
HETATM    3  C   UNL     1     -13.022  12.951  71.358  1.00  0.00    -0.270 A  
HETATM    4  C   UNL     1     -12.819  11.569  71.409  1.00  0.00    -0.489 A  
HETATM    5  C   UNL     1     -12.194  10.898  70.353  1.00  0.00    -0.453 A  
HETATM    6  C   UNL     1     -11.721  11.587  69.233  1.00  0.00    -0.397 A  
HETATM    7  C   UNL     1     -11.869  12.983  69.210  1.00  0.00    -0.370 A  
HETATM    8  C   UNL     1     -12.631  15.144  70.110  1.00  0.00    -0.279 C  
HETATM    9  O   UNL     1     -13.721  15.690  70.687  1.00  0.00    -0.402 OA 
HETATM   10  C   UNL     1     -12.523  13.665  70.254  1.00  0.00    -0.335 A  
HETATM   11  O   UNL     1     -11.830  15.797  69.460  1.00  0.00    -0.354 OA 
BRANCH   6  12
HETATM   12  C   UNL     1     -11.098  10.873  68.050  1.00  0.00    -0.293 C  
BRANCH  12  13
HETATM   13  N   UNL     1      -9.628  10.934  67.961  1.00  0.00    -0.159 N  
HETATM   14  O   UNL     1      -7.715  11.540  66.808  1.00  0.00    -0.151 OA 
HETATM   15  C   UNL     1      -8.941  11.638  66.943  1.00  0.00    -0.191 C  
BRANCH  13  16
HETATM   16  C   UNL     1      -8.854   9.960  68.775  1.00  0.00    -0.136 C  
HETATM   17  C   UNL     1      -9.400   9.757  70.200  1.00  0.00    -0.261 C  
BRANCH  16  18
HETATM   18  C   UNL     1      -8.798   8.603  68.104  1.00  0.00    -0.142 A  
HETATM   19  C   UNL     1      -9.192   7.106  66.510  1.00  0.00    -0.162 A  
HETATM   20  C   UNL     1      -8.017   6.815  67.170  1.00  0.00    -0.116 A  
HETATM   21  N   UNL     1      -7.816   7.725  68.183  1.00  0.00    -0.119 NA 
HETATM   22  H   UNL     1      -7.056   7.721  68.863  1.00  0.00     0.000 HD 
HETATM   23  N   UNL     1      -9.694   8.223  67.132  1.00  0.00    -0.177 NA 
BRANCH  20  24
HETATM   24  C   UNL     1      -7.037   5.791  66.831  1.00  0.00    -0.070 A  
HETATM   25  C   UNL     1      -5.181   5.081  65.413  1.00  0.00    -0.012 A  
HETATM   26  C   UNL     1      -5.195   3.822  66.004  1.00  0.00    -0.009 A  
HETATM   27  C   UNL     1      -6.113   3.545  67.018  1.00  0.00    -0.025 A  
HETATM   28  C   UNL     1      -6.093   6.056  65.825  1.00  0.00    -0.029 A  
HETATM   29  C   UNL     1      -7.026   4.525  67.434  1.00  0.00    -0.060 A  
ENDBRANCH  20  24
ENDBRANCH  16  18
ENDBRANCH  13  16
BRANCH  15  30
HETATM   30  C   UNL     1      -9.783  12.581  66.004  1.00  0.00    -0.241 C  
HETATM   31  H2  UNL     1     -11.359  11.210  65.829  1.00  0.00     0.000 HD 
HETATM   32  N   UNL     1     -10.765  11.778  65.225  1.00  0.00    -0.279 NA 
HETATM   33  H1  UNL     1     -11.310  12.389  64.617  1.00  0.00     0.000 HD 
BRANCH  30  34
HETATM   34  C   UNL     1     -10.606  13.682  66.710  1.00  0.00    -0.273 C  
BRANCH  34  35
HETATM   35  C   UNL     1     -10.036  15.084  66.809  1.00  0.00    -0.254 A  
HETATM   36  C   UNL     1     -11.405  15.787  64.739  1.00  0.00    -0.319 C  
HETATM   37  C   UNL     1      -8.555  16.748  67.818  1.00  0.00    -0.199 A  
HETATM   38  C   UNL     1      -8.358  14.451  68.687  1.00  0.00    -0.147 C  
HETATM   39  C   UNL     1     -10.446  16.069  65.872  1.00  0.00    -0.373 A  
HETATM   40  C   UNL     1      -9.026  15.421  67.745  1.00  0.00    -0.173 A  
HETATM   41  C   UNL     1      -9.024  17.732  66.953  1.00  0.00    -0.265 A  
HETATM   42  C   UNL     1      -9.953  17.379  65.972  1.00  0.00    -0.230 A  
BRANCH  41  43
HETATM   43  C   UNL     1      -8.557  19.145  66.985  1.00  0.00    -0.290 C  
HETATM   44  H2  UNL     1      -8.956  19.480  64.972  1.00  0.00     0.000 HD 
HETATM   45  H1  UNL     1      -8.284  20.857  65.861  1.00  0.00     0.000 HD 
HETATM   46  N   UNL     1      -8.604  19.889  65.838  1.00  0.00    -0.266 N  
HETATM   47  O   UNL     1      -8.129  19.658  68.015  1.00  0.00    -0.297 OA 
ENDBRANCH  41  43
ENDBRANCH  34  35
ENDBRANCH  30  34
ENDBRANCH  15  30
ENDBRANCH  12  13
ENDBRANCH   6  12
ENDBRANCH   2   3
TORSDOF 10
ENDMDL
MODEL      166
REMARK 921   NORMALIZED FREE ENERGY PREDICTED BY IDOCK:   -3.95 KCAL/MOL
REMARK 922        TOTAL FREE ENERGY PREDICTED BY IDOCK:   -9.13 KCAL/MOL
REMARK 923 INTER-LIGAND FREE ENERGY PREDICTED BY IDOCK:   -9.47 KCAL/MOL
REMARK 924 INTRA-LIGAND FREE ENERGY PREDICTED BY IDOCK:    0.34 KCAL/MOL
REMARK 927      BINDING AFFINITY PREDICTED BY RF-SCORE:    0.00 PKD
ROOT
HETATM    1  C   UNL     1     -14.411  15.369  71.007  1.00  0.00    -0.027 C  
HETATM    2  O   UNL     1     -13.099  14.828  71.174  1.00  0.00    -0.343 OA 
ENDROOT
BRANCH   2   3
HETATM    3  C   UNL     1     -12.643  13.987  70.190  1.00  0.00    -0.251 A  
HETATM    4  C   UNL     1     -12.265  14.416  68.915  1.00  0.00    -0.214 A  
HETATM    5  C   UNL     1     -11.715  13.521  67.992  1.00  0.00    -0.394 A  
HETATM    6  C   UNL     1     -11.559  12.166  68.300  1.00  0.00    -0.382 A  
HETATM    7  C   UNL     1     -11.996  11.723  69.558  1.00  0.00    -0.364 A  
HETATM    8  C   UNL     1     -12.940  12.036  71.811  1.00  0.00    -0.340 C  
HETATM    9  O   UNL     1     -12.827  12.868  72.865  1.00  0.00     0.054 OA 
HETATM   10  C   UNL     1     -12.523  12.622  70.506  1.00  0.00    -0.273 A  
HETATM   11  O   UNL     1     -13.289  10.871  71.921  1.00  0.00    -0.421 OA 
BRANCH   6  12
HETATM   12  C   UNL     1     -10.908  11.191  67.339  1.00  0.00    -0.266 C  
BRANCH  12  13
HETATM   13  N   UNL     1      -9.508  11.480  66.979  1.00  0.00    -0.180 N  
HETATM   14  O   UNL     1      -7.516  10.823  65.998  1.00  0.00    -0.149 OA 
HETATM   15  C   UNL     1      -8.730  10.632  66.153  1.00  0.00    -0.170 C  
BRANCH  13  16
HETATM   16  C   UNL     1      -8.800  12.519  67.770  1.00  0.00    -0.178 C  
HETATM   17  C   UNL     1      -7.314  12.209  68.031  1.00  0.00    -0.105 C  
BRANCH  16  18
HETATM   18  C   UNL     1      -8.876  13.873  67.095  1.00  0.00    -0.226 A  
HETATM   19  C   UNL     1      -9.585  15.367  65.611  1.00  0.00    -0.288 A  
HETATM   20  C   UNL     1      -9.218  15.987  66.785  1.00  0.00    -0.240 A  
HETATM   21  N   UNL     1      -8.737  15.052  67.674  1.00  0.00    -0.170 NA 
HETATM   22  H   UNL     1      -8.349  15.234  68.599  1.00  0.00     0.000 HD 
HETATM   23  N   UNL     1      -9.334  14.031  65.808  1.00  0.00     0.004 NA 
BRANCH  20  24
HETATM   24  C   UNL     1      -9.388  17.390  67.142  1.00  0.00    -0.246 A  
HETATM   25  C   UNL     1     -10.446  19.538  66.669  1.00  0.00    -0.593 A  
HETATM   26  C   UNL     1      -9.682  20.147  67.660  1.00  0.00    -0.551 A  
HETATM   27  C   UNL     1      -8.783  19.382  68.405  1.00  0.00    -0.397 A  
HETATM   28  C   UNL     1     -10.301  18.172  66.415  1.00  0.00    -0.404 A  
HETATM   29  C   UNL     1      -8.640  18.010  68.152  1.00  0.00    -0.277 A  
ENDBRANCH  20  24
ENDBRANCH  16  18
ENDBRANCH  13  16
BRANCH  15  30
HETATM   30  C   UNL     1      -9.463   9.456  65.407  1.00  0.00    -0.253 C  
HETATM   31  H2  UNL     1      -9.039  10.229  63.505  1.00  0.00     0.000 HD 
HETATM   32  N   UNL     1      -9.840   9.883  64.032  1.00  0.00    -0.467 NA 
HETATM   33  H1  UNL     1     -10.315   9.121  63.549  1.00  0.00     0.000 HD 
BRANCH  30  34
HETATM   34  C   UNL     1      -8.651   8.152  65.234  1.00  0.00    -0.132 C  
BRANCH  34  35
HETATM   35  C   UNL     1      -8.345   7.303  66.453  1.00  0.00    -0.124 A  
HETATM   36  C   UNL     1     -10.870   7.046  66.909  1.00  0.00    -0.350 C  
HETATM   37  C   UNL     1      -6.788   6.276  68.034  1.00  0.00    -0.070 A  
HETATM   38  C   UNL     1      -5.788   7.737  66.321  1.00  0.00    -0.037 C  
HETATM   39  C   UNL     1      -9.417   6.775  67.220  1.00  0.00    -0.156 A  
HETATM   40  C   UNL     1      -7.020   7.102  66.916  1.00  0.00    -0.077 A  
HETATM   41  C   UNL     1      -7.839   5.689  68.732  1.00  0.00    -0.096 A  
HETATM   42  C   UNL     1      -9.149   5.960  68.331  1.00  0.00    -0.115 A  
BRANCH  41  43
HETATM   43  C   UNL     1      -7.649   4.813  69.922  1.00  0.00    -0.055 C  
HETATM   44  H2  UNL     1      -8.475   6.185  71.250  1.00  0.00     0.000 HD 
HETATM   45  H1  UNL     1      -7.920   4.662  71.964  1.00  0.00     0.000 HD 
HETATM   46  N   UNL     1      -8.050   5.262  71.150  1.00  0.00    -0.107 N  
HETATM   47  O   UNL     1      -7.141   3.701  69.826  1.00  0.00    -0.041 OA 
ENDBRANCH  41  43
ENDBRANCH  34  35
ENDBRANCH  30  34
ENDBRANCH  15  30
ENDBRANCH  12  13
ENDBRANCH   6  12
ENDBRANCH   2   3
TORSDOF 10
ENDMDL
MODEL      167
REMARK 921   NORMALIZED FREE ENERGY PREDICTED BY IDOCK:   -3.94 KCAL/MOL
REMARK 922        TOTAL FREE ENERGY PREDICTED BY IDOCK:   -9.12 KCAL/MOL
REMARK 923 INTER-LIGAND FREE ENERGY PREDICTED BY IDOCK:   -9.29 KCAL/MOL
REMARK 924 INTRA-LIGAND FREE ENERGY PREDICTED BY IDOCK:    0.17 KCAL/MOL
REMARK 927      BINDING AFFINITY PREDICTED BY RF-SCORE:    0.00 PKD
ROOT
HETATM    1  C   UNL     1     -10.753  19.307  65.718  1.00  0.00    -0.330 C  
HETATM    2  O   UNL     1      -9.947  18.344  66.400  1.00  0.00    -0.351 OA 
ENDROOT
BRANCH   2   3
HETATM    3  C   UNL     1     -10.425  17.058  66.452  1.00  0.00    -0.252 A  
HETATM    4  C   UNL     1     -10.782  16.316  65.323  1.00  0.00    -0.349 A  
HETATM    5  C   UNL     1     -11.167  14.977  65.439  1.00  0.00    -0.356 A  
HETATM    6  C   UNL     1     -11.243  14.349  66.686  1.00  0.00    -0.340 A  
HETATM    7  C   UNL     1     -10.944  15.112  67.825  1.00  0.00    -0.306 A  
HETATM    8  C   UNL     1     -10.223  17.155  68.995  1.00  0.00    -0.315 C  
HETATM    9  O   UNL     1      -9.277  18.112  68.904  1.00  0.00    -0.262 OA 
HETATM   10  C   UNL     1     -10.525  16.453  67.717  1.00  0.00    -0.300 A  
HETATM   11  O   UNL     1     -10.743  16.837  70.053  1.00  0.00    -0.256 OA 
BRANCH   6  12
HETATM   12  C   UNL     1     -11.596  12.882  66.830  1.00  0.00    -0.360 C  
BRANCH  12  13
HETATM   13  N   UNL     1     -10.478  11.979  67.156  1.00  0.00    -0.216 N  
HETATM   14  O   UNL     1      -9.316  10.709  68.703  1.00  0.00    -0.161 OA 
HETATM   15  C   UNL     1     -10.343  11.334  68.409  1.00  0.00    -0.192 C  
BRANCH  13  16
HETATM   16  C   UNL     1      -9.293  12.008  66.259  1.00  0.00    -0.223 C  
HETATM   17  C   UNL     1      -8.033  12.620  66.899  1.00  0.00     0.019 C  
BRANCH  16  18
HETATM   18  C   UNL     1      -8.935  10.618  65.774  1.00  0.00    -0.182 A  
HETATM   19  C   UNL     1      -7.582   8.952  65.199  1.00  0.00    -0.099 A  
HETATM   20  C   UNL     1      -8.778   8.463  65.679  1.00  0.00    -0.172 A  
HETATM   21  N   UNL     1      -9.619   9.509  65.984  1.00  0.00    -0.230 NA 
HETATM   22  H   UNL     1     -10.583   9.441  66.310  1.00  0.00     0.000 HD 
HETATM   23  N   UNL     1      -7.706  10.319  65.234  1.00  0.00    -0.144 NA 
BRANCH  20  24
HETATM   24  C   UNL     1      -9.126   7.074  65.954  1.00  0.00    -0.048 A  
HETATM   25  C   UNL     1      -8.745   4.708  65.491  1.00  0.00    -0.130 A  
HETATM   26  C   UNL     1      -9.817   4.362  66.308  1.00  0.00    -0.244 A  
HETATM   27  C   UNL     1     -10.535   5.363  66.963  1.00  0.00    -0.319 A  
HETATM   28  C   UNL     1      -8.403   6.052  65.318  1.00  0.00    -0.148 A  
HETATM   29  C   UNL     1     -10.190   6.712  66.792  1.00  0.00    -0.263 A  
ENDBRANCH  20  24
ENDBRANCH  16  18
ENDBRANCH  13  16
BRANCH  15  30
HETATM   30  C   UNL     1     -11.558  11.404  69.408  1.00  0.00    -0.323 C  
HETATM   31  H2  UNL     1     -12.246   9.489  68.907  1.00  0.00     0.000 HD 
HETATM   32  N   UNL     1     -12.611  10.436  68.997  1.00  0.00    -0.385 NA 
HETATM   33  H1  UNL     1     -13.398  10.483  69.645  1.00  0.00     0.000 HD 
BRANCH  30  34
HETATM   34  C   UNL     1     -11.241  11.079  70.885  1.00  0.00     0.595 C  
BRANCH  34  35
HETATM   35  C   UNL     1     -11.310   9.639  71.358  1.00  0.00    -0.444 A  
HETATM   36  C   UNL     1      -8.807   9.340  70.814  1.00  0.00    -0.282 C  
HETATM   37  C   UNL     1     -12.537   7.698  72.196  1.00  0.00    -0.218 A  
HETATM   38  C   UNL     1     -13.890   9.682  71.647  1.00  0.00    -0.239 C  
HETATM   39  C   UNL     1     -10.135   8.841  71.331  1.00  0.00    -0.354 A  
HETATM   40  C   UNL     1     -12.534   9.028  71.731  1.00  0.00    -0.438 A  
HETATM   41  C   UNL     1     -11.367   6.946  72.250  1.00  0.00    -0.306 A  
HETATM   42  C   UNL     1     -10.177   7.518  71.797  1.00  0.00    -0.216 A  
BRANCH  41  43
HETATM   43  C   UNL     1     -11.317   5.536  72.727  1.00  0.00    -0.303 C  
HETATM   44  H2  UNL     1     -13.385   5.311  72.746  1.00  0.00     0.000 HD 
HETATM   45  H1  UNL     1     -12.454   3.892  73.251  1.00  0.00     0.000 HD 
HETATM   46  N   UNL     1     -12.488   4.857  72.924  1.00  0.00     0.322 N  
HETATM   47  O   UNL     1     -10.251   4.970  72.949  1.00  0.00    -0.165 OA 
ENDBRANCH  41  43
ENDBRANCH  34  35
ENDBRANCH  30  34
ENDBRANCH  15  30
ENDBRANCH  12  13
ENDBRANCH   6  12
ENDBRANCH   2   3
TORSDOF 10
ENDMDL
MODEL      168
REMARK 921   NORMALIZED FREE ENERGY PREDICTED BY IDOCK:   -3.92 KCAL/MOL
REMARK 922        TOTAL FREE ENERGY PREDICTED BY IDOCK:   -9.08 KCAL/MOL
REMARK 923 INTER-LIGAND FREE ENERGY PREDICTED BY IDOCK:   -7.78 KCAL/MOL
REMARK 924 INTRA-LIGAND FREE ENERGY PREDICTED BY IDOCK:   -1.30 KCAL/MOL
REMARK 927      BINDING AFFINITY PREDICTED BY RF-SCORE:    0.00 PKD
ROOT
HETATM    1  C   UNL     1      -6.118   5.245  62.373  1.00  0.00    -0.014 C  
HETATM    2  O   UNL     1      -6.484   5.392  63.746  1.00  0.00    -0.025 OA 
ENDROOT
BRANCH   2   3
HETATM    3  C   UNL     1      -6.815   6.654  64.170  1.00  0.00    -0.049 A  
HETATM    4  C   UNL     1      -6.244   7.821  63.656  1.00  0.00    -0.058 A  
HETATM    5  C   UNL     1      -6.698   9.080  64.062  1.00  0.00    -0.088 A  
HETATM    6  C   UNL     1      -7.707   9.213  65.020  1.00  0.00    -0.109 A  
HETATM    7  C   UNL     1      -8.238   8.041  65.582  1.00  0.00    -0.135 A  
HETATM    8  C   UNL     1      -8.455   5.600  65.819  1.00  0.00    -0.140 C  
HETATM    9  O   UNL     1      -8.553   4.498  65.048  1.00  0.00    -0.123 OA 
HETATM   10  C   UNL     1      -7.809   6.769  65.158  1.00  0.00    -0.119 A  
HETATM   11  O   UNL     1      -8.921   5.664  66.946  1.00  0.00    -0.112 OA 
BRANCH   6  12
HETATM   12  C   UNL     1      -8.259  10.565  65.428  1.00  0.00    -0.152 C  
BRANCH  12  13
HETATM   13  N   UNL     1      -8.133  10.906  66.857  1.00  0.00    -0.131 N  
HETATM   14  O   UNL     1      -9.063  11.745  68.804  1.00  0.00    -0.110 OA 
HETATM   15  C   UNL     1      -9.229  11.318  67.654  1.00  0.00    -0.156 C  
BRANCH  13  16
HETATM   16  C   UNL     1      -6.764  11.138  67.386  1.00  0.00    -0.084 C  
HETATM   17  C   UNL     1      -6.442  12.616  67.674  1.00  0.00    -0.146 C  
BRANCH  16  18
HETATM   18  C   UNL     1      -6.527  10.357  68.662  1.00  0.00    -0.051 A  
HETATM   19  C   UNL     1      -6.025  10.073  70.808  1.00  0.00    -0.095 A  
HETATM   20  C   UNL     1      -6.878   9.081  70.374  1.00  0.00    -0.055 A  
HETATM   21  N   UNL     1      -7.138   9.247  69.032  1.00  0.00    -0.066 NA 
HETATM   22  H   UNL     1      -7.695   8.632  68.440  1.00  0.00     0.000 HD 
HETATM   23  N   UNL     1      -5.784  10.856  69.706  1.00  0.00    -0.052 NA 
BRANCH  20  24
HETATM   24  C   UNL     1      -7.530   8.054  71.176  1.00  0.00    -0.070 A  
HETATM   25  C   UNL     1      -8.460   7.382  73.331  1.00  0.00    -0.177 A  
HETATM   26  C   UNL     1      -8.663   6.091  72.855  1.00  0.00    -0.123 A  
HETATM   27  C   UNL     1      -8.319   5.778  71.539  1.00  0.00    -0.127 A  
HETATM   28  C   UNL     1      -7.901   8.354  72.497  1.00  0.00    -0.153 A  
HETATM   29  C   UNL     1      -7.760   6.755  70.702  1.00  0.00    -0.097 A  
ENDBRANCH  20  24
ENDBRANCH  16  18
ENDBRANCH  13  16
BRANCH  15  30
HETATM   30  C   UNL     1     -10.675  11.182  67.045  1.00  0.00    -0.268 C  
HETATM   31  H2  UNL     1     -11.345   9.934  68.591  1.00  0.00     0.000 HD 
HETATM   32  N   UNL     1     -11.335   9.955  67.571  1.00  0.00    -0.438 NA 
HETATM   33  H1  UNL     1     -12.271   9.868  67.176  1.00  0.00     0.000 HD 
BRANCH  30  34
HETATM   34  C   UNL     1     -11.648  12.344  67.344  1.00  0.00    -0.433 C  
BRANCH  34  35
HETATM   35  C   UNL     1     -11.198  13.771  67.091  1.00  0.00    -0.327 A  
HETATM   36  C   UNL     1     -10.479  13.120  64.701  1.00  0.00    -0.411 C  
HETATM   37  C   UNL     1     -10.802  16.072  67.816  1.00  0.00    -0.324 A  
HETATM   38  C   UNL     1     -11.565  14.502  69.555  1.00  0.00    -0.350 C  
HETATM   39  C   UNL     1     -10.664  14.116  65.821  1.00  0.00    -0.301 A  
HETATM   40  C   UNL     1     -11.197  14.752  68.114  1.00  0.00    -0.307 A  
HETATM   41  C   UNL     1     -10.360  16.426  66.546  1.00  0.00    -0.306 A  
HETATM   42  C   UNL     1     -10.276  15.439  65.562  1.00  0.00    -0.411 A  
BRANCH  41  43
HETATM   43  C   UNL     1      -9.926  17.804  66.180  1.00  0.00    -0.276 C  
HETATM   44  H2  UNL     1      -7.974  17.525  66.839  1.00  0.00     0.000 HD 
HETATM   45  H1  UNL     1      -8.336  19.123  66.168  1.00  0.00     0.000 HD 
HETATM   46  N   UNL     1      -8.633  18.180  66.418  1.00  0.00    -0.255 N  
HETATM   47  O   UNL     1     -10.702  18.609  65.674  1.00  0.00    -0.555 OA 
ENDBRANCH  41  43
ENDBRANCH  34  35
ENDBRANCH  30  34
ENDBRANCH  15  30
ENDBRANCH  12  13
ENDBRANCH   6  12
ENDBRANCH   2   3
TORSDOF 10
ENDMDL
MODEL      169
REMARK 921   NORMALIZED FREE ENERGY PREDICTED BY IDOCK:   -3.92 KCAL/MOL
REMARK 922        TOTAL FREE ENERGY PREDICTED BY IDOCK:   -9.08 KCAL/MOL
REMARK 923 INTER-LIGAND FREE ENERGY PREDICTED BY IDOCK:   -9.15 KCAL/MOL
REMARK 924 INTRA-LIGAND FREE ENERGY PREDICTED BY IDOCK:    0.07 KCAL/MOL
REMARK 927      BINDING AFFINITY PREDICTED BY RF-SCORE:    0.00 PKD
ROOT
HETATM    1  C   UNL     1      -5.754  12.949  70.642  1.00  0.00    -0.163 C  
HETATM    2  O   UNL     1      -5.916  12.174  69.453  1.00  0.00    -0.077 OA 
ENDROOT
BRANCH   2   3
HETATM    3  C   UNL     1      -7.186  12.077  68.942  1.00  0.00    -0.089 A  
HETATM    4  C   UNL     1      -7.738  13.001  68.051  1.00  0.00    -0.145 A  
HETATM    5  C   UNL     1      -9.002  12.789  67.492  1.00  0.00    -0.192 A  
HETATM    6  C   UNL     1      -9.768  11.670  67.831  1.00  0.00    -0.181 A  
HETATM    7  C   UNL     1      -9.239  10.773  68.773  1.00  0.00    -0.192 A  
HETATM    8  C   UNL     1      -7.497   9.936  70.298  1.00  0.00    -0.162 C  
HETATM    9  O   UNL     1      -6.164   9.734  70.323  1.00  0.00    -0.055 OA 
HETATM   10  C   UNL     1      -7.955  10.961  69.319  1.00  0.00    -0.076 A  
HETATM   11  O   UNL     1      -8.279   9.283  70.972  1.00  0.00    -0.252 OA 
BRANCH   6  12
HETATM   12  C   UNL     1     -11.112  11.387  67.190  1.00  0.00    -0.305 C  
BRANCH  12  13
HETATM   13  N   UNL     1     -11.519  12.309  66.114  1.00  0.00    -0.357 N  
HETATM   14  O   UNL     1     -11.319  13.049  63.930  1.00  0.00    -0.392 OA 
HETATM   15  C   UNL     1     -11.086  12.173  64.773  1.00  0.00    -0.316 C  
BRANCH  13  16
HETATM   16  C   UNL     1     -12.136  13.600  66.517  1.00  0.00    -0.423 C  
HETATM   17  C   UNL     1     -12.378  13.736  68.032  1.00  0.00     0.013 C  
BRANCH  16  18
HETATM   18  C   UNL     1     -11.289  14.776  66.078  1.00  0.00    -0.332 A  
HETATM   19  C   UNL     1     -10.805  16.616  64.930  1.00  0.00    -0.142 A  
HETATM   20  C   UNL     1     -10.154  16.617  66.145  1.00  0.00    -0.345 A  
HETATM   21  N   UNL     1     -10.428  15.448  66.819  1.00  0.00    -0.293 NA 
HETATM   22  H   UNL     1     -10.041  15.158  67.717  1.00  0.00     0.000 HD 
HETATM   23  N   UNL     1     -11.495  15.430  64.886  1.00  0.00    -0.346 NA 
BRANCH  20  24
HETATM   24  C   UNL     1      -9.374  17.697  66.736  1.00  0.00    -0.286 A  
HETATM   25  C   UNL     1      -7.641  18.385  68.311  1.00  0.00    -0.301 A  
HETATM   26  C   UNL     1      -7.910  19.723  68.042  1.00  0.00    -0.342 A  
HETATM   27  C   UNL     1      -8.895  20.055  67.112  1.00  0.00    -0.429 A  
HETATM   28  C   UNL     1      -8.365  17.382  67.662  1.00  0.00    -0.214 A  
HETATM   29  C   UNL     1      -9.620  19.049  66.457  1.00  0.00    -0.386 A  
ENDBRANCH  20  24
ENDBRANCH  16  18
ENDBRANCH  13  16
BRANCH  15  30
HETATM   30  C   UNL     1     -10.327  10.852  64.374  1.00  0.00    -0.361 C  
HETATM   31  H2  UNL     1     -10.041  11.465  62.390  1.00  0.00     0.000 HD 
HETATM   32  N   UNL     1     -10.390  10.654  62.900  1.00  0.00    -0.705 NA 
HETATM   33  H1  UNL     1      -9.898   9.799  62.643  1.00  0.00     0.000 HD 
BRANCH  30  34
HETATM   34  C   UNL     1      -8.827  10.796  64.742  1.00  0.00    -0.162 C  
BRANCH  34  35
HETATM   35  C   UNL     1      -8.080   9.482  64.609  1.00  0.00    -0.136 A  
HETATM   36  C   UNL     1      -6.746  10.441  62.621  1.00  0.00    -0.135 C  
HETATM   37  C   UNL     1      -7.666   7.159  65.248  1.00  0.00    -0.114 A  
HETATM   38  C   UNL     1      -9.558   8.271  66.367  1.00  0.00    -0.300 C  
HETATM   39  C   UNL     1      -7.084   9.347  63.605  1.00  0.00    -0.101 A  
HETATM   40  C   UNL     1      -8.414   8.345  65.387  1.00  0.00    -0.193 A  
HETATM   41  C   UNL     1      -6.632   7.058  64.322  1.00  0.00    -0.039 A  
HETATM   42  C   UNL     1      -6.362   8.149  63.493  1.00  0.00    -0.072 A  
BRANCH  41  43
HETATM   43  C   UNL     1      -5.815   5.827  64.132  1.00  0.00    -0.024 C  
HETATM   44  H2  UNL     1      -5.263   6.314  62.187  1.00  0.00     0.000 HD 
HETATM   45  H1  UNL     1      -4.620   4.785  62.808  1.00  0.00     0.000 HD 
HETATM   46  N   UNL     1      -5.180   5.628  62.938  1.00  0.00    -0.013 N  
HETATM   47  O   UNL     1      -5.701   4.988  65.020  1.00  0.00    -0.013 OA 
ENDBRANCH  41  43
ENDBRANCH  34  35
ENDBRANCH  30  34
ENDBRANCH  15  30
ENDBRANCH  12  13
ENDBRANCH   6  12
ENDBRANCH   2   3
TORSDOF 10
ENDMDL
MODEL      170
REMARK 921   NORMALIZED FREE ENERGY PREDICTED BY IDOCK:   -3.90 KCAL/MOL
REMARK 922        TOTAL FREE ENERGY PREDICTED BY IDOCK:   -9.05 KCAL/MOL
REMARK 923 INTER-LIGAND FREE ENERGY PREDICTED BY IDOCK:  -10.72 KCAL/MOL
REMARK 924 INTRA-LIGAND FREE ENERGY PREDICTED BY IDOCK:    1.67 KCAL/MOL
REMARK 927      BINDING AFFINITY PREDICTED BY RF-SCORE:    0.00 PKD
ROOT
HETATM    1  C   UNL     1     -12.988  14.461  73.453  1.00  0.00    -0.130 C  
HETATM    2  O   UNL     1     -13.753  13.819  72.431  1.00  0.00    -0.512 OA 
ENDROOT
BRANCH   2   3
HETATM    3  C   UNL     1     -13.098  12.902  71.648  1.00  0.00    -0.335 A  
HETATM    4  C   UNL     1     -13.138  11.522  71.867  1.00  0.00    -0.492 A  
HETATM    5  C   UNL     1     -12.530  10.636  70.973  1.00  0.00    -0.515 A  
HETATM    6  C   UNL     1     -11.833  11.100  69.853  1.00  0.00    -0.439 A  
HETATM    7  C   UNL     1     -11.740  12.488  69.666  1.00  0.00    -0.372 A  
HETATM    8  C   UNL     1     -12.216  14.836  70.234  1.00  0.00    -0.338 C  
HETATM    9  O   UNL     1     -13.251  15.612  70.612  1.00  0.00    -0.487 OA 
HETATM   10  C   UNL     1     -12.375  13.388  70.544  1.00  0.00    -0.401 A  
HETATM   11  O   UNL     1     -11.252  15.270  69.622  1.00  0.00    -0.243 OA 
BRANCH   6  12
HETATM   12  C   UNL     1     -11.220  10.157  68.837  1.00  0.00    -0.170 C  
BRANCH  12  13
HETATM   13  N   UNL     1      -9.769   9.931  68.960  1.00  0.00    -0.183 N  
HETATM   14  O   UNL     1      -7.686   9.706  67.975  1.00  0.00    -0.086 OA 
HETATM   15  C   UNL     1      -8.870  10.053  67.873  1.00  0.00    -0.125 C  
BRANCH  13  16
HETATM   16  C   UNL     1      -9.287   9.239  70.184  1.00  0.00    -0.228 C  
HETATM   17  C   UNL     1     -10.127   9.528  71.442  1.00  0.00    -0.117 C  
BRANCH  16  18
HETATM   18  C   UNL     1      -9.250   7.737  69.990  1.00  0.00    -0.153 A  
HETATM   19  C   UNL     1     -10.077   5.725  69.540  1.00  0.00    -0.214 A  
HETATM   20  C   UNL     1      -8.745   5.791  69.191  1.00  0.00    -0.113 A  
HETATM   21  N   UNL     1      -8.240   7.028  69.521  1.00  0.00    -0.130 NA 
HETATM   22  H   UNL     1      -7.273   7.337  69.422  1.00  0.00     0.000 HD 
HETATM   23  N   UNL     1     -10.376   6.953  70.075  1.00  0.00    -0.196 NA 
BRANCH  20  24
HETATM   24  C   UNL     1      -7.961   4.790  68.479  1.00  0.00    -0.084 A  
HETATM   25  C   UNL     1      -7.924   2.756  67.129  1.00  0.00    -0.074 A  
HETATM   26  C   UNL     1      -6.535   2.725  67.191  1.00  0.00    -0.036 A  
HETATM   27  C   UNL     1      -5.852   3.729  67.879  1.00  0.00    -0.026 A  
HETATM   28  C   UNL     1      -8.629   3.781  67.766  1.00  0.00    -0.112 A  
HETATM   29  C   UNL     1      -6.560   4.759  68.515  1.00  0.00    -0.046 A  
ENDBRANCH  20  24
ENDBRANCH  16  18
ENDBRANCH  13  16
BRANCH  15  30
HETATM   30  C   UNL     1      -9.415  10.680  66.535  1.00  0.00    -0.169 C  
HETATM   31  H2  UNL     1     -10.310   8.889  65.913  1.00  0.00     0.000 HD 
HETATM   32  N   UNL     1      -9.684   9.603  65.542  1.00  0.00    -0.297 NA 
HETATM   33  H1  UNL     1     -10.036  10.009  64.676  1.00  0.00     0.000 HD 
BRANCH  30  34
HETATM   34  C   UNL     1     -10.729  11.485  66.648  1.00  0.00    -0.311 C  
BRANCH  34  35
HETATM   35  C   UNL     1     -10.719  12.968  66.329  1.00  0.00    -0.290 A  
HETATM   36  C   UNL     1      -8.897  13.341  68.116  1.00  0.00    -0.187 C  
HETATM   37  C   UNL     1     -11.570  14.927  65.140  1.00  0.00    -0.330 A  
HETATM   38  C   UNL     1     -12.766  12.810  64.740  1.00  0.00    -0.469 C  
HETATM   39  C   UNL     1      -9.826  13.823  67.028  1.00  0.00    -0.251 A  
HETATM   40  C   UNL     1     -11.645  13.549  65.427  1.00  0.00    -0.334 A  
HETATM   41  C   UNL     1     -10.636  15.747  65.763  1.00  0.00    -0.369 A  
HETATM   42  C   UNL     1      -9.783  15.192  66.719  1.00  0.00    -0.255 A  
BRANCH  41  43
HETATM   43  C   UNL     1     -10.519  17.208  65.500  1.00  0.00    -0.144 C  
HETATM   44  H2  UNL     1      -9.526  17.603  67.284  1.00  0.00     0.000 HD 
HETATM   45  H1  UNL     1      -9.822  19.005  66.244  1.00  0.00     0.000 HD 
HETATM   46  N   UNL     1      -9.902  18.005  66.425  1.00  0.00    -0.337 N  
HETATM   47  O   UNL     1     -10.964  17.714  64.474  1.00  0.00    -0.625 OA 
ENDBRANCH  41  43
ENDBRANCH  34  35
ENDBRANCH  30  34
ENDBRANCH  15  30
ENDBRANCH  12  13
ENDBRANCH   6  12
ENDBRANCH   2   3
TORSDOF 10
ENDMDL
MODEL      171
REMARK 921   NORMALIZED FREE ENERGY PREDICTED BY IDOCK:   -3.90 KCAL/MOL
REMARK 922        TOTAL FREE ENERGY PREDICTED BY IDOCK:   -9.05 KCAL/MOL
REMARK 923 INTER-LIGAND FREE ENERGY PREDICTED BY IDOCK:   -8.93 KCAL/MOL
REMARK 924 INTRA-LIGAND FREE ENERGY PREDICTED BY IDOCK:   -0.12 KCAL/MOL
REMARK 927      BINDING AFFINITY PREDICTED BY RF-SCORE:    0.00 PKD
ROOT
HETATM    1  C   UNL     1      -5.131   8.546  69.535  1.00  0.00    -0.030 C  
HETATM    2  O   UNL     1      -5.957   9.241  68.599  1.00  0.00    -0.044 OA 
ENDROOT
BRANCH   2   3
HETATM    3  C   UNL     1      -7.307   9.250  68.848  1.00  0.00    -0.074 A  
HETATM    4  C   UNL     1      -7.913  10.056  69.816  1.00  0.00    -0.190 A  
HETATM    5  C   UNL     1      -9.305  10.090  69.950  1.00  0.00    -0.207 A  
HETATM    6  C   UNL     1     -10.131   9.296  69.150  1.00  0.00    -0.204 A  
HETATM    7  C   UNL     1      -9.519   8.441  68.220  1.00  0.00    -0.147 A  
HETATM    8  C   UNL     1      -7.590   7.482  67.028  1.00  0.00    -0.103 C  
HETATM    9  O   UNL     1      -6.447   7.881  66.434  1.00  0.00    -0.046 OA 
HETATM   10  C   UNL     1      -8.121   8.421  68.056  1.00  0.00    -0.123 A  
HETATM   11  O   UNL     1      -8.185   6.466  66.704  1.00  0.00    -0.108 OA 
BRANCH   6  12
HETATM   12  C   UNL     1     -11.643   9.364  69.235  1.00  0.00     0.413 C  
BRANCH  12  13
HETATM   13  N   UNL     1     -12.191  10.177  70.335  1.00  0.00    -0.248 N  
HETATM   14  O   UNL     1     -13.229  10.313  72.399  1.00  0.00    -0.323 OA 
HETATM   15  C   UNL     1     -12.633   9.625  71.561  1.00  0.00    -0.391 C  
BRANCH  13  16
HETATM   16  C   UNL     1     -12.590  11.574  70.019  1.00  0.00    -0.023 C  
HETATM   17  C   UNL     1     -12.304  12.581  71.148  1.00  0.00    -0.241 C  
BRANCH  16  18
HETATM   18  C   UNL     1     -11.899  12.075  68.768  1.00  0.00    -0.302 A  
HETATM   19  C   UNL     1     -10.317  13.100  67.592  1.00  0.00    -0.223 A  
HETATM   20  C   UNL     1     -10.888  12.085  66.855  1.00  0.00    -0.259 A  
HETATM   21  N   UNL     1     -11.896  11.494  67.582  1.00  0.00    -0.629 NA 
HETATM   22  H   UNL     1     -12.521  10.752  67.266  1.00  0.00     0.000 HD 
HETATM   23  N   UNL     1     -10.988  13.105  68.790  1.00  0.00    -0.258 NA 
BRANCH  20  24
HETATM   24  C   UNL     1     -10.467  11.587  65.552  1.00  0.00    -0.327 A  
HETATM   25  C   UNL     1     -10.408  11.895  63.131  1.00  0.00    -0.330 A  
HETATM   26  C   UNL     1      -9.824  10.642  62.973  1.00  0.00    -0.318 A  
HETATM   27  C   UNL     1      -9.543   9.865  64.097  1.00  0.00    -0.177 A  
HETATM   28  C   UNL     1     -10.724  12.362  64.409  1.00  0.00    -0.371 A  
HETATM   29  C   UNL     1      -9.858  10.335  65.380  1.00  0.00    -0.362 A  
ENDBRANCH  20  24
ENDBRANCH  16  18
ENDBRANCH  13  16
BRANCH  15  30
HETATM   30  C   UNL     1     -12.311   8.109  71.844  1.00  0.00    -0.332 C  
HETATM   31  H2  UNL     1     -12.960   7.487  69.951  1.00  0.00     0.000 HD 
HETATM   32  N   UNL     1     -13.104   7.242  70.930  1.00  0.00    -0.591 NA 
HETATM   33  H1  UNL     1     -12.895   6.261  71.114  1.00  0.00     0.000 HD 
BRANCH  30  34
HETATM   34  C   UNL     1     -10.838   7.682  71.657  1.00  0.00    -0.260 C  
BRANCH  34  35
HETATM   35  C   UNL     1     -10.432   6.258  71.986  1.00  0.00    -0.239 A  
HETATM   36  C   UNL     1     -10.030   6.938  74.441  1.00  0.00    -0.237 C  
HETATM   37  C   UNL     1      -9.953   3.947  71.348  1.00  0.00    -0.198 A  
HETATM   38  C   UNL     1     -10.474   5.495  69.504  1.00  0.00    -0.368 C  
HETATM   39  C   UNL     1     -10.071   5.928  73.319  1.00  0.00    -0.202 A  
HETATM   40  C   UNL     1     -10.300   5.263  70.984  1.00  0.00    -0.298 A  
HETATM   41  C   UNL     1      -9.684   3.608  72.670  1.00  0.00    -0.199 A  
HETATM   42  C   UNL     1      -9.726   4.607  73.644  1.00  0.00    -0.155 A  
BRANCH  41  43
HETATM   43  C   UNL     1      -9.308   2.234  73.107  1.00  0.00    -0.080 C  
HETATM   44  H2  UNL     1     -11.040   1.952  74.222  1.00  0.00     0.000 HD 
HETATM   45  H1  UNL     1      -9.901   0.596  74.218  1.00  0.00     0.000 HD 
HETATM   46  N   UNL     1     -10.159   1.537  73.919  1.00  0.00    -0.080 N  
HETATM   47  O   UNL     1      -8.253   1.714  72.756  1.00  0.00    -0.051 OA 
ENDBRANCH  41  43
ENDBRANCH  34  35
ENDBRANCH  30  34
ENDBRANCH  15  30
ENDBRANCH  12  13
ENDBRANCH   6  12
ENDBRANCH   2   3
TORSDOF 10
ENDMDL
MODEL      172
REMARK 921   NORMALIZED FREE ENERGY PREDICTED BY IDOCK:   -3.88 KCAL/MOL
REMARK 922        TOTAL FREE ENERGY PREDICTED BY IDOCK:   -9.02 KCAL/MOL
REMARK 923 INTER-LIGAND FREE ENERGY PREDICTED BY IDOCK:   -8.90 KCAL/MOL
REMARK 924 INTRA-LIGAND FREE ENERGY PREDICTED BY IDOCK:   -0.12 KCAL/MOL
REMARK 927      BINDING AFFINITY PREDICTED BY RF-SCORE:    0.00 PKD
ROOT
HETATM    1  C   UNL     1     -12.306  15.566  71.382  1.00  0.00    -0.400 C  
HETATM    2  O   UNL     1     -12.211  15.256  69.991  1.00  0.00    -0.332 OA 
ENDROOT
BRANCH   2   3
HETATM    3  C   UNL     1     -11.925  13.954  69.662  1.00  0.00    -0.342 A  
HETATM    4  C   UNL     1     -12.337  12.853  70.417  1.00  0.00    -0.333 A  
HETATM    5  C   UNL     1     -12.097  11.549  69.973  1.00  0.00    -0.408 A  
HETATM    6  C   UNL     1     -11.408  11.304  68.782  1.00  0.00    -0.335 A  
HETATM    7  C   UNL     1     -10.941  12.409  68.053  1.00  0.00    -0.262 A  
HETATM    8  C   UNL     1     -10.667  14.817  67.614  1.00  0.00    -0.270 C  
HETATM    9  O   UNL     1     -11.396  15.951  67.619  1.00  0.00    -0.270 OA 
HETATM   10  C   UNL     1     -11.203  13.727  68.477  1.00  0.00    -0.304 A  
HETATM   11  O   UNL     1      -9.684  14.664  66.906  1.00  0.00    -0.228 OA 
BRANCH   6  12
HETATM   12  C   UNL     1     -11.193   9.901  68.248  1.00  0.00    -0.074 C  
BRANCH  12  13
HETATM   13  N   UNL     1      -9.840   9.605  67.744  1.00  0.00    -0.153 N  
HETATM   14  O   UNL     1      -7.640   9.005  68.145  1.00  0.00    -0.090 OA 
HETATM   15  C   UNL     1      -8.802   9.095  68.562  1.00  0.00    -0.129 C  
BRANCH  13  16
HETATM   16  C   UNL     1      -9.467  10.165  66.418  1.00  0.00    -0.176 C  
HETATM   17  C   UNL     1      -8.363  11.237  66.476  1.00  0.00    -0.168 C  
BRANCH  16  18
HETATM   18  C   UNL     1      -9.006   9.077  65.470  1.00  0.00    -0.204 A  
HETATM   19  C   UNL     1      -7.704   8.137  63.935  1.00  0.00    -0.138 A  
HETATM   20  C   UNL     1      -8.277   7.176  64.740  1.00  0.00    -0.050 A  
HETATM   21  N   UNL     1      -9.116   7.774  65.652  1.00  0.00    -0.388 NA 
HETATM   22  H   UNL     1      -9.708   7.302  66.336  1.00  0.00     0.000 HD 
HETATM   23  N   UNL     1      -8.199   9.335  64.387  1.00  0.00    -0.141 NA 
BRANCH  20  24
HETATM   24  C   UNL     1      -7.999   5.746  64.753  1.00  0.00    -0.124 A  
HETATM   25  C   UNL     1      -6.545   3.907  64.072  1.00  0.00    -0.042 A  
HETATM   26  C   UNL     1      -7.443   2.984  64.599  1.00  0.00    -0.075 A  
HETATM   27  C   UNL     1      -8.610   3.434  65.218  1.00  0.00    -0.110 A  
HETATM   28  C   UNL     1      -6.821   5.275  64.151  1.00  0.00    -0.047 A  
HETATM   29  C   UNL     1      -8.885   4.807  65.300  1.00  0.00    -0.149 A  
ENDBRANCH  20  24
ENDBRANCH  16  18
ENDBRANCH  13  16
BRANCH  15  30
HETATM   30  C   UNL     1      -9.179   8.611  70.012  1.00  0.00    -0.157 C  
HETATM   31  H2  UNL     1     -10.069  10.437  70.527  1.00  0.00     0.000 HD 
HETATM   32  N   UNL     1      -9.381   9.786  70.904  1.00  0.00    -0.331 NA 
HETATM   33  H1  UNL     1      -9.625   9.472  71.843  1.00  0.00     0.000 HD 
BRANCH  30  34
HETATM   34  C   UNL     1     -10.466   7.765  70.132  1.00  0.00    -0.231 C  
BRANCH  34  35
HETATM   35  C   UNL     1     -10.414   6.436  70.861  1.00  0.00    -0.275 A  
HETATM   36  C   UNL     1     -11.313   7.571  72.995  1.00  0.00    -0.313 C  
HETATM   37  C   UNL     1      -9.866   4.056  70.978  1.00  0.00    -0.230 A  
HETATM   38  C   UNL     1      -9.205   5.222  68.910  1.00  0.00    -0.150 C  
HETATM   39  C   UNL     1     -10.840   6.369  72.214  1.00  0.00    -0.272 A  
HETATM   40  C   UNL     1      -9.858   5.275  70.269  1.00  0.00    -0.284 A  
HETATM   41  C   UNL     1     -10.364   3.976  72.274  1.00  0.00    -0.183 A  
HETATM   42  C   UNL     1     -10.830   5.139  72.891  1.00  0.00    -0.324 A  
BRANCH  41  43
HETATM   43  C   UNL     1     -10.391   2.716  73.068  1.00  0.00    -0.148 C  
HETATM   44  H2  UNL     1     -10.911   3.668  74.842  1.00  0.00     0.000 HD 
HETATM   45  H1  UNL     1     -10.719   1.911  74.942  1.00  0.00     0.000 HD 
HETATM   46  N   UNL     1     -10.700   2.774  74.399  1.00  0.00    -0.145 N  
HETATM   47  O   UNL     1     -10.140   1.629  72.557  1.00  0.00    -0.113 OA 
ENDBRANCH  41  43
ENDBRANCH  34  35
ENDBRANCH  30  34
ENDBRANCH  15  30
ENDBRANCH  12  13
ENDBRANCH   6  12
ENDBRANCH   2   3
TORSDOF 10
ENDMDL
MODEL      173
REMARK 921   NORMALIZED FREE ENERGY PREDICTED BY IDOCK:   -3.83 KCAL/MOL
REMARK 922        TOTAL FREE ENERGY PREDICTED BY IDOCK:   -8.94 KCAL/MOL
REMARK 923 INTER-LIGAND FREE ENERGY PREDICTED BY IDOCK:   -7.85 KCAL/MOL
REMARK 924 INTRA-LIGAND FREE ENERGY PREDICTED BY IDOCK:   -1.10 KCAL/MOL
REMARK 927      BINDING AFFINITY PREDICTED BY RF-SCORE:    0.00 PKD
ROOT
HETATM    1  C   UNL     1      -7.766   8.515  74.457  1.00  0.00    -0.153 C  
HETATM    2  O   UNL     1      -7.590   7.312  73.708  1.00  0.00    -0.101 OA 
ENDROOT
BRANCH   2   3
HETATM    3  C   UNL     1      -7.448   7.440  72.349  1.00  0.00    -0.080 A  
HETATM    4  C   UNL     1      -7.643   8.639  71.657  1.00  0.00    -0.139 A  
HETATM    5  C   UNL     1      -7.385   8.725  70.285  1.00  0.00    -0.058 A  
HETATM    6  C   UNL     1      -6.961   7.610  69.556  1.00  0.00    -0.056 A  
HETATM    7  C   UNL     1      -6.824   6.391  70.238  1.00  0.00    -0.054 A  
HETATM    8  C   UNL     1      -6.862   4.958  72.240  1.00  0.00    -0.057 C  
HETATM    9  O   UNL     1      -6.454   4.977  73.525  1.00  0.00    -0.057 OA 
HETATM   10  C   UNL     1      -7.052   6.301  71.625  1.00  0.00    -0.082 A  
HETATM   11  O   UNL     1      -6.998   3.924  71.604  1.00  0.00    -0.029 OA 
BRANCH   6  12
HETATM   12  C   UNL     1      -6.614   7.695  68.082  1.00  0.00    -0.054 C  
BRANCH  12  13
HETATM   13  N   UNL     1      -7.462   8.587  67.272  1.00  0.00    -0.092 N  
HETATM   14  O   UNL     1      -8.987   8.887  65.556  1.00  0.00    -0.190 OA 
HETATM   15  C   UNL     1      -8.406   8.114  66.328  1.00  0.00    -0.119 C  
BRANCH  13  16
HETATM   16  C   UNL     1      -7.080  10.023  67.211  1.00  0.00    -0.085 C  
HETATM   17  C   UNL     1      -6.351  10.426  65.917  1.00  0.00    -0.119 C  
BRANCH  16  18
HETATM   18  C   UNL     1      -8.291  10.921  67.358  1.00  0.00    -0.117 A  
HETATM   19  C   UNL     1      -9.577  12.458  68.318  1.00  0.00    -0.211 A  
HETATM   20  C   UNL     1      -9.757  12.460  66.951  1.00  0.00    -0.215 A  
HETATM   21  N   UNL     1      -8.989  11.470  66.381  1.00  0.00    -0.195 NA 
HETATM   22  H   UNL     1      -8.963  11.211  65.395  1.00  0.00     0.000 HD 
HETATM   23  N   UNL     1      -8.670  11.457  68.566  1.00  0.00    -0.156 NA 
BRANCH  20  24
HETATM   24  C   UNL     1     -10.534  13.403  66.158  1.00  0.00    -0.295 A  
HETATM   25  C   UNL     1     -12.549  13.856  64.857  1.00  0.00    -0.380 A  
HETATM   26  C   UNL     1     -12.049  15.102  64.492  1.00  0.00    -0.310 A  
HETATM   27  C   UNL     1     -10.803  15.511  64.968  1.00  0.00    -0.468 A  
HETATM   28  C   UNL     1     -11.798  13.016  65.684  1.00  0.00    -0.445 A  
HETATM   29  C   UNL     1     -10.050  14.670  65.801  1.00  0.00    -0.364 A  
ENDBRANCH  20  24
ENDBRANCH  16  18
ENDBRANCH  13  16
BRANCH  15  30
HETATM   30  C   UNL     1      -8.722   6.571  66.314  1.00  0.00    -0.144 C  
HETATM   31  H2  UNL     1      -7.649   6.206  68.077  1.00  0.00     0.000 HD 
HETATM   32  N   UNL     1      -7.714   5.838  67.128  1.00  0.00    -0.100 NA 
HETATM   33  H1  UNL     1      -7.920   4.839  67.118  1.00  0.00     0.000 HD 
BRANCH  30  34
HETATM   34  C   UNL     1     -10.100   6.156  66.876  1.00  0.00    -0.232 C  
BRANCH  34  35
HETATM   35  C   UNL     1     -10.297   6.090  68.379  1.00  0.00    -0.252 A  
HETATM   36  C   UNL     1     -10.808   8.617  68.424  1.00  0.00     0.003 C  
HETATM   37  C   UNL     1     -10.272   4.891  70.510  1.00  0.00    -0.288 A  
HETATM   38  C   UNL     1      -9.490   3.628  68.545  1.00  0.00    -0.212 C  
HETATM   39  C   UNL     1     -10.651   7.269  69.087  1.00  0.00    -0.219 A  
HETATM   40  C   UNL     1     -10.040   4.909  69.120  1.00  0.00    -0.229 A  
HETATM   41  C   UNL     1     -10.703   6.028  71.187  1.00  0.00    -0.323 A  
HETATM   42  C   UNL     1     -10.870   7.215  70.472  1.00  0.00    -0.269 A  
BRANCH  41  43
HETATM   43  C   UNL     1     -10.958   6.064  72.654  1.00  0.00    -0.264 C  
HETATM   44  H2  UNL     1     -10.912   8.140  72.762  1.00  0.00     0.000 HD 
HETATM   45  H1  UNL     1     -11.205   7.298  74.292  1.00  0.00     0.000 HD 
HETATM   46  N   UNL     1     -11.030   7.274  73.288  1.00  0.00    -0.349 N  
HETATM   47  O   UNL     1     -11.103   5.035  73.306  1.00  0.00    -0.289 OA 
ENDBRANCH  41  43
ENDBRANCH  34  35
ENDBRANCH  30  34
ENDBRANCH  15  30
ENDBRANCH  12  13
ENDBRANCH   6  12
ENDBRANCH   2   3
TORSDOF 10
ENDMDL
MODEL      174
REMARK 921   NORMALIZED FREE ENERGY PREDICTED BY IDOCK:   -3.83 KCAL/MOL
REMARK 922        TOTAL FREE ENERGY PREDICTED BY IDOCK:   -8.94 KCAL/MOL
REMARK 923 INTER-LIGAND FREE ENERGY PREDICTED BY IDOCK:   -8.22 KCAL/MOL
REMARK 924 INTRA-LIGAND FREE ENERGY PREDICTED BY IDOCK:   -0.72 KCAL/MOL
REMARK 927      BINDING AFFINITY PREDICTED BY RF-SCORE:    0.00 PKD
ROOT
HETATM    1  C   UNL     1     -13.402  15.591  71.536  1.00  0.00    -0.509 C  
HETATM    2  O   UNL     1     -13.564  14.476  70.658  1.00  0.00    -0.165 OA 
ENDROOT
BRANCH   2   3
HETATM    3  C   UNL     1     -12.469  14.101  69.921  1.00  0.00    -0.260 A  
HETATM    4  C   UNL     1     -11.772  14.964  69.071  1.00  0.00    -0.347 A  
HETATM    5  C   UNL     1     -10.605  14.544  68.424  1.00  0.00    -0.244 A  
HETATM    6  C   UNL     1     -10.119  13.243  68.576  1.00  0.00    -0.208 A  
HETATM    7  C   UNL     1     -10.853  12.357  69.381  1.00  0.00     0.011 A  
HETATM    8  C   UNL     1     -12.698  11.752  70.895  1.00  0.00    -0.235 C  
HETATM    9  O   UNL     1     -13.345  12.240  71.973  1.00  0.00    -0.506 OA 
HETATM   10  C   UNL     1     -12.012  12.778  70.061  1.00  0.00    -0.371 A  
HETATM   11  O   UNL     1     -12.618  10.557  70.656  1.00  0.00    -0.332 OA 
BRANCH   6  12
HETATM   12  C   UNL     1      -8.823  12.785  67.937  1.00  0.00    -0.186 C  
BRANCH  12  13
HETATM   13  N   UNL     1      -7.695  12.559  68.858  1.00  0.00     0.012 N  
HETATM   14  O   UNL     1      -6.629  11.237  70.431  1.00  0.00    -0.248 OA 
HETATM   15  C   UNL     1      -7.493  11.340  69.550  1.00  0.00     0.081 C  
BRANCH  13  16
HETATM   16  C   UNL     1      -6.938  13.753  69.318  1.00  0.00    -0.042 C  
HETATM   17  C   UNL     1      -5.418  13.531  69.427  1.00  0.00    -0.081 C  
BRANCH  16  18
HETATM   18  C   UNL     1      -7.168  14.937  68.402  1.00  0.00    -0.116 A  
HETATM   19  C   UNL     1      -7.625  15.967  66.487  1.00  0.00     0.015 A  
HETATM   20  C   UNL     1      -8.031  16.733  67.559  1.00  0.00    -0.172 A  
HETATM   21  N   UNL     1      -7.696  16.100  68.735  1.00  0.00    -0.186 NA 
HETATM   22  H   UNL     1      -7.829  16.461  69.680  1.00  0.00     0.000 HD 
HETATM   23  N   UNL     1      -7.051  14.846  67.035  1.00  0.00    -0.100 NA 
BRANCH  20  24
HETATM   24  C   UNL     1      -8.798  17.971  67.528  1.00  0.00    -0.252 A  
HETATM   25  C   UNL     1     -10.163  19.599  68.730  1.00  0.00    -0.460 A  
HETATM   26  C   UNL     1     -10.421  20.279  67.544  1.00  0.00    -0.324 A  
HETATM   27  C   UNL     1      -9.858  19.822  66.351  1.00  0.00    -0.556 A  
HETATM   28  C   UNL     1      -9.358  18.457  68.721  1.00  0.00    -0.301 A  
HETATM   29  C   UNL     1      -9.047  18.678  66.342  1.00  0.00    -0.288 A  
ENDBRANCH  20  24
ENDBRANCH  16  18
ENDBRANCH  13  16
BRANCH  15  30
HETATM   30  C   UNL     1      -8.380  10.105  69.141  1.00  0.00    -0.154 C  
HETATM   31  H2  UNL     1      -6.784   8.753  69.278  1.00  0.00     0.000 HD 
HETATM   32  N   UNL     1      -7.517   9.011  68.618  1.00  0.00    -0.083 NA 
HETATM   33  H1  UNL     1      -8.092   8.211  68.354  1.00  0.00     0.000 HD 
BRANCH  30  34
HETATM   34  C   UNL     1      -9.223   9.472  70.271  1.00  0.00    -0.303 C  
BRANCH  34  35
HETATM   35  C   UNL     1      -9.003   8.016  70.633  1.00  0.00    -0.148 A  
HETATM   36  C   UNL     1     -10.859   7.325  68.981  1.00  0.00    -0.137 C  
HETATM   37  C   UNL     1      -7.923   6.254  71.940  1.00  0.00    -0.102 A  
HETATM   38  C   UNL     1      -7.352   8.569  72.559  1.00  0.00    -0.077 C  
HETATM   39  C   UNL     1      -9.781   7.015  69.992  1.00  0.00    -0.171 A  
HETATM   40  C   UNL     1      -8.116   7.623  71.667  1.00  0.00    -0.109 A  
HETATM   41  C   UNL     1      -8.625   5.271  71.248  1.00  0.00    -0.132 A  
HETATM   42  C   UNL     1      -9.564   5.661  70.292  1.00  0.00    -0.216 A  
BRANCH  41  43
HETATM   43  C   UNL     1      -8.462   3.812  71.501  1.00  0.00    -0.080 C  
HETATM   44  H2  UNL     1      -8.710   3.989  73.558  1.00  0.00     0.000 HD 
HETATM   45  H1  UNL     1      -8.430   2.347  72.957  1.00  0.00     0.000 HD 
HETATM   46  N   UNL     1      -8.541   3.346  72.784  1.00  0.00    -0.084 N  
HETATM   47  O   UNL     1      -8.257   3.021  70.586  1.00  0.00    -0.052 OA 
ENDBRANCH  41  43
ENDBRANCH  34  35
ENDBRANCH  30  34
ENDBRANCH  15  30
ENDBRANCH  12  13
ENDBRANCH   6  12
ENDBRANCH   2   3
TORSDOF 10
ENDMDL
MODEL      175
REMARK 921   NORMALIZED FREE ENERGY PREDICTED BY IDOCK:   -3.80 KCAL/MOL
REMARK 922        TOTAL FREE ENERGY PREDICTED BY IDOCK:   -8.89 KCAL/MOL
REMARK 923 INTER-LIGAND FREE ENERGY PREDICTED BY IDOCK:   -8.85 KCAL/MOL
REMARK 924 INTRA-LIGAND FREE ENERGY PREDICTED BY IDOCK:   -0.04 KCAL/MOL
REMARK 927      BINDING AFFINITY PREDICTED BY RF-SCORE:    0.00 PKD
ROOT
HETATM    1  C   UNL     1      -5.755   4.357  64.364  1.00  0.00    -0.014 C  
HETATM    2  O   UNL     1      -6.837   4.880  65.136  1.00  0.00    -0.051 OA 
ENDROOT
BRANCH   2   3
HETATM    3  C   UNL     1      -6.793   6.216  65.444  1.00  0.00    -0.048 A  
HETATM    4  C   UNL     1      -5.655   7.013  65.287  1.00  0.00    -0.032 A  
HETATM    5  C   UNL     1      -5.706   8.390  65.526  1.00  0.00    -0.044 A  
HETATM    6  C   UNL     1      -6.881   9.007  65.964  1.00  0.00    -0.080 A  
HETATM    7  C   UNL     1      -8.007   8.197  66.182  1.00  0.00    -0.102 A  
HETATM    8  C   UNL     1      -9.236   6.063  66.171  1.00  0.00    -0.138 C  
HETATM    9  O   UNL     1      -9.426   4.992  65.375  1.00  0.00    -0.154 OA 
HETATM   10  C   UNL     1      -7.975   6.815  65.915  1.00  0.00    -0.112 A  
HETATM   11  O   UNL     1     -10.061   6.434  66.991  1.00  0.00    -0.145 OA 
BRANCH   6  12
HETATM   12  C   UNL     1      -6.977  10.506  66.169  1.00  0.00    -0.131 C  
BRANCH  12  13
HETATM   13  N   UNL     1      -7.486  10.946  67.481  1.00  0.00    -0.095 N  
HETATM   14  O   UNL     1      -8.567  12.526  68.781  1.00  0.00    -0.012 OA 
HETATM   15  C   UNL     1      -8.288  12.100  67.653  1.00  0.00    -0.163 C  
BRANCH  13  16
HETATM   16  C   UNL     1      -6.868  10.342  68.690  1.00  0.00    -0.058 C  
HETATM   17  C   UNL     1      -6.115  11.348  69.581  1.00  0.00    -0.110 C  
BRANCH  16  18
HETATM   18  C   UNL     1      -7.904   9.649  69.551  1.00  0.00    -0.117 A  
HETATM   19  C   UNL     1      -8.681   8.603  71.351  1.00  0.00    -0.204 A  
HETATM   20  C   UNL     1      -9.688   9.307  70.726  1.00  0.00    -0.282 A  
HETATM   21  N   UNL     1      -9.198   9.907  69.589  1.00  0.00    -0.217 NA 
HETATM   22  H   UNL     1      -9.732  10.447  68.907  1.00  0.00     0.000 HD 
HETATM   23  N   UNL     1      -7.563   8.802  70.579  1.00  0.00    -0.075 NA 
BRANCH  20  24
HETATM   24  C   UNL     1     -11.050   9.517  71.198  1.00  0.00    -0.450 A  
HETATM   25  C   UNL     1     -12.950  11.029  71.448  1.00  0.00    -0.517 A  
HETATM   26  C   UNL     1     -13.629  10.074  72.198  1.00  0.00    -0.351 A  
HETATM   27  C   UNL     1     -13.033   8.834  72.437  1.00  0.00    -0.442 A  
HETATM   28  C   UNL     1     -11.674  10.752  70.952  1.00  0.00    -0.334 A  
HETATM   29  C   UNL     1     -11.754   8.554  71.936  1.00  0.00    -0.409 A  
ENDBRANCH  20  24
ENDBRANCH  16  18
ENDBRANCH  13  16
BRANCH  15  30
HETATM   30  C   UNL     1      -8.845  12.809  66.362  1.00  0.00     0.046 C  
HETATM   31  H2  UNL     1     -10.636  11.720  66.384  1.00  0.00     0.000 HD 
HETATM   32  N   UNL     1      -9.893  11.962  65.729  1.00  0.00    -0.234 NA 
HETATM   33  H1  UNL     1     -10.254  12.421  64.893  1.00  0.00     0.000 HD 
BRANCH  30  34
HETATM   34  C   UNL     1      -9.497  14.193  66.577  1.00  0.00    -0.303 C  
BRANCH  34  35
HETATM   35  C   UNL     1     -10.294  14.449  67.843  1.00  0.00    -0.232 A  
HETATM   36  C   UNL     1      -8.405  15.968  68.725  1.00  0.00    -0.216 C  
HETATM   37  C   UNL     1     -12.229  14.075  69.289  1.00  0.00    -0.319 A  
HETATM   38  C   UNL     1     -12.121  12.703  67.246  1.00  0.00    -0.184 C  
HETATM   39  C   UNL     1      -9.760  15.310  68.838  1.00  0.00    -0.220 A  
HETATM   40  C   UNL     1     -11.511  13.775  68.114  1.00  0.00    -0.348 A  
HETATM   41  C   UNL     1     -11.744  14.986  70.222  1.00  0.00    -0.338 A  
HETATM   42  C   UNL     1     -10.501  15.582  69.999  1.00  0.00    -0.322 A  
BRANCH  41  43
HETATM   43  C   UNL     1     -12.460  15.333  71.481  1.00  0.00    -0.361 C  
HETATM   44  H2  UNL     1     -10.716  15.499  72.603  1.00  0.00     0.000 HD 
HETATM   45  H1  UNL     1     -12.225  15.802  73.480  1.00  0.00     0.000 HD 
HETATM   46  N   UNL     1     -11.735  15.564  72.618  1.00  0.00    -0.461 N  
HETATM   47  O   UNL     1     -13.683  15.416  71.523  1.00  0.00    -0.472 OA 
ENDBRANCH  41  43
ENDBRANCH  34  35
ENDBRANCH  30  34
ENDBRANCH  15  30
ENDBRANCH  12  13
ENDBRANCH   6  12
ENDBRANCH   2   3
TORSDOF 10
ENDMDL
MODEL      176
REMARK 921   NORMALIZED FREE ENERGY PREDICTED BY IDOCK:   -3.80 KCAL/MOL
REMARK 922        TOTAL FREE ENERGY PREDICTED BY IDOCK:   -8.88 KCAL/MOL
REMARK 923 INTER-LIGAND FREE ENERGY PREDICTED BY IDOCK:   -8.91 KCAL/MOL
REMARK 924 INTRA-LIGAND FREE ENERGY PREDICTED BY IDOCK:    0.02 KCAL/MOL
REMARK 927      BINDING AFFINITY PREDICTED BY RF-SCORE:    0.00 PKD
ROOT
HETATM    1  C   UNL     1      -9.906  10.255  63.660  1.00  0.00    -0.112 C  
HETATM    2  O   UNL     1      -9.419  11.512  64.133  1.00  0.00    -0.187 OA 
ENDROOT
BRANCH   2   3
HETATM    3  C   UNL     1      -9.680  11.827  65.443  1.00  0.00    -0.217 A  
HETATM    4  C   UNL     1     -10.915  12.293  65.899  1.00  0.00    -0.338 A  
HETATM    5  C   UNL     1     -11.144  12.501  67.263  1.00  0.00    -0.319 A  
HETATM    6  C   UNL     1     -10.137  12.284  68.208  1.00  0.00    -0.218 A  
HETATM    7  C   UNL     1      -8.877  11.875  67.745  1.00  0.00    -0.166 A  
HETATM    8  C   UNL     1      -7.272  11.190  66.008  1.00  0.00     0.057 C  
HETATM    9  O   UNL     1      -7.209  10.387  64.926  1.00  0.00    -0.129 OA 
HETATM   10  C   UNL     1      -8.646  11.634  66.377  1.00  0.00    -0.143 A  
HETATM   11  O   UNL     1      -6.292  11.476  66.678  1.00  0.00    -0.141 OA 
BRANCH   6  12
HETATM   12  C   UNL     1     -10.381  12.441  69.696  1.00  0.00     0.900 C  
BRANCH  12  13
HETATM   13  N   UNL     1     -11.670  11.930  70.196  1.00  0.00    -0.295 N  
HETATM   14  O   UNL     1     -13.162  10.180  70.461  1.00  0.00    -0.275 OA 
HETATM   15  C   UNL     1     -12.017  10.557  70.180  1.00  0.00    -0.316 C  
BRANCH  13  16
HETATM   16  C   UNL     1     -12.758  12.918  70.417  1.00  0.00     0.049 C  
HETATM   17  C   UNL     1     -13.400  12.845  71.815  1.00  0.00    -0.451 C  
BRANCH  16  18
HETATM   18  C   UNL     1     -12.265  14.336  70.209  1.00  0.00    -0.342 A  
HETATM   19  C   UNL     1     -11.052  16.149  70.632  1.00  0.00    -0.296 A  
HETATM   20  C   UNL     1     -11.355  16.069  69.289  1.00  0.00    -0.356 A  
HETATM   21  N   UNL     1     -12.145  14.967  69.056  1.00  0.00    -0.543 NA 
HETATM   22  H   UNL     1     -12.558  14.692  68.165  1.00  0.00     0.000 HD 
HETATM   23  N   UNL     1     -11.662  15.062  71.209  1.00  0.00    -0.330 NA 
BRANCH  20  24
HETATM   24  C   UNL     1     -10.857  16.918  68.215  1.00  0.00    -0.357 A  
HETATM   25  C   UNL     1     -10.297  19.160  67.430  1.00  0.00    -0.522 A  
HETATM   26  C   UNL     1     -10.042  18.665  66.155  1.00  0.00    -0.399 A  
HETATM   27  C   UNL     1     -10.175  17.298  65.907  1.00  0.00    -0.273 A  
HETATM   28  C   UNL     1     -10.699  18.294  68.449  1.00  0.00    -0.056 A  
HETATM   29  C   UNL     1     -10.576  16.428  66.931  1.00  0.00    -0.252 A  
ENDBRANCH  20  24
ENDBRANCH  16  18
ENDBRANCH  13  16
BRANCH  15  30
HETATM   30  C   UNL     1     -10.889   9.516  69.829  1.00  0.00    -0.243 C  
HETATM   31  H2  UNL     1     -10.420   9.155  71.840  1.00  0.00     0.000 HD 
HETATM   32  N   UNL     1      -9.941   9.389  70.970  1.00  0.00    -0.286 NA 
HETATM   33  H1  UNL     1      -9.211   8.715  70.742  1.00  0.00     0.000 HD 
BRANCH  30  34
HETATM   34  C   UNL     1     -11.365   8.080  69.515  1.00  0.00     0.264 C  
BRANCH  34  35
HETATM   35  C   UNL     1     -11.037   6.962  70.487  1.00  0.00    -0.332 A  
HETATM   36  C   UNL     1     -12.893   7.796  72.073  1.00  0.00    -0.265 C  
HETATM   37  C   UNL     1      -9.695   5.049  71.205  1.00  0.00    -0.235 A  
HETATM   38  C   UNL     1      -8.935   6.203  69.165  1.00  0.00    -0.126 C  
HETATM   39  C   UNL     1     -11.791   6.839  71.685  1.00  0.00    -0.370 A  
HETATM   40  C   UNL     1      -9.934   6.094  70.290  1.00  0.00    -0.226 A  
HETATM   41  C   UNL     1     -10.490   4.879  72.335  1.00  0.00    -0.269 A  
HETATM   42  C   UNL     1     -11.521   5.789  72.576  1.00  0.00    -0.349 A  
BRANCH  41  43
HETATM   43  C   UNL     1     -10.276   3.797  73.335  1.00  0.00    -0.148 C  
HETATM   44  H2  UNL     1      -8.485   4.590  74.033  1.00  0.00     0.000 HD 
HETATM   45  H1  UNL     1      -9.015   3.090  74.811  1.00  0.00     0.000 HD 
HETATM   46  N   UNL     1      -9.161   3.832  74.126  1.00  0.00    -0.089 N  
HETATM   47  O   UNL     1     -11.076   2.875  73.465  1.00  0.00    -0.205 OA 
ENDBRANCH  41  43
ENDBRANCH  34  35
ENDBRANCH  30  34
ENDBRANCH  15  30
ENDBRANCH  12  13
ENDBRANCH   6  12
ENDBRANCH   2   3
TORSDOF 10
ENDMDL
MODEL      177
REMARK 921   NORMALIZED FREE ENERGY PREDICTED BY IDOCK:   -3.74 KCAL/MOL
REMARK 922        TOTAL FREE ENERGY PREDICTED BY IDOCK:   -8.80 KCAL/MOL
REMARK 923 INTER-LIGAND FREE ENERGY PREDICTED BY IDOCK:   -8.77 KCAL/MOL
REMARK 924 INTRA-LIGAND FREE ENERGY PREDICTED BY IDOCK:   -0.03 KCAL/MOL
REMARK 927      BINDING AFFINITY PREDICTED BY RF-SCORE:    0.00 PKD
ROOT
HETATM    1  C   UNL     1     -12.698  11.956  63.092  1.00  0.00    -0.127 C  
HETATM    2  O   UNL     1     -11.313  12.267  63.249  1.00  0.00    -0.419 OA 
ENDROOT
BRANCH   2   3
HETATM    3  C   UNL     1     -10.844  12.392  64.533  1.00  0.00    -0.321 A  
HETATM    4  C   UNL     1     -11.358  13.301  65.463  1.00  0.00    -0.315 A  
HETATM    5  C   UNL     1     -10.902  13.308  66.785  1.00  0.00    -0.289 A  
HETATM    6  C   UNL     1      -9.897  12.435  67.210  1.00  0.00    -0.207 A  
HETATM    7  C   UNL     1      -9.337  11.564  66.262  1.00  0.00    -0.227 A  
HETATM    8  C   UNL     1      -9.148  10.553  64.024  1.00  0.00    -0.231 C  
HETATM    9  O   UNL     1      -9.938  10.066  63.047  1.00  0.00     0.078 OA 
HETATM   10  C   UNL     1      -9.810  11.528  64.936  1.00  0.00    -0.289 A  
HETATM   11  O   UNL     1      -7.999  10.175  64.198  1.00  0.00    -0.154 OA 
BRANCH   6  12
HETATM   12  C   UNL     1      -9.432  12.381  68.652  1.00  0.00    -0.011 C  
BRANCH  12  13
HETATM   13  N   UNL     1      -8.373  11.401  68.952  1.00  0.00    -0.093 N  
HETATM   14  O   UNL     1      -7.668   9.485  70.044  1.00  0.00    -0.105 OA 
HETATM   15  C   UNL     1      -8.605  10.207  69.677  1.00  0.00    -0.153 C  
BRANCH  13  16
HETATM   16  C   UNL     1      -6.965  11.839  68.768  1.00  0.00    -0.103 C  
HETATM   17  C   UNL     1      -6.243  11.162  67.588  1.00  0.00    -0.053 C  
BRANCH  16  18
HETATM   18  C   UNL     1      -6.876  13.338  68.565  1.00  0.00    -0.099 A  
HETATM   19  C   UNL     1      -6.344  15.217  67.505  1.00  0.00    -0.080 A  
HETATM   20  C   UNL     1      -7.462  15.402  68.290  1.00  0.00    -0.111 A  
HETATM   21  N   UNL     1      -7.747  14.242  68.974  1.00  0.00    -0.251 NA 
HETATM   22  H   UNL     1      -8.487  14.107  69.663  1.00  0.00     0.000 HD 
HETATM   23  N   UNL     1      -5.963  13.914  67.713  1.00  0.00    -0.255 NA 
BRANCH  20  24
HETATM   24  C   UNL     1      -8.323  16.576  68.349  1.00  0.00    -0.200 A  
HETATM   25  C   UNL     1     -10.512  17.570  67.926  1.00  0.00    -0.384 A  
HETATM   26  C   UNL     1     -10.028  18.823  68.290  1.00  0.00    -0.432 A  
HETATM   27  C   UNL     1      -8.701  18.957  68.700  1.00  0.00    -0.374 A  
HETATM   28  C   UNL     1      -9.667  16.458  67.958  1.00  0.00    -0.235 A  
HETATM   29  C   UNL     1      -7.853  17.840  68.735  1.00  0.00    -0.251 A  
ENDBRANCH  20  24
ENDBRANCH  16  18
ENDBRANCH  13  16
BRANCH  15  30
HETATM   30  C   UNL     1     -10.098   9.804  69.974  1.00  0.00    -0.257 C  
HETATM   31  H2  UNL     1     -10.869  11.586  69.185  1.00  0.00     0.000 HD 
HETATM   32  N   UNL     1     -10.952  11.022  70.030  1.00  0.00    -0.467 NA 
HETATM   33  H1  UNL     1     -11.918  10.760  70.223  1.00  0.00     0.000 HD 
BRANCH  30  34
HETATM   34  C   UNL     1     -10.766   8.869  68.941  1.00  0.00    -0.132 C  
BRANCH  34  35
HETATM   35  C   UNL     1     -10.256   7.448  68.789  1.00  0.00    -0.199 A  
HETATM   36  C   UNL     1      -9.079   8.107  66.590  1.00  0.00    -0.202 C  
HETATM   37  C   UNL     1     -10.118   5.114  69.503  1.00  0.00    -0.316 A  
HETATM   38  C   UNL     1     -11.643   6.556  70.794  1.00  0.00    -0.437 C  
HETATM   39  C   UNL     1      -9.442   7.118  67.673  1.00  0.00    -0.141 A  
HETATM   40  C   UNL     1     -10.649   6.409  69.670  1.00  0.00    -0.309 A  
HETATM   41  C   UNL     1      -9.251   4.815  68.457  1.00  0.00    -0.165 A  
HETATM   42  C   UNL     1      -8.935   5.817  67.537  1.00  0.00    -0.107 A  
BRANCH  41  43
HETATM   43  C   UNL     1      -8.668   3.463  68.234  1.00  0.00    -0.103 C  
HETATM   44  H2  UNL     1      -6.706   4.152  68.199  1.00  0.00     0.000 HD 
HETATM   45  H1  UNL     1      -6.911   2.407  67.973  1.00  0.00     0.000 HD 
HETATM   46  N   UNL     1      -7.311   3.333  68.126  1.00  0.00    -0.050 N  
HETATM   47  O   UNL     1      -9.376   2.465  68.143  1.00  0.00    -0.191 OA 
ENDBRANCH  41  43
ENDBRANCH  34  35
ENDBRANCH  30  34
ENDBRANCH  15  30
ENDBRANCH  12  13
ENDBRANCH   6  12
ENDBRANCH   2   3
TORSDOF 10
ENDMDL
MODEL      178
REMARK 921   NORMALIZED FREE ENERGY PREDICTED BY IDOCK:   -3.73 KCAL/MOL
REMARK 922        TOTAL FREE ENERGY PREDICTED BY IDOCK:   -8.79 KCAL/MOL
REMARK 923 INTER-LIGAND FREE ENERGY PREDICTED BY IDOCK:   -8.04 KCAL/MOL
REMARK 924 INTRA-LIGAND FREE ENERGY PREDICTED BY IDOCK:   -0.74 KCAL/MOL
REMARK 927      BINDING AFFINITY PREDICTED BY RF-SCORE:    0.00 PKD
ROOT
HETATM    1  C   UNL     1     -10.624  18.634  65.914  1.00  0.00    -0.321 C  
HETATM    2  O   UNL     1      -9.713  17.830  66.664  1.00  0.00    -0.287 OA 
ENDROOT
BRANCH   2   3
HETATM    3  C   UNL     1      -9.912  16.472  66.635  1.00  0.00    -0.276 A  
HETATM    4  C   UNL     1      -9.894  15.709  65.465  1.00  0.00    -0.326 A  
HETATM    5  C   UNL     1     -10.005  14.316  65.516  1.00  0.00    -0.341 A  
HETATM    6  C   UNL     1     -10.174  13.646  66.731  1.00  0.00    -0.268 A  
HETATM    7  C   UNL     1     -10.254  14.417  67.901  1.00  0.00    -0.232 A  
HETATM    8  C   UNL     1     -10.203  16.526  69.172  1.00  0.00    -0.298 C  
HETATM    9  O   UNL     1      -9.477  17.660  69.251  1.00  0.00    -0.071 OA 
HETATM   10  C   UNL     1     -10.113  15.818  67.864  1.00  0.00    -0.230 A  
HETATM   11  O   UNL     1     -10.829  16.073  70.117  1.00  0.00    -0.321 OA 
BRANCH   6  12
HETATM   12  C   UNL     1     -10.233  12.134  66.817  1.00  0.00    -0.203 C  
BRANCH  12  13
HETATM   13  N   UNL     1      -9.074  11.479  67.449  1.00  0.00    -0.164 N  
HETATM   14  O   UNL     1      -8.166  10.274  69.205  1.00  0.00    -0.138 OA 
HETATM   15  C   UNL     1      -9.175  10.680  68.614  1.00  0.00    -0.181 C  
BRANCH  13  16
HETATM   16  C   UNL     1      -7.721  11.939  67.039  1.00  0.00    -0.146 C  
HETATM   17  C   UNL     1      -6.887  12.543  68.184  1.00  0.00    -0.084 C  
BRANCH  16  18
HETATM   18  C   UNL     1      -6.917  10.811  66.427  1.00  0.00    -0.134 A  
HETATM   19  C   UNL     1      -5.607   9.016  66.428  1.00  0.00    -0.049 A  
HETATM   20  C   UNL     1      -6.420   9.023  65.315  1.00  0.00    -0.068 A  
HETATM   21  N   UNL     1      -7.188  10.165  65.308  1.00  0.00    -0.137 NA 
HETATM   22  H   UNL     1      -7.841  10.456  64.581  1.00  0.00     0.000 HD 
HETATM   23  N   UNL     1      -5.908  10.170  67.108  1.00  0.00    -0.050 NA 
BRANCH  20  24
HETATM   24  C   UNL     1      -6.577   7.969  64.321  1.00  0.00    -0.061 A  
HETATM   25  C   UNL     1      -8.069   6.477  63.094  1.00  0.00    -0.036 A  
HETATM   26  C   UNL     1      -6.976   5.837  62.518  1.00  0.00    -0.040 A  
HETATM   27  C   UNL     1      -5.684   6.267  62.824  1.00  0.00    -0.022 A  
HETATM   28  C   UNL     1      -7.869   7.534  63.985  1.00  0.00    -0.127 A  
HETATM   29  C   UNL     1      -5.484   7.331  63.716  1.00  0.00    -0.037 A  
ENDBRANCH  20  24
ENDBRANCH  16  18
ENDBRANCH  13  16
BRANCH  15  30
HETATM   30  C   UNL     1     -10.616  10.290  69.116  1.00  0.00    -0.230 C  
HETATM   31  H2  UNL     1     -10.312   8.241  68.792  1.00  0.00     0.000 HD 
HETATM   32  N   UNL     1     -11.002   8.960  68.571  1.00  0.00    -0.454 NA 
HETATM   33  H1  UNL     1     -11.935   8.708  68.897  1.00  0.00     0.000 HD 
BRANCH  30  34
HETATM   34  C   UNL     1     -10.794  10.185  70.647  1.00  0.00    -0.305 C  
BRANCH  34  35
HETATM   35  C   UNL     1     -10.838   8.815  71.296  1.00  0.00    -0.347 A  
HETATM   36  C   UNL     1     -13.416   8.860  71.218  1.00  0.00    -0.222 C  
HETATM   37  C   UNL     1      -9.760   6.879  72.329  1.00  0.00    -0.159 A  
HETATM   38  C   UNL     1      -8.281   8.759  71.743  1.00  0.00    -0.144 C  
HETATM   39  C   UNL     1     -12.095   8.200  71.539  1.00  0.00    -0.332 A  
HETATM   40  C   UNL     1      -9.667   8.167  71.765  1.00  0.00    -0.253 A  
HETATM   41  C   UNL     1     -10.988   6.243  72.486  1.00  0.00    -0.286 A  
HETATM   42  C   UNL     1     -12.150   6.919  72.108  1.00  0.00    -0.278 A  
BRANCH  41  43
HETATM   43  C   UNL     1     -11.141   4.886  73.081  1.00  0.00    -0.322 C  
HETATM   44  H2  UNL     1      -9.168   4.340  72.717  1.00  0.00     0.000 HD 
HETATM   45  H1  UNL     1     -10.170   3.114  73.511  1.00  0.00     0.000 HD 
HETATM   46  N   UNL     1     -10.065   4.043  73.103  1.00  0.00    -0.137 N  
HETATM   47  O   UNL     1     -12.210   4.507  73.550  1.00  0.00     0.072 OA 
ENDBRANCH  41  43
ENDBRANCH  34  35
ENDBRANCH  30  34
ENDBRANCH  15  30
ENDBRANCH  12  13
ENDBRANCH   6  12
ENDBRANCH   2   3
TORSDOF 10
ENDMDL
MODEL      179
REMARK 921   NORMALIZED FREE ENERGY PREDICTED BY IDOCK:   -3.69 KCAL/MOL
REMARK 922        TOTAL FREE ENERGY PREDICTED BY IDOCK:   -8.72 KCAL/MOL
REMARK 923 INTER-LIGAND FREE ENERGY PREDICTED BY IDOCK:   -6.65 KCAL/MOL
REMARK 924 INTRA-LIGAND FREE ENERGY PREDICTED BY IDOCK:   -2.07 KCAL/MOL
REMARK 927      BINDING AFFINITY PREDICTED BY RF-SCORE:    0.00 PKD
ROOT
HETATM    1  C   UNL     1     -12.519  13.322  65.619  1.00  0.00    -0.451 C  
HETATM    2  O   UNL     1     -11.456  12.615  66.261  1.00  0.00    -0.323 OA 
ENDROOT
BRANCH   2   3
HETATM    3  C   UNL     1     -10.792  11.676  65.513  1.00  0.00    -0.279 A  
HETATM    4  C   UNL     1     -10.407  11.873  64.184  1.00  0.00    -0.377 A  
HETATM    5  C   UNL     1      -9.645  10.914  63.509  1.00  0.00    -0.354 A  
HETATM    6  C   UNL     1      -9.276   9.715  64.127  1.00  0.00    -0.218 A  
HETATM    7  C   UNL     1      -9.714   9.491  65.441  1.00  0.00    -0.314 A  
HETATM    8  C   UNL     1     -10.853  10.116  67.533  1.00  0.00    -0.290 C  
HETATM    9  O   UNL     1     -10.962  11.169  68.368  1.00  0.00    -0.194 OA 
HETATM   10  C   UNL     1     -10.456  10.463  66.139  1.00  0.00    -0.224 A  
HETATM   11  O   UNL     1     -10.999   8.961  67.901  1.00  0.00    -0.093 OA 
BRANCH   6  12
HETATM   12  C   UNL     1      -8.397   8.690  63.437  1.00  0.00    -0.129 C  
BRANCH  12  13
HETATM   13  N   UNL     1      -7.260   8.182  64.225  1.00  0.00    -0.085 N  
HETATM   14  O   UNL     1      -6.360   6.594  65.649  1.00  0.00    -0.043 OA 
HETATM   15  C   UNL     1      -7.265   6.922  64.870  1.00  0.00    -0.078 C  
BRANCH  13  16
HETATM   16  C   UNL     1      -6.212   9.160  64.621  1.00  0.00    -0.070 C  
HETATM   17  C   UNL     1      -6.163  10.421  63.738  1.00  0.00    -0.068 C  
BRANCH  16  18
HETATM   18  C   UNL     1      -6.391   9.608  66.057  1.00  0.00    -0.073 A  
HETATM   19  C   UNL     1      -7.190  10.857  67.712  1.00  0.00    -0.091 A  
HETATM   20  C   UNL     1      -6.909   9.583  68.157  1.00  0.00    -0.070 A  
HETATM   21  N   UNL     1      -6.371   8.841  67.131  1.00  0.00    -0.059 NA 
HETATM   22  H   UNL     1      -6.025   7.883  67.188  1.00  0.00     0.000 HD 
HETATM   23  N   UNL     1      -6.827  10.870  66.387  1.00  0.00    -0.133 NA 
BRANCH  20  24
HETATM   24  C   UNL     1      -7.212   9.011  69.462  1.00  0.00    -0.060 A  
HETATM   25  C   UNL     1      -8.736   8.866  71.363  1.00  0.00    -0.262 A  
HETATM   26  C   UNL     1      -7.825   8.070  72.050  1.00  0.00    -0.131 A  
HETATM   27  C   UNL     1      -6.615   7.727  71.445  1.00  0.00    -0.041 A  
HETATM   28  C   UNL     1      -8.432   9.329  70.080  1.00  0.00    -0.206 A  
HETATM   29  C   UNL     1      -6.311   8.190  70.156  1.00  0.00    -0.032 A  
ENDBRANCH  20  24
ENDBRANCH  16  18
ENDBRANCH  13  16
BRANCH  15  30
HETATM   30  C   UNL     1      -8.443   5.930  64.539  1.00  0.00    -0.004 C  
HETATM   31  H2  UNL     1      -7.509   5.199  62.811  1.00  0.00     0.000 HD 
HETATM   32  N   UNL     1      -8.415   5.572  63.095  1.00  0.00    -0.265 NA 
HETATM   33  H1  UNL     1      -9.178   4.930  62.881  1.00  0.00     0.000 HD 
BRANCH  30  34
HETATM   34  C   UNL     1      -8.435   4.589  65.305  1.00  0.00    -0.124 C  
BRANCH  34  35
HETATM   35  C   UNL     1      -8.491   4.601  66.821  1.00  0.00    -0.105 A  
HETATM   36  C   UNL     1     -10.756   5.831  66.727  1.00  0.00    -0.369 C  
HETATM   37  C   UNL     1      -7.530   4.145  69.023  1.00  0.00    -0.055 A  
HETATM   38  C   UNL     1      -6.084   3.665  67.086  1.00  0.00    -0.025 C  
HETATM   39  C   UNL     1      -9.614   5.181  67.471  1.00  0.00    -0.159 A  
HETATM   40  C   UNL     1      -7.411   4.144  67.618  1.00  0.00    -0.069 A  
HETATM   41  C   UNL     1      -8.669   4.635  69.653  1.00  0.00    -0.111 A  
HETATM   42  C   UNL     1      -9.695   5.168  68.871  1.00  0.00    -0.220 A  
BRANCH  41  43
HETATM   43  C   UNL     1      -8.841   4.664  71.133  1.00  0.00    -0.118 C  
HETATM   44  H2  UNL     1     -10.897   4.964  71.037  1.00  0.00     0.000 HD 
HETATM   45  H1  UNL     1     -10.210   4.868  72.666  1.00  0.00     0.000 HD 
HETATM   46  N   UNL     1     -10.092   4.848  71.654  1.00  0.00    -0.192 N  
HETATM   47  O   UNL     1      -7.888   4.529  71.894  1.00  0.00    -0.091 OA 
ENDBRANCH  41  43
ENDBRANCH  34  35
ENDBRANCH  30  34
ENDBRANCH  15  30
ENDBRANCH  12  13
ENDBRANCH   6  12
ENDBRANCH   2   3
TORSDOF 10
ENDMDL
MODEL      180
REMARK 921   NORMALIZED FREE ENERGY PREDICTED BY IDOCK:   -3.68 KCAL/MOL
REMARK 922        TOTAL FREE ENERGY PREDICTED BY IDOCK:   -8.70 KCAL/MOL
REMARK 923 INTER-LIGAND FREE ENERGY PREDICTED BY IDOCK:   -8.20 KCAL/MOL
REMARK 924 INTRA-LIGAND FREE ENERGY PREDICTED BY IDOCK:   -0.50 KCAL/MOL
REMARK 927      BINDING AFFINITY PREDICTED BY RF-SCORE:    0.00 PKD
ROOT
HETATM    1  C   UNL     1     -10.186   4.020  70.741  1.00  0.00     0.190 C  
HETATM    2  O   UNL     1     -10.998   5.193  70.654  1.00  0.00    -0.062 OA 
ENDROOT
BRANCH   2   3
HETATM    3  C   UNL     1     -10.558   6.194  69.825  1.00  0.00    -0.280 A  
HETATM    4  C   UNL     1      -9.857   5.968  68.638  1.00  0.00    -0.166 A  
HETATM    5  C   UNL     1      -9.524   7.029  67.789  1.00  0.00    -0.132 A  
HETATM    6  C   UNL     1      -9.849   8.348  68.116  1.00  0.00    -0.196 A  
HETATM    7  C   UNL     1     -10.499   8.582  69.338  1.00  0.00    -0.223 A  
HETATM    8  C   UNL     1     -11.563   7.890  71.448  1.00  0.00    -0.272 C  
HETATM    9  O   UNL     1     -12.433   6.967  71.906  1.00  0.00    -0.329 OA 
HETATM   10  C   UNL     1     -10.865   7.518  70.185  1.00  0.00    -0.259 A  
HETATM   11  O   UNL     1     -11.407   8.977  71.984  1.00  0.00    -0.364 OA 
BRANCH   6  12
HETATM   12  C   UNL     1      -9.556   9.506  67.182  1.00  0.00    -0.160 C  
BRANCH  12  13
HETATM   13  N   UNL     1      -8.945  10.696  67.803  1.00  0.00    -0.139 N  
HETATM   14  O   UNL     1      -9.122  12.882  68.542  1.00  0.00    -0.155 OA 
HETATM   15  C   UNL     1      -9.686  11.846  68.168  1.00  0.00    -0.194 C  
BRANCH  13  16
HETATM   16  C   UNL     1      -7.465  10.814  67.742  1.00  0.00    -0.094 C  
HETATM   17  C   UNL     1      -6.791  11.008  69.113  1.00  0.00    -0.094 C  
BRANCH  16  18
HETATM   18  C   UNL     1      -6.841   9.598  67.089  1.00  0.00    -0.084 A  
HETATM   19  C   UNL     1      -6.046   7.525  66.995  1.00  0.00    -0.047 A  
HETATM   20  C   UNL     1      -6.553   7.906  65.771  1.00  0.00    -0.045 A  
HETATM   21  N   UNL     1      -6.996   9.208  65.837  1.00  0.00    -0.087 NA 
HETATM   22  H   UNL     1      -7.371   9.763  65.069  1.00  0.00     0.000 HD 
HETATM   23  N   UNL     1      -6.205   8.617  67.813  1.00  0.00    -0.055 NA 
BRANCH  20  24
HETATM   24  C   UNL     1      -6.727   7.080  64.584  1.00  0.00    -0.043 A  
HETATM   25  C   UNL     1      -8.089   6.493  62.644  1.00  0.00    -0.072 A  
HETATM   26  C   UNL     1      -7.231   5.439  62.345  1.00  0.00    -0.044 A  
HETATM   27  C   UNL     1      -6.113   5.210  63.149  1.00  0.00    -0.021 A  
HETATM   28  C   UNL     1      -7.837   7.306  63.752  1.00  0.00    -0.109 A  
HETATM   29  C   UNL     1      -5.859   6.028  64.259  1.00  0.00    -0.022 A  
ENDBRANCH  20  24
ENDBRANCH  16  18
ENDBRANCH  13  16
BRANCH  15  30
HETATM   30  C   UNL     1     -11.257  11.756  68.119  1.00  0.00    -0.260 C  
HETATM   31  H2  UNL     1     -11.490  12.555  70.042  1.00  0.00     0.000 HD 
HETATM   32  N   UNL     1     -11.810  11.753  69.501  1.00  0.00    -0.324 NA 
HETATM   33  H1  UNL     1     -12.828  11.694  69.468  1.00  0.00     0.000 HD 
BRANCH  30  34
HETATM   34  C   UNL     1     -11.979  12.904  67.380  1.00  0.00    -0.360 C  
BRANCH  34  35
HETATM   35  C   UNL     1     -11.409  14.308  67.456  1.00  0.00    -0.346 A  
HETATM   36  C   UNL     1     -10.282  13.975  65.160  1.00  0.00    -0.396 C  
HETATM   37  C   UNL     1     -11.029  16.425  68.618  1.00  0.00    -0.345 A  
HETATM   38  C   UNL     1     -12.199  14.678  69.901  1.00  0.00    -0.365 C  
HETATM   39  C   UNL     1     -10.622  14.798  66.379  1.00  0.00    -0.300 A  
HETATM   40  C   UNL     1     -11.548  15.115  68.613  1.00  0.00    -0.358 A  
HETATM   41  C   UNL     1     -10.332  16.933  67.526  1.00  0.00    -0.318 A  
HETATM   42  C   UNL     1     -10.117  16.107  66.421  1.00  0.00    -0.321 A  
BRANCH  41  43
HETATM   43  C   UNL     1      -9.759  18.307  67.483  1.00  0.00    -0.300 C  
HETATM   44  H2  UNL     1      -8.984  18.085  65.566  1.00  0.00     0.000 HD 
HETATM   45  H1  UNL     1      -8.697  19.655  66.333  1.00  0.00     0.000 HD 
HETATM   46  N   UNL     1      -9.089  18.714  66.362  1.00  0.00    -0.306 N  
HETATM   47  O   UNL     1      -9.872  19.081  68.429  1.00  0.00    -0.345 OA 
ENDBRANCH  41  43
ENDBRANCH  34  35
ENDBRANCH  30  34
ENDBRANCH  15  30
ENDBRANCH  12  13
ENDBRANCH   6  12
ENDBRANCH   2   3
TORSDOF 10
ENDMDL
MODEL      181
REMARK 921   NORMALIZED FREE ENERGY PREDICTED BY IDOCK:   -3.67 KCAL/MOL
REMARK 922        TOTAL FREE ENERGY PREDICTED BY IDOCK:   -8.69 KCAL/MOL
REMARK 923 INTER-LIGAND FREE ENERGY PREDICTED BY IDOCK:  -11.23 KCAL/MOL
REMARK 924 INTRA-LIGAND FREE ENERGY PREDICTED BY IDOCK:    2.55 KCAL/MOL
REMARK 927      BINDING AFFINITY PREDICTED BY RF-SCORE:    0.00 PKD
ROOT
HETATM    1  C   UNL     1     -14.327  14.169  71.328  1.00  0.00     0.074 C  
HETATM    2  O   UNL     1     -13.052  13.538  71.464  1.00  0.00    -0.351 OA 
ENDROOT
BRANCH   2   3
HETATM    3  C   UNL     1     -12.277  13.452  70.334  1.00  0.00    -0.345 A  
HETATM    4  C   UNL     1     -12.158  12.295  69.560  1.00  0.00    -0.260 A  
HETATM    5  C   UNL     1     -11.431  12.304  68.366  1.00  0.00    -0.356 A  
HETATM    6  C   UNL     1     -10.770  13.455  67.927  1.00  0.00    -0.259 A  
HETATM    7  C   UNL     1     -10.838  14.600  68.736  1.00  0.00    -0.261 A  
HETATM    8  C   UNL     1     -11.601  15.888  70.692  1.00  0.00    -0.400 C  
HETATM    9  O   UNL     1     -12.729  16.120  71.393  1.00  0.00    -0.319 OA 
HETATM   10  C   UNL     1     -11.594  14.610  69.925  1.00  0.00    -0.333 A  
HETATM   11  O   UNL     1     -10.683  16.691  70.629  1.00  0.00     0.034 OA 
BRANCH   6  12
HETATM   12  C   UNL     1     -10.029  13.506  66.606  1.00  0.00    -0.282 C  
BRANCH  12  13
HETATM   13  N   UNL     1     -10.863  13.402  65.395  1.00  0.00    -0.288 N  
HETATM   14  O   UNL     1     -12.081  14.419  63.710  1.00  0.00    -0.439 OA 
HETATM   15  C   UNL     1     -11.256  14.524  64.626  1.00  0.00    -0.353 C  
BRANCH  13  16
HETATM   16  C   UNL     1     -11.578  12.119  65.166  1.00  0.00    -0.317 C  
HETATM   17  C   UNL     1     -12.369  12.066  63.846  1.00  0.00    -0.553 C  
BRANCH  16  18
HETATM   18  C   UNL     1     -10.621  10.945  65.178  1.00  0.00    -0.198 A  
HETATM   19  C   UNL     1      -8.643   9.935  65.115  1.00  0.00    -0.153 A  
HETATM   20  C   UNL     1      -9.544   9.192  65.847  1.00  0.00    -0.273 A  
HETATM   21  N   UNL     1     -10.774   9.810  65.834  1.00  0.00     0.193 NA 
HETATM   22  H   UNL     1     -11.636   9.459  66.251  1.00  0.00     0.000 HD 
HETATM   23  N   UNL     1      -9.346  11.027  64.669  1.00  0.00    -0.215 NA 
BRANCH  20  24
HETATM   24  C   UNL     1      -9.279   7.993  66.631  1.00  0.00    -0.225 A  
HETATM   25  C   UNL     1      -7.650   6.386  67.481  1.00  0.00    -0.100 A  
HETATM   26  C   UNL     1      -8.675   5.605  68.007  1.00  0.00    -0.099 A  
HETATM   27  C   UNL     1     -10.000   6.020  67.865  1.00  0.00    -0.151 A  
HETATM   28  C   UNL     1      -7.951   7.569  66.802  1.00  0.00    -0.115 A  
HETATM   29  C   UNL     1     -10.301   7.209  67.186  1.00  0.00    -0.359 A  
ENDBRANCH  20  24
ENDBRANCH  16  18
ENDBRANCH  13  16
BRANCH  15  30
HETATM   30  C   UNL     1     -10.583  15.911  64.950  1.00  0.00    -0.254 C  
HETATM   31  H2  UNL     1     -12.338  16.994  64.575  1.00  0.00     0.000 HD 
HETATM   32  N   UNL     1     -11.354  17.012  64.310  1.00  0.00    -1.163 NA 
HETATM   33  H1  UNL     1     -10.917  17.909  64.520  1.00  0.00     0.000 HD 
BRANCH  30  34
HETATM   34  C   UNL     1     -10.482  16.282  66.446  1.00  0.00    -0.297 C  
BRANCH  34  35
HETATM   35  C   UNL     1      -9.506  17.361  66.878  1.00  0.00    -0.275 A  
HETATM   36  C   UNL     1      -7.727  15.558  67.363  1.00  0.00    -0.222 C  
HETATM   37  C   UNL     1      -8.932  19.689  67.354  1.00  0.00    -0.383 A  
HETATM   38  C   UNL     1     -11.280  19.252  66.751  1.00  0.00     0.056 C  
HETATM   39  C   UNL     1      -8.199  16.990  67.291  1.00  0.00    -0.205 A  
HETATM   40  C   UNL     1      -9.887  18.722  66.982  1.00  0.00    -0.359 A  
HETATM   41  C   UNL     1      -7.626  19.331  67.675  1.00  0.00    -0.275 A  
HETATM   42  C   UNL     1      -7.275  17.980  67.660  1.00  0.00    -0.210 A  
BRANCH  41  43
HETATM   43  C   UNL     1      -6.581  20.312  68.080  1.00  0.00    -0.301 C  
HETATM   44  H2  UNL     1      -6.135  19.330  69.858  1.00  0.00     0.000 HD 
HETATM   45  H1  UNL     1      -5.201  20.800  69.539  1.00  0.00     0.000 HD 
HETATM   46  N   UNL     1      -5.917  20.128  69.262  1.00  0.00    -0.291 N  
HETATM   47  O   UNL     1      -6.302  21.281  67.380  1.00  0.00    -0.353 OA 
ENDBRANCH  41  43
ENDBRANCH  34  35
ENDBRANCH  30  34
ENDBRANCH  15  30
ENDBRANCH  12  13
ENDBRANCH   6  12
ENDBRANCH   2   3
TORSDOF 10
ENDMDL
MODEL      182
REMARK 921   NORMALIZED FREE ENERGY PREDICTED BY IDOCK:   -3.66 KCAL/MOL
REMARK 922        TOTAL FREE ENERGY PREDICTED BY IDOCK:   -8.67 KCAL/MOL
REMARK 923 INTER-LIGAND FREE ENERGY PREDICTED BY IDOCK:   -9.00 KCAL/MOL
REMARK 924 INTRA-LIGAND FREE ENERGY PREDICTED BY IDOCK:    0.33 KCAL/MOL
REMARK 927      BINDING AFFINITY PREDICTED BY RF-SCORE:    0.00 PKD
ROOT
HETATM    1  C   UNL     1      -6.618  20.735  64.589  1.00  0.00    -0.196 C  
HETATM    2  O   UNL     1      -7.425  20.098  65.581  1.00  0.00    -0.319 OA 
ENDROOT
BRANCH   2   3
HETATM    3  C   UNL     1      -7.069  18.825  65.949  1.00  0.00    -0.255 A  
HETATM    4  C   UNL     1      -5.750  18.419  66.168  1.00  0.00    -0.203 A  
HETATM    5  C   UNL     1      -5.464  17.133  66.637  1.00  0.00    -0.203 A  
HETATM    6  C   UNL     1      -6.481  16.202  66.867  1.00  0.00    -0.006 A  
HETATM    7  C   UNL     1      -7.802  16.589  66.588  1.00  0.00    -0.321 A  
HETATM    8  C   UNL     1      -9.541  18.188  65.894  1.00  0.00     0.089 C  
HETATM    9  O   UNL     1      -9.897  19.472  66.101  1.00  0.00    -0.388 OA 
HETATM   10  C   UNL     1      -8.102  17.892  66.144  1.00  0.00    -0.208 A  
HETATM   11  O   UNL     1     -10.344  17.318  65.595  1.00  0.00    -0.580 OA 
BRANCH   6  12
HETATM   12  C   UNL     1      -6.201  14.825  67.435  1.00  0.00     0.159 C  
BRANCH  12  13
HETATM   13  N   UNL     1      -7.146  14.348  68.461  1.00  0.00    -0.101 N  
HETATM   14  O   UNL     1      -9.049  13.160  69.033  1.00  0.00     0.224 OA 
HETATM   15  C   UNL     1      -8.181  13.420  68.190  1.00  0.00    -0.160 C  
BRANCH  13  16
HETATM   16  C   UNL     1      -7.213  15.110  69.735  1.00  0.00    -0.155 C  
HETATM   17  C   UNL     1      -6.189  16.255  69.838  1.00  0.00    -0.161 C  
BRANCH  16  18
HETATM   18  C   UNL     1      -8.591  15.702  69.951  1.00  0.00     0.238 A  
HETATM   19  C   UNL     1     -10.507  16.660  69.360  1.00  0.00    -0.320 A  
HETATM   20  C   UNL     1     -10.681  15.877  70.481  1.00  0.00    -0.188 A  
HETATM   21  N   UNL     1      -9.475  15.331  70.859  1.00  0.00     0.711 NA 
HETATM   22  H   UNL     1      -9.298  14.753  71.680  1.00  0.00     0.000 HD 
HETATM   23  N   UNL     1      -9.172  16.566  69.053  1.00  0.00    -0.257 NA 
BRANCH  20  24
HETATM   24  C   UNL     1     -11.933  15.543  71.147  1.00  0.00    -0.432 A  
HETATM   25  C   UNL     1     -13.348  15.738  73.127  1.00  0.00    -0.685 A  
HETATM   26  C   UNL     1     -14.261  14.842  72.579  1.00  0.00    -0.357 A  
HETATM   27  C   UNL     1     -14.025  14.306  71.312  1.00  0.00    -0.257 A  
HETATM   28  C   UNL     1     -12.197  16.086  72.415  1.00  0.00    -0.603 A  
HETATM   29  C   UNL     1     -12.872  14.658  70.596  1.00  0.00    -0.399 A  
ENDBRANCH  20  24
ENDBRANCH  16  18
ENDBRANCH  13  16
BRANCH  15  30
HETATM   30  C   UNL     1      -8.175  12.699  66.790  1.00  0.00     0.037 C  
HETATM   31  H2  UNL     1      -6.830  11.218  67.417  1.00  0.00     0.000 HD 
HETATM   32  N   UNL     1      -6.942  11.877  66.647  1.00  0.00    -0.373 NA 
HETATM   33  H1  UNL     1      -6.939  11.410  65.740  1.00  0.00     0.000 HD 
BRANCH  30  34
HETATM   34  C   UNL     1      -9.354  11.739  66.517  1.00  0.00    -0.217 C  
BRANCH  34  35
HETATM   35  C   UNL     1     -10.271  11.348  67.661  1.00  0.00    -0.204 A  
HETATM   36  C   UNL     1      -8.791   9.292  68.144  1.00  0.00    -0.129 C  
HETATM   37  C   UNL     1     -12.277  11.656  69.023  1.00  0.00    -0.162 A  
HETATM   38  C   UNL     1     -12.030  13.173  67.098  1.00  0.00    -0.397 C  
HETATM   39  C   UNL     1      -9.970  10.191  68.429  1.00  0.00    -0.173 A  
HETATM   40  C   UNL     1     -11.479  12.040  67.927  1.00  0.00    -0.396 A  
HETATM   41  C   UNL     1     -11.933  10.574  69.827  1.00  0.00    -0.309 A  
HETATM   42  C   UNL     1     -10.790   9.836  69.510  1.00  0.00    -0.264 A  
BRANCH  41  43
HETATM   43  C   UNL     1     -12.743  10.124  70.993  1.00  0.00    -0.386 C  
HETATM   44  H2  UNL     1     -12.738  11.992  71.908  1.00  0.00     0.000 HD 
HETATM   45  H1  UNL     1     -13.611  10.716  72.772  1.00  0.00     0.000 HD 
HETATM   46  N   UNL     1     -13.056  11.024  71.974  1.00  0.00    -0.458 N  
HETATM   47  O   UNL     1     -13.135   8.966  71.094  1.00  0.00    -0.236 OA 
ENDBRANCH  41  43
ENDBRANCH  34  35
ENDBRANCH  30  34
ENDBRANCH  15  30
ENDBRANCH  12  13
ENDBRANCH   6  12
ENDBRANCH   2   3
TORSDOF 10
ENDMDL
MODEL      183
REMARK 921   NORMALIZED FREE ENERGY PREDICTED BY IDOCK:   -3.66 KCAL/MOL
REMARK 922        TOTAL FREE ENERGY PREDICTED BY IDOCK:   -8.67 KCAL/MOL
REMARK 923 INTER-LIGAND FREE ENERGY PREDICTED BY IDOCK:   -9.57 KCAL/MOL
REMARK 924 INTRA-LIGAND FREE ENERGY PREDICTED BY IDOCK:    0.90 KCAL/MOL
REMARK 927      BINDING AFFINITY PREDICTED BY RF-SCORE:    0.00 PKD
ROOT
HETATM    1  C   UNL     1     -12.710  12.282  64.346  1.00  0.00    -0.288 C  
HETATM    2  O   UNL     1     -12.684  13.290  65.357  1.00  0.00    -0.506 OA 
ENDROOT
BRANCH   2   3
HETATM    3  C   UNL     1     -11.459  13.612  65.885  1.00  0.00    -0.316 A  
HETATM    4  C   UNL     1     -10.786  12.825  66.823  1.00  0.00    -0.278 A  
HETATM    5  C   UNL     1      -9.495  13.159  67.245  1.00  0.00    -0.225 A  
HETATM    6  C   UNL     1      -8.852  14.307  66.773  1.00  0.00    -0.207 A  
HETATM    7  C   UNL     1      -9.552  15.131  65.877  1.00  0.00    -0.373 A  
HETATM    8  C   UNL     1     -11.476  15.733  64.463  1.00  0.00    -0.289 C  
HETATM    9  O   UNL     1     -12.323  15.161  63.584  1.00  0.00    -0.533 OA 
HETATM   10  C   UNL     1     -10.840  14.787  65.423  1.00  0.00    -0.372 A  
HETATM   11  O   UNL     1     -11.194  16.921  64.435  1.00  0.00    -1.159 OA 
BRANCH   6  12
HETATM   12  C   UNL     1      -7.430  14.655  67.168  1.00  0.00     0.000 C  
BRANCH  12  13
HETATM   13  N   UNL     1      -6.988  14.162  68.484  1.00  0.00    -0.096 N  
HETATM   14  O   UNL     1      -6.468  12.398  69.890  1.00  0.00    -0.091 OA 
HETATM   15  C   UNL     1      -6.685  12.803  68.740  1.00  0.00    -0.093 C  
BRANCH  13  16
HETATM   16  C   UNL     1      -7.182  15.061  69.651  1.00  0.00    -0.192 C  
HETATM   17  C   UNL     1      -6.328  14.693  70.879  1.00  0.00     0.076 C  
BRANCH  16  18
HETATM   18  C   UNL     1      -6.879  16.502  69.293  1.00  0.00    -0.224 A  
HETATM   19  C   UNL     1      -5.786  18.434  69.392  1.00  0.00    -0.236 A  
HETATM   20  C   UNL     1      -6.340  18.253  68.142  1.00  0.00    -0.188 A  
HETATM   21  N   UNL     1      -7.052  17.075  68.117  1.00  0.00    -0.172 NA 
HETATM   22  H   UNL     1      -7.606  16.715  67.339  1.00  0.00     0.000 HD 
HETATM   23  N   UNL     1      -6.162  17.333  70.121  1.00  0.00    -0.040 NA 
BRANCH  20  24
HETATM   24  C   UNL     1      -6.151  19.079  66.957  1.00  0.00    -0.177 A  
HETATM   25  C   UNL     1      -5.842  21.305  66.006  1.00  0.00    -0.281 A  
HETATM   26  C   UNL     1      -5.921  20.781  64.719  1.00  0.00    -0.308 A  
HETATM   27  C   UNL     1      -6.097  19.408  64.544  1.00  0.00    -0.267 A  
HETATM   28  C   UNL     1      -5.954  20.460  67.113  1.00  0.00    -0.220 A  
HETATM   29  C   UNL     1      -6.207  18.559  65.656  1.00  0.00    -0.294 A  
ENDBRANCH  20  24
ENDBRANCH  16  18
ENDBRANCH  13  16
BRANCH  15  30
HETATM   30  C   UNL     1      -6.596  11.824  67.510  1.00  0.00    -0.097 C  
HETATM   31  H2  UNL     1      -4.608  12.335  67.085  1.00  0.00     0.000 HD 
HETATM   32  N   UNL     1      -5.499  12.251  66.598  1.00  0.00    -0.457 NA 
HETATM   33  H1  UNL     1      -5.442  11.617  65.802  1.00  0.00     0.000 HD 
BRANCH  30  34
HETATM   34  C   UNL     1      -6.312  10.342  67.842  1.00  0.00    -0.060 C  
BRANCH  34  35
HETATM   35  C   UNL     1      -7.403   9.311  67.619  1.00  0.00    -0.084 A  
HETATM   36  C   UNL     1      -7.588   8.956  70.167  1.00  0.00    -0.074 C  
HETATM   37  C   UNL     1      -8.816   7.940  66.170  1.00  0.00    -0.197 A  
HETATM   38  C   UNL     1      -7.111   9.313  65.039  1.00  0.00    -0.097 C  
HETATM   39  C   UNL     1      -8.004   8.681  68.742  1.00  0.00    -0.114 A  
HETATM   40  C   UNL     1      -7.773   8.876  66.322  1.00  0.00    -0.098 A  
HETATM   41  C   UNL     1      -9.463   7.390  67.272  1.00  0.00    -0.179 A  
HETATM   42  C   UNL     1      -9.037   7.751  68.552  1.00  0.00    -0.132 A  
BRANCH  41  43
HETATM   43  C   UNL     1     -10.566   6.395  67.166  1.00  0.00    -0.321 C  
HETATM   44  H2  UNL     1      -9.771   5.470  65.482  1.00  0.00     0.000 HD 
HETATM   45  H1  UNL     1     -11.294   4.794  66.083  1.00  0.00     0.000 HD 
HETATM   46  N   UNL     1     -10.538   5.475  66.155  1.00  0.00    -0.144 N  
HETATM   47  O   UNL     1     -11.499   6.383  67.963  1.00  0.00    -0.163 OA 
ENDBRANCH  41  43
ENDBRANCH  34  35
ENDBRANCH  30  34
ENDBRANCH  15  30
ENDBRANCH  12  13
ENDBRANCH   6  12
ENDBRANCH   2   3
TORSDOF 10
ENDMDL
MODEL      184
REMARK 921   NORMALIZED FREE ENERGY PREDICTED BY IDOCK:   -3.65 KCAL/MOL
REMARK 922        TOTAL FREE ENERGY PREDICTED BY IDOCK:   -8.66 KCAL/MOL
REMARK 923 INTER-LIGAND FREE ENERGY PREDICTED BY IDOCK:   -9.86 KCAL/MOL
REMARK 924 INTRA-LIGAND FREE ENERGY PREDICTED BY IDOCK:    1.20 KCAL/MOL
REMARK 927      BINDING AFFINITY PREDICTED BY RF-SCORE:    0.00 PKD
ROOT
HETATM    1  C   UNL     1     -11.136   7.452  73.027  1.00  0.00    -0.343 C  
HETATM    2  O   UNL     1     -12.059   7.683  71.962  1.00  0.00    -0.288 OA 
ENDROOT
BRANCH   2   3
HETATM    3  C   UNL     1     -11.611   8.433  70.903  1.00  0.00    -0.262 A  
HETATM    4  C   UNL     1     -10.727   7.955  69.931  1.00  0.00    -0.244 A  
HETATM    5  C   UNL     1     -10.389   8.738  68.823  1.00  0.00    -0.234 A  
HETATM    6  C   UNL     1     -10.892  10.033  68.670  1.00  0.00    -0.265 A  
HETATM    7  C   UNL     1     -11.732  10.536  69.676  1.00  0.00    -0.328 A  
HETATM    8  C   UNL     1     -13.009  10.383  71.776  1.00  0.00    -0.475 C  
HETATM    9  O   UNL     1     -13.835   9.531  72.416  1.00  0.00    -0.424 OA 
HETATM   10  C   UNL     1     -12.103   9.745  70.780  1.00  0.00    -0.364 A  
HETATM   11  O   UNL     1     -13.044  11.592  71.944  1.00  0.00    -0.478 OA 
BRANCH   6  12
HETATM   12  C   UNL     1     -10.590  10.876  67.446  1.00  0.00    -0.243 C  
BRANCH  12  13
HETATM   13  N   UNL     1     -10.137  12.254  67.709  1.00  0.00    -0.197 N  
HETATM   14  O   UNL     1      -8.513  13.715  68.475  1.00  0.00    -0.161 OA 
HETATM   15  C   UNL     1      -8.817  12.571  68.114  1.00  0.00    -0.191 C  
BRANCH  13  16
HETATM   16  C   UNL     1     -11.182  13.298  67.869  1.00  0.00    -0.272 C  
HETATM   17  C   UNL     1     -11.483  13.669  69.333  1.00  0.00    -0.343 C  
BRANCH  16  18
HETATM   18  C   UNL     1     -10.806  14.571  67.139  1.00  0.00    -0.296 A  
HETATM   19  C   UNL     1     -10.910  16.094  65.525  1.00  0.00    -0.270 A  
HETATM   20  C   UNL     1     -10.507  16.670  66.711  1.00  0.00    -0.261 A  
HETATM   21  N   UNL     1     -10.402  15.703  67.684  1.00  0.00    -0.269 NA 
HETATM   22  H   UNL     1     -10.076  15.836  68.642  1.00  0.00     0.000 HD 
HETATM   23  N   UNL     1     -11.065  14.758  65.801  1.00  0.00    -0.331 NA 
BRANCH  20  24
HETATM   24  C   UNL     1     -10.313  18.087  66.990  1.00  0.00    -0.377 A  
HETATM   25  C   UNL     1      -9.815  20.322  66.144  1.00  0.00    -0.440 A  
HETATM   26  C   UNL     1      -9.781  20.820  67.442  1.00  0.00    -0.473 A  
HETATM   27  C   UNL     1     -10.028  19.964  68.516  1.00  0.00    -0.507 A  
HETATM   28  C   UNL     1     -10.081  18.968  65.922  1.00  0.00    -0.287 A  
HETATM   29  C   UNL     1     -10.297  18.606  68.293  1.00  0.00    -0.388 A  
ENDBRANCH  20  24
ENDBRANCH  16  18
ENDBRANCH  13  16
BRANCH  15  30
HETATM   30  C   UNL     1      -7.735  11.429  68.056  1.00  0.00    -0.114 C  
HETATM   31  H2  UNL     1      -8.949  10.053  69.068  1.00  0.00     0.000 HD 
HETATM   32  N   UNL     1      -8.000  10.423  69.120  1.00  0.00    -0.130 NA 
HETATM   33  H1  UNL     1      -7.299   9.683  69.082  1.00  0.00     0.000 HD 
BRANCH  30  34
HETATM   34  C   UNL     1      -7.659  10.633  66.734  1.00  0.00    -0.120 C  
BRANCH  34  35
HETATM   35  C   UNL     1      -7.435   9.134  66.783  1.00  0.00    -0.087 A  
HETATM   36  C   UNL     1      -5.204   9.508  68.023  1.00  0.00    -0.036 C  
HETATM   37  C   UNL     1      -8.064   6.836  66.232  1.00  0.00    -0.112 A  
HETATM   38  C   UNL     1      -9.474   8.609  65.265  1.00  0.00     0.195 C  
HETATM   39  C   UNL     1      -6.270   8.625  67.418  1.00  0.00    -0.056 A  
HETATM   40  C   UNL     1      -8.299   8.222  66.126  1.00  0.00    -0.125 A  
HETATM   41  C   UNL     1      -6.967   6.339  66.929  1.00  0.00    -0.071 A  
HETATM   42  C   UNL     1      -6.066   7.239  67.501  1.00  0.00    -0.042 A  
BRANCH  41  43
HETATM   43  C   UNL     1      -6.671   4.885  67.067  1.00  0.00    -0.055 C  
HETATM   44  H2  UNL     1      -7.347   4.414  65.158  1.00  0.00     0.000 HD 
HETATM   45  H1  UNL     1      -6.742   3.053  66.116  1.00  0.00     0.000 HD 
HETATM   46  N   UNL     1      -6.945   4.048  66.021  1.00  0.00    -0.064 N  
HETATM   47  O   UNL     1      -6.189   4.423  68.096  1.00  0.00    -0.033 OA 
ENDBRANCH  41  43
ENDBRANCH  34  35
ENDBRANCH  30  34
ENDBRANCH  15  30
ENDBRANCH  12  13
ENDBRANCH   6  12
ENDBRANCH   2   3
TORSDOF 10
ENDMDL
MODEL      185
REMARK 921   NORMALIZED FREE ENERGY PREDICTED BY IDOCK:   -3.60 KCAL/MOL
REMARK 922        TOTAL FREE ENERGY PREDICTED BY IDOCK:   -8.57 KCAL/MOL
REMARK 923 INTER-LIGAND FREE ENERGY PREDICTED BY IDOCK:   -7.27 KCAL/MOL
REMARK 924 INTRA-LIGAND FREE ENERGY PREDICTED BY IDOCK:   -1.30 KCAL/MOL
REMARK 927      BINDING AFFINITY PREDICTED BY RF-SCORE:    0.00 PKD
ROOT
HETATM    1  C   UNL     1      -6.181   9.415  69.276  1.00  0.00    -0.041 C  
HETATM    2  O   UNL     1      -5.802  10.118  68.092  1.00  0.00    -0.042 OA 
ENDROOT
BRANCH   2   3
HETATM    3  C   UNL     1      -6.787  10.820  67.443  1.00  0.00    -0.078 A  
HETATM    4  C   UNL     1      -7.481  11.891  68.013  1.00  0.00    -0.107 A  
HETATM    5  C   UNL     1      -8.403  12.628  67.263  1.00  0.00    -0.189 A  
HETATM    6  C   UNL     1      -8.688  12.296  65.935  1.00  0.00     0.339 A  
HETATM    7  C   UNL     1      -8.037  11.183  65.381  1.00  0.00     0.206 A  
HETATM    8  C   UNL     1      -6.450   9.300  65.420  1.00  0.00    -0.069 C  
HETATM    9  O   UNL     1      -5.188   9.028  65.809  1.00  0.00    -0.038 OA 
HETATM   10  C   UNL     1      -7.084  10.453  66.119  1.00  0.00    -0.130 A  
HETATM   11  O   UNL     1      -7.010   8.697  64.517  1.00  0.00    -0.079 OA 
BRANCH   6  12
HETATM   12  C   UNL     1      -9.635  13.118  65.084  1.00  0.00     0.205 C  
BRANCH  12  13
HETATM   13  N   UNL     1     -10.937  13.441  65.697  1.00  0.00    -0.280 N  
HETATM   14  O   UNL     1     -12.180  14.619  67.254  1.00  0.00    -0.294 OA 
HETATM   15  C   UNL     1     -11.111  14.477  66.646  1.00  0.00    -0.333 C  
BRANCH  13  16
HETATM   16  C   UNL     1     -12.025  12.438  65.556  1.00  0.00    -0.391 C  
HETATM   17  C   UNL     1     -12.430  12.149  64.099  1.00  0.00    -0.497 C  
BRANCH  16  18
HETATM   18  C   UNL     1     -11.646  11.120  66.199  1.00  0.00     0.528 A  
HETATM   19  C   UNL     1     -10.504   9.228  66.438  1.00  0.00    -0.087 A  
HETATM   20  C   UNL     1     -10.953   9.682  67.660  1.00  0.00    -0.124 A  
HETATM   21  N   UNL     1     -11.697  10.827  67.486  1.00  0.00    -0.564 NA 
HETATM   22  H   UNL     1     -12.191  11.348  68.210  1.00  0.00     0.000 HD 
HETATM   23  N   UNL     1     -10.978  10.130  65.517  1.00  0.00     0.497 NA 
BRANCH  20  24
HETATM   24  C   UNL     1     -10.634   9.149  68.978  1.00  0.00    -0.219 A  
HETATM   25  C   UNL     1      -9.799   9.555  71.236  1.00  0.00    -0.095 A  
HETATM   26  C   UNL     1      -9.853   8.193  71.515  1.00  0.00    -0.233 A  
HETATM   27  C   UNL     1     -10.311   7.307  70.539  1.00  0.00    -0.215 A  
HETATM   28  C   UNL     1     -10.188  10.027  69.979  1.00  0.00    -0.306 A  
HETATM   29  C   UNL     1     -10.704   7.781  69.279  1.00  0.00    -0.156 A  
ENDBRANCH  20  24
ENDBRANCH  16  18
ENDBRANCH  13  16
BRANCH  15  30
HETATM   30  C   UNL     1      -9.912  15.470  66.880  1.00  0.00    -0.247 C  
HETATM   31  H2  UNL     1     -10.687  16.914  65.574  1.00  0.00     0.000 HD 
HETATM   32  N   UNL     1      -9.810  16.422  65.740  1.00  0.00    -0.492 NA 
HETATM   33  H1  UNL     1      -9.033  17.065  65.893  1.00  0.00     0.000 HD 
BRANCH  30  34
HETATM   34  C   UNL     1      -9.994  16.344  68.152  1.00  0.00    -0.242 C  
BRANCH  34  35
HETATM   35  C   UNL     1      -8.917  17.381  68.409  1.00  0.00    -0.277 A  
HETATM   36  C   UNL     1     -10.434  19.206  67.397  1.00  0.00    -0.552 C  
HETATM   37  C   UNL     1      -6.681  18.036  69.149  1.00  0.00    -0.249 A  
HETATM   38  C   UNL     1      -7.160  15.619  69.148  1.00  0.00    -0.168 C  
HETATM   39  C   UNL     1      -9.160  18.736  68.058  1.00  0.00    -0.328 A  
HETATM   40  C   UNL     1      -7.633  17.028  68.895  1.00  0.00    -0.233 A  
HETATM   41  C   UNL     1      -6.954  19.374  68.884  1.00  0.00    -0.384 A  
HETATM   42  C   UNL     1      -8.186  19.712  68.321  1.00  0.00    -0.357 A  
BRANCH  41  43
HETATM   43  C   UNL     1      -5.982  20.475  69.129  1.00  0.00    -0.347 C  
HETATM   44  H2  UNL     1      -5.900  20.149  71.182  1.00  0.00     0.000 HD 
HETATM   45  H1  UNL     1      -4.890  21.471  70.574  1.00  0.00     0.000 HD 
HETATM   46  N   UNL     1      -5.556  20.717  70.406  1.00  0.00    -0.291 N  
HETATM   47  O   UNL     1      -5.555  21.171  68.213  1.00  0.00    -0.312 OA 
ENDBRANCH  41  43
ENDBRANCH  34  35
ENDBRANCH  30  34
ENDBRANCH  15  30
ENDBRANCH  12  13
ENDBRANCH   6  12
ENDBRANCH   2   3
TORSDOF 10
ENDMDL
MODEL      186
REMARK 921   NORMALIZED FREE ENERGY PREDICTED BY IDOCK:   -3.58 KCAL/MOL
REMARK 922        TOTAL FREE ENERGY PREDICTED BY IDOCK:   -8.54 KCAL/MOL
REMARK 923 INTER-LIGAND FREE ENERGY PREDICTED BY IDOCK:   -7.63 KCAL/MOL
REMARK 924 INTRA-LIGAND FREE ENERGY PREDICTED BY IDOCK:   -0.91 KCAL/MOL
REMARK 927      BINDING AFFINITY PREDICTED BY RF-SCORE:    0.00 PKD
ROOT
HETATM    1  C   UNL     1      -6.722  16.979  66.253  1.00  0.00    -0.105 C  
HETATM    2  O   UNL     1      -7.004  16.611  67.604  1.00  0.00    -0.125 OA 
ENDROOT
BRANCH   2   3
HETATM    3  C   UNL     1      -8.060  15.758  67.808  1.00  0.00    -0.144 A  
HETATM    4  C   UNL     1      -7.947  14.365  67.800  1.00  0.00    -0.166 A  
HETATM    5  C   UNL     1      -9.043  13.556  68.114  1.00  0.00    -0.199 A  
HETATM    6  C   UNL     1     -10.292  14.109  68.409  1.00  0.00    -0.249 A  
HETATM    7  C   UNL     1     -10.422  15.505  68.358  1.00  0.00    -0.240 A  
HETATM    8  C   UNL     1      -9.575  17.798  68.059  1.00  0.00    -0.291 C  
HETATM    9  O   UNL     1      -8.523  18.560  68.421  1.00  0.00    -0.312 OA 
HETATM   10  C   UNL     1      -9.317  16.331  68.072  1.00  0.00    -0.214 A  
HETATM   11  O   UNL     1     -10.676  18.265  67.807  1.00  0.00    -0.411 OA 
BRANCH   6  12
HETATM   12  C   UNL     1     -11.477  13.254  68.814  1.00  0.00    -0.306 C  
BRANCH  12  13
HETATM   13  N   UNL     1     -11.678  12.020  68.033  1.00  0.00    -0.340 N  
HETATM   14  O   UNL     1     -11.264   9.766  67.710  1.00  0.00    -0.184 OA 
HETATM   15  C   UNL     1     -11.217  10.751  68.458  1.00  0.00    -0.279 C  
BRANCH  13  16
HETATM   16  C   UNL     1     -12.088  12.170  66.612  1.00  0.00     0.104 C  
HETATM   17  C   UNL     1     -12.629  13.567  66.258  1.00  0.00    -0.298 C  
BRANCH  16  18
HETATM   18  C   UNL     1     -10.938  11.868  65.673  1.00  0.00    -0.304 A  
HETATM   19  C   UNL     1      -9.079  12.295  64.533  1.00  0.00     0.796 A  
HETATM   20  C   UNL     1      -9.161  10.955  64.844  1.00  0.00    -0.204 A  
HETATM   21  N   UNL     1     -10.341  10.703  65.506  1.00  0.00    -0.254 NA 
HETATM   22  H   UNL     1     -10.686   9.793  65.810  1.00  0.00     0.000 HD 
HETATM   23  N   UNL     1     -10.227  12.858  65.036  1.00  0.00    -0.288 NA 
BRANCH  20  24
HETATM   24  C   UNL     1      -8.147   9.930  64.634  1.00  0.00    -0.152 A  
HETATM   25  C   UNL     1      -5.780   9.344  64.516  1.00  0.00    -0.070 A  
HETATM   26  C   UNL     1      -6.106   8.055  64.108  1.00  0.00    -0.057 A  
HETATM   27  C   UNL     1      -7.447   7.691  63.977  1.00  0.00    -0.107 A  
HETATM   28  C   UNL     1      -6.792  10.271  64.778  1.00  0.00    -0.087 A  
HETATM   29  C   UNL     1      -8.463   8.620  64.244  1.00  0.00    -0.101 A  
ENDBRANCH  20  24
ENDBRANCH  16  18
ENDBRANCH  13  16
BRANCH  15  30
HETATM   30  C   UNL     1     -10.672  10.620  69.930  1.00  0.00    -0.204 C  
HETATM   31  H2  UNL     1     -12.429   9.721  70.636  1.00  0.00     0.000 HD 
HETATM   32  N   UNL     1     -11.808  10.491  70.883  1.00  0.00    -0.351 NA 
HETATM   33  H1  UNL     1     -11.455  10.406  71.836  1.00  0.00     0.000 HD 
BRANCH  30  34
HETATM   34  C   UNL     1      -9.751   9.410  70.207  1.00  0.00    -0.292 C  
BRANCH  34  35
HETATM   35  C   UNL     1      -9.780   8.225  69.261  1.00  0.00    -0.177 A  
HETATM   36  C   UNL     1     -11.741   7.209  70.594  1.00  0.00    -0.348 C  
HETATM   37  C   UNL     1      -8.901   6.946  67.372  1.00  0.00    -0.118 A  
HETATM   38  C   UNL     1      -7.617   8.946  68.021  1.00  0.00    -0.093 C  
HETATM   39  C   UNL     1     -10.748   7.203  69.457  1.00  0.00    -0.255 A  
HETATM   40  C   UNL     1      -8.807   8.048  68.246  1.00  0.00    -0.133 A  
HETATM   41  C   UNL     1      -9.903   5.992  67.514  1.00  0.00    -0.138 A  
HETATM   42  C   UNL     1     -10.808   6.118  68.569  1.00  0.00    -0.389 A  
BRANCH  41  43
HETATM   43  C   UNL     1     -10.043   4.808  66.622  1.00  0.00    -0.245 C  
HETATM   44  H2  UNL     1     -11.633   5.614  65.551  1.00  0.00     0.000 HD 
HETATM   45  H1  UNL     1     -11.109   3.999  65.047  1.00  0.00     0.000 HD 
HETATM   46  N   UNL     1     -11.013   4.811  65.658  1.00  0.00    -0.134 N  
HETATM   47  O   UNL     1      -9.310   3.830  66.732  1.00  0.00    -0.166 OA 
ENDBRANCH  41  43
ENDBRANCH  34  35
ENDBRANCH  30  34
ENDBRANCH  15  30
ENDBRANCH  12  13
ENDBRANCH   6  12
ENDBRANCH   2   3
TORSDOF 10
ENDMDL
MODEL      187
REMARK 921   NORMALIZED FREE ENERGY PREDICTED BY IDOCK:   -3.56 KCAL/MOL
REMARK 922        TOTAL FREE ENERGY PREDICTED BY IDOCK:   -8.51 KCAL/MOL
REMARK 923 INTER-LIGAND FREE ENERGY PREDICTED BY IDOCK:   -6.79 KCAL/MOL
REMARK 924 INTRA-LIGAND FREE ENERGY PREDICTED BY IDOCK:   -1.72 KCAL/MOL
REMARK 927      BINDING AFFINITY PREDICTED BY RF-SCORE:    0.00 PKD
ROOT
HETATM    1  C   UNL     1      -9.152  16.868  68.748  1.00  0.00    -0.254 C  
HETATM    2  O   UNL     1      -8.792  16.330  67.475  1.00  0.00    -0.184 OA 
ENDROOT
BRANCH   2   3
HETATM    3  C   UNL     1      -8.677  14.965  67.386  1.00  0.00    -0.194 A  
HETATM    4  C   UNL     1      -9.739  14.116  67.064  1.00  0.00    -0.258 A  
HETATM    5  C   UNL     1      -9.533  12.744  66.892  1.00  0.00    -0.235 A  
HETATM    6  C   UNL     1      -8.270  12.172  67.072  1.00  0.00    -0.164 A  
HETATM    7  C   UNL     1      -7.215  13.016  67.456  1.00  0.00    -0.154 A  
HETATM    8  C   UNL     1      -6.209  15.197  67.999  1.00  0.00    -0.147 C  
HETATM    9  O   UNL     1      -6.193  16.463  67.538  1.00  0.00    -0.130 OA 
HETATM   10  C   UNL     1      -7.406  14.403  67.601  1.00  0.00    -0.197 A  
HETATM   11  O   UNL     1      -5.286  14.710  68.633  1.00  0.00    -0.086 OA 
BRANCH   6  12
HETATM   12  C   UNL     1      -8.009  10.698  66.830  1.00  0.00    -0.132 C  
BRANCH  12  13
HETATM   13  N   UNL     1      -9.204   9.839  66.739  1.00  0.00    -0.146 N  
HETATM   14  O   UNL     1     -10.739   8.433  67.750  1.00  0.00    -0.196 OA 
HETATM   15  C   UNL     1      -9.837   9.271  67.871  1.00  0.00    -0.167 C  
BRANCH  13  16
HETATM   16  C   UNL     1      -9.553   9.294  65.402  1.00  0.00    -0.167 C  
HETATM   17  C   UNL     1      -9.721  10.366  64.309  1.00  0.00    -0.389 C  
BRANCH  16  18
HETATM   18  C   UNL     1      -8.511   8.304  64.921  1.00  0.00    -0.096 A  
HETATM   19  C   UNL     1      -6.477   7.602  64.370  1.00  0.00    -0.048 A  
HETATM   20  C   UNL     1      -7.245   6.553  64.827  1.00  0.00    -0.067 A  
HETATM   21  N   UNL     1      -8.514   6.999  65.117  1.00  0.00    -0.314 NA 
HETATM   22  H   UNL     1      -9.303   6.431  65.425  1.00  0.00     0.000 HD 
HETATM   23  N   UNL     1      -7.301   8.700  64.403  1.00  0.00    -0.100 NA 
BRANCH  20  24
HETATM   24  C   UNL     1      -6.815   5.186  65.093  1.00  0.00    -0.049 A  
HETATM   25  C   UNL     1      -6.185   3.490  66.732  1.00  0.00    -0.028 A  
HETATM   26  C   UNL     1      -5.849   2.609  65.709  1.00  0.00    -0.018 A  
HETATM   27  C   UNL     1      -6.009   3.002  64.379  1.00  0.00    -0.014 A  
HETATM   28  C   UNL     1      -6.666   4.766  66.425  1.00  0.00    -0.054 A  
HETATM   29  C   UNL     1      -6.494   4.281  64.072  1.00  0.00    -0.041 A  
ENDBRANCH  20  24
ENDBRANCH  16  18
ENDBRANCH  13  16
BRANCH  15  30
HETATM   30  C   UNL     1      -9.381   9.766  69.295  1.00  0.00    -0.191 C  
HETATM   31  H2  UNL     1     -11.159  10.822  69.636  1.00  0.00     0.000 HD 
HETATM   32  N   UNL     1     -10.153  10.978  69.683  1.00  0.00    -0.429 NA 
HETATM   33  H1  UNL     1      -9.858  11.298  70.605  1.00  0.00     0.000 HD 
BRANCH  30  34
HETATM   34  C   UNL     1      -9.568   8.760  70.454  1.00  0.00    -0.210 C  
BRANCH  34  35
HETATM   35  C   UNL     1      -9.372   7.280  70.188  1.00  0.00    -0.155 A  
HETATM   36  C   UNL     1     -11.841   6.844  70.792  1.00  0.00    -0.427 C  
HETATM   37  C   UNL     1      -7.977   5.353  69.622  1.00  0.00    -0.095 A  
HETATM   38  C   UNL     1      -6.804   7.505  69.873  1.00  0.00    -0.047 C  
HETATM   39  C   UNL     1     -10.472   6.395  70.339  1.00  0.00    -0.269 A  
HETATM   40  C   UNL     1      -8.098   6.730  69.894  1.00  0.00    -0.126 A  
HETATM   41  C   UNL     1      -9.077   4.502  69.686  1.00  0.00    -0.166 A  
HETATM   42  C   UNL     1     -10.314   5.028  70.064  1.00  0.00    -0.303 A  
BRANCH  41  43
HETATM   43  C   UNL     1      -9.002   3.040  69.413  1.00  0.00    -0.113 C  
HETATM   44  H2  UNL     1      -8.521   2.547  71.376  1.00  0.00     0.000 HD 
HETATM   45  H1  UNL     1      -8.645   1.185  70.250  1.00  0.00     0.000 HD 
HETATM   46  N   UNL     1      -8.696   2.186  70.437  1.00  0.00    -0.058 N  
HETATM   47  O   UNL     1      -9.207   2.584  68.293  1.00  0.00    -0.165 OA 
ENDBRANCH  41  43
ENDBRANCH  34  35
ENDBRANCH  30  34
ENDBRANCH  15  30
ENDBRANCH  12  13
ENDBRANCH   6  12
ENDBRANCH   2   3
TORSDOF 10
ENDMDL
MODEL      188
REMARK 921   NORMALIZED FREE ENERGY PREDICTED BY IDOCK:   -3.55 KCAL/MOL
REMARK 922        TOTAL FREE ENERGY PREDICTED BY IDOCK:   -8.50 KCAL/MOL
REMARK 923 INTER-LIGAND FREE ENERGY PREDICTED BY IDOCK:   -8.62 KCAL/MOL
REMARK 924 INTRA-LIGAND FREE ENERGY PREDICTED BY IDOCK:    0.11 KCAL/MOL
REMARK 927      BINDING AFFINITY PREDICTED BY RF-SCORE:    0.00 PKD
ROOT
HETATM    1  C   UNL     1      -6.402  20.939  65.456  1.00  0.00    -0.199 C  
HETATM    2  O   UNL     1      -7.472  19.995  65.516  1.00  0.00    -0.323 OA 
ENDROOT
BRANCH   2   3
HETATM    3  C   UNL     1      -7.147  18.707  65.863  1.00  0.00    -0.255 A  
HETATM    4  C   UNL     1      -5.841  18.275  66.108  1.00  0.00    -0.216 A  
HETATM    5  C   UNL     1      -5.590  16.974  66.555  1.00  0.00    -0.133 A  
HETATM    6  C   UNL     1      -6.628  16.055  66.734  1.00  0.00     0.187 A  
HETATM    7  C   UNL     1      -7.933  16.470  66.429  1.00  0.00    -0.352 A  
HETATM    8  C   UNL     1      -9.627  18.114  65.726  1.00  0.00     0.292 C  
HETATM    9  O   UNL     1      -9.968  19.398  65.953  1.00  0.00    -0.410 OA 
HETATM   10  C   UNL     1      -8.201  17.787  66.008  1.00  0.00    -0.109 A  
HETATM   11  O   UNL     1     -10.435  17.264  65.384  1.00  0.00    -0.635 OA 
BRANCH   6  12
HETATM   12  C   UNL     1      -6.385  14.660  67.277  1.00  0.00     0.353 C  
BRANCH  12  13
HETATM   13  N   UNL     1      -7.348  14.186  68.288  1.00  0.00    -0.108 N  
HETATM   14  O   UNL     1      -9.336  13.126  68.817  1.00  0.00    -0.041 OA 
HETATM   15  C   UNL     1      -8.465  13.375  67.974  1.00  0.00    -0.173 C  
BRANCH  13  16
HETATM   16  C   UNL     1      -7.324  14.850  69.618  1.00  0.00    -0.153 C  
HETATM   17  C   UNL     1      -6.150  15.827  69.812  1.00  0.00    -0.165 C  
BRANCH  16  18
HETATM   18  C   UNL     1      -8.607  15.612  69.877  1.00  0.00     0.238 A  
HETATM   19  C   UNL     1     -10.349  16.892  69.365  1.00  0.00    -0.250 A  
HETATM   20  C   UNL     1     -10.663  16.036  70.399  1.00  0.00    -0.209 A  
HETATM   21  N   UNL     1      -9.558  15.286  70.733  1.00  0.00     0.327 NA 
HETATM   22  H   UNL     1      -9.488  14.610  71.493  1.00  0.00     0.000 HD 
HETATM   23  N   UNL     1      -9.034  16.636  69.065  1.00  0.00    -0.240 NA 
BRANCH  20  24
HETATM   24  C   UNL     1     -11.967  15.824  71.014  1.00  0.00    -0.462 A  
HETATM   25  C   UNL     1     -13.365  15.943  73.011  1.00  0.00    -0.663 A  
HETATM   26  C   UNL     1     -14.409  15.320  72.334  1.00  0.00    -0.475 A  
HETATM   27  C   UNL     1     -14.246  14.963  70.995  1.00  0.00    -0.211 A  
HETATM   28  C   UNL     1     -12.157  16.194  72.355  1.00  0.00    -0.630 A  
HETATM   29  C   UNL     1     -13.034  15.217  70.336  1.00  0.00    -0.307 A  
ENDBRANCH  20  24
ENDBRANCH  16  18
ENDBRANCH  13  16
BRANCH  15  30
HETATM   30  C   UNL     1      -8.550  12.768  66.523  1.00  0.00     0.090 C  
HETATM   31  H2  UNL     1      -7.532  11.016  67.060  1.00  0.00     0.000 HD 
HETATM   32  N   UNL     1      -7.491  11.738  66.341  1.00  0.00    -0.373 NA 
HETATM   33  H1  UNL     1      -7.546  11.345  65.401  1.00  0.00     0.000 HD 
BRANCH  30  34
HETATM   34  C   UNL     1      -9.880  12.074  66.155  1.00  0.00    -0.255 C  
BRANCH  34  35
HETATM   35  C   UNL     1     -10.073  10.610  66.504  1.00  0.00    -0.275 A  
HETATM   36  C   UNL     1      -9.274   9.943  64.144  1.00  0.00    -0.312 C  
HETATM   37  C   UNL     1     -10.779   8.825  68.017  1.00  0.00    -0.151 A  
HETATM   38  C   UNL     1     -11.201  11.127  68.784  1.00  0.00    -0.314 C  
HETATM   39  C   UNL     1      -9.760   9.618  65.536  1.00  0.00    -0.372 A  
HETATM   40  C   UNL     1     -10.654  10.199  67.730  1.00  0.00    -0.304 A  
HETATM   41  C   UNL     1     -10.390   7.854  67.100  1.00  0.00    -0.398 A  
HETATM   42  C   UNL     1      -9.901   8.259  65.856  1.00  0.00     0.120 A  
BRANCH  41  43
HETATM   43  C   UNL     1     -10.506   6.390  67.352  1.00  0.00    -0.252 C  
HETATM   44  H2  UNL     1     -10.925   6.621  69.376  1.00  0.00     0.000 HD 
HETATM   45  H1  UNL     1     -10.871   4.951  68.789  1.00  0.00     0.000 HD 
HETATM   46  N   UNL     1     -10.792   5.953  68.616  1.00  0.00    -0.278 N  
HETATM   47  O   UNL     1     -10.350   5.569  66.454  1.00  0.00    -0.220 OA 
ENDBRANCH  41  43
ENDBRANCH  34  35
ENDBRANCH  30  34
ENDBRANCH  15  30
ENDBRANCH  12  13
ENDBRANCH   6  12
ENDBRANCH   2   3
TORSDOF 10
ENDMDL
MODEL      189
REMARK 921   NORMALIZED FREE ENERGY PREDICTED BY IDOCK:   -3.52 KCAL/MOL
REMARK 922        TOTAL FREE ENERGY PREDICTED BY IDOCK:   -8.45 KCAL/MOL
REMARK 923 INTER-LIGAND FREE ENERGY PREDICTED BY IDOCK:   -6.01 KCAL/MOL
REMARK 924 INTRA-LIGAND FREE ENERGY PREDICTED BY IDOCK:   -2.44 KCAL/MOL
REMARK 927      BINDING AFFINITY PREDICTED BY RF-SCORE:    0.00 PKD
ROOT
HETATM    1  C   UNL     1      -7.967  13.732  69.157  1.00  0.00     0.247 C  
HETATM    2  O   UNL     1      -9.034  12.791  69.033  1.00  0.00     0.258 OA 
ENDROOT
BRANCH   2   3
HETATM    3  C   UNL     1      -8.694  11.461  69.033  1.00  0.00     0.091 A  
HETATM    4  C   UNL     1      -7.460  10.975  69.473  1.00  0.00    -0.031 A  
HETATM    5  C   UNL     1      -7.215   9.599  69.540  1.00  0.00    -0.080 A  
HETATM    6  C   UNL     1      -8.179   8.670  69.137  1.00  0.00    -0.117 A  
HETATM    7  C   UNL     1      -9.396   9.160  68.637  1.00  0.00    -0.135 A  
HETATM    8  C   UNL     1     -10.995  10.940  68.056  1.00  0.00    -0.265 C  
HETATM    9  O   UNL     1     -11.495  12.080  68.573  1.00  0.00    -0.244 OA 
HETATM   10  C   UNL     1      -9.664  10.542  68.594  1.00  0.00    -0.175 A  
HETATM   11  O   UNL     1     -11.611  10.246  67.262  1.00  0.00    -0.142 OA 
BRANCH   6  12
HETATM   12  C   UNL     1      -7.959   7.175  69.260  1.00  0.00    -0.119 C  
BRANCH  12  13
HETATM   13  N   UNL     1      -8.087   6.400  68.013  1.00  0.00    -0.115 N  
HETATM   14  O   UNL     1      -7.773   6.220  65.727  1.00  0.00    -0.085 OA 
HETATM   15  C   UNL     1      -7.516   6.810  66.784  1.00  0.00    -0.082 C  
BRANCH  13  16
HETATM   16  C   UNL     1      -9.117   5.330  67.977  1.00  0.00    -0.110 C  
HETATM   17  C   UNL     1      -8.551   3.906  68.124  1.00  0.00    -0.113 C  
BRANCH  16  18
HETATM   18  C   UNL     1     -10.156   5.528  69.062  1.00  0.00    -0.205 A  
HETATM   19  C   UNL     1     -11.012   5.383  71.107  1.00  0.00    -0.056 A  
HETATM   20  C   UNL     1     -11.498   6.496  70.456  1.00  0.00    -0.387 A  
HETATM   21  N   UNL     1     -10.994   6.541  69.175  1.00  0.00    -0.330 NA 
HETATM   22  H   UNL     1     -11.224   7.226  68.455  1.00  0.00     0.000 HD 
HETATM   23  N   UNL     1     -10.188   4.760  70.202  1.00  0.00    -0.236 NA 
BRANCH  20  24
HETATM   24  C   UNL     1     -12.327   7.559  71.008  1.00  0.00    -0.265 A  
HETATM   25  C   UNL     1     -12.500   9.868  71.782  1.00  0.00    -0.487 A  
HETATM   26  C   UNL     1     -13.806   9.641  72.206  1.00  0.00    -0.301 A  
HETATM   27  C   UNL     1     -14.384   8.385  72.020  1.00  0.00    -0.555 A  
HETATM   28  C   UNL     1     -11.770   8.836  71.188  1.00  0.00    -0.344 A  
HETATM   29  C   UNL     1     -13.651   7.350  71.420  1.00  0.00    -0.410 A  
ENDBRANCH  20  24
ENDBRANCH  16  18
ENDBRANCH  13  16
BRANCH  15  30
HETATM   30  C   UNL     1      -6.513   8.024  66.806  1.00  0.00    -0.056 C  
HETATM   31  H2  UNL     1      -4.850   6.820  66.383  1.00  0.00     0.000 HD 
HETATM   32  N   UNL     1      -5.129   7.535  67.055  1.00  0.00    -0.018 NA 
HETATM   33  H1  UNL     1      -4.480   8.321  67.069  1.00  0.00     0.000 HD 
BRANCH  30  34
HETATM   34  C   UNL     1      -6.436   8.864  65.512  1.00  0.00    -0.067 C  
BRANCH  34  35
HETATM   35  C   UNL     1      -7.532   9.871  65.216  1.00  0.00    -0.131 A  
HETATM   36  C   UNL     1      -8.603   8.216  63.552  1.00  0.00     0.226 C  
HETATM   37  C   UNL     1      -8.572  12.069  65.470  1.00  0.00     0.597 A  
HETATM   38  C   UNL     1      -6.404  11.758  66.597  1.00  0.00    -0.012 C  
HETATM   39  C   UNL     1      -8.559   9.530  64.295  1.00  0.00    -0.215 A  
HETATM   40  C   UNL     1      -7.511  11.184  65.750  1.00  0.00     0.165 A  
HETATM   41  C   UNL     1      -9.622  11.700  64.635  1.00  0.00    -0.149 A  
HETATM   42  C   UNL     1      -9.597  10.438  64.038  1.00  0.00    -0.376 A  
BRANCH  41  43
HETATM   43  C   UNL     1     -10.764  12.598  64.304  1.00  0.00    -0.382 C  
HETATM   44  H2  UNL     1     -10.211  14.056  65.680  1.00  0.00     0.000 HD 
HETATM   45  H1  UNL     1     -11.671  14.402  64.740  1.00  0.00     0.000 HD 
HETATM   46  N   UNL     1     -10.890  13.787  64.967  1.00  0.00    -0.348 N  
HETATM   47  O   UNL     1     -11.593  12.295  63.451  1.00  0.00    -0.450 OA 
ENDBRANCH  41  43
ENDBRANCH  34  35
ENDBRANCH  30  34
ENDBRANCH  15  30
ENDBRANCH  12  13
ENDBRANCH   6  12
ENDBRANCH   2   3
TORSDOF 10
ENDMDL
MODEL      190
REMARK 921   NORMALIZED FREE ENERGY PREDICTED BY IDOCK:   -3.49 KCAL/MOL
REMARK 922        TOTAL FREE ENERGY PREDICTED BY IDOCK:   -8.40 KCAL/MOL
REMARK 923 INTER-LIGAND FREE ENERGY PREDICTED BY IDOCK:   -7.79 KCAL/MOL
REMARK 924 INTRA-LIGAND FREE ENERGY PREDICTED BY IDOCK:   -0.61 KCAL/MOL
REMARK 927      BINDING AFFINITY PREDICTED BY RF-SCORE:    0.00 PKD
ROOT
HETATM    1  C   UNL     1      -6.700  16.986  66.250  1.00  0.00    -0.105 C  
HETATM    2  O   UNL     1      -6.911  16.532  67.588  1.00  0.00    -0.120 OA 
ENDROOT
BRANCH   2   3
HETATM    3  C   UNL     1      -7.942  15.648  67.789  1.00  0.00    -0.144 A  
HETATM    4  C   UNL     1      -7.823  14.265  67.625  1.00  0.00    -0.191 A  
HETATM    5  C   UNL     1      -8.884  13.412  67.943  1.00  0.00    -0.194 A  
HETATM    6  C   UNL     1     -10.107  13.913  68.399  1.00  0.00    -0.237 A  
HETATM    7  C   UNL     1     -10.247  15.306  68.506  1.00  0.00    -0.224 A  
HETATM    8  C   UNL     1      -9.440  17.629  68.380  1.00  0.00    -0.298 C  
HETATM    9  O   UNL     1      -8.365  18.364  68.731  1.00  0.00    -0.304 OA 
HETATM   10  C   UNL     1      -9.174  16.172  68.217  1.00  0.00    -0.197 A  
HETATM   11  O   UNL     1     -10.560  18.104  68.273  1.00  0.00    -0.343 OA 
BRANCH   6  12
HETATM   12  C   UNL     1     -11.249  13.005  68.810  1.00  0.00    -0.282 C  
BRANCH  12  13
HETATM   13  N   UNL     1     -11.561  11.903  67.882  1.00  0.00    -0.322 N  
HETATM   14  O   UNL     1     -11.239   9.720  67.186  1.00  0.00    -0.034 OA 
HETATM   15  C   UNL     1     -11.089  10.581  68.062  1.00  0.00    -0.300 C  
BRANCH  13  16
HETATM   16  C   UNL     1     -12.116  12.268  66.552  1.00  0.00    -0.015 C  
HETATM   17  C   UNL     1     -12.600  13.726  66.450  1.00  0.00    -0.309 C  
BRANCH  16  18
HETATM   18  C   UNL     1     -11.101  12.040  65.451  1.00  0.00    -0.320 A  
HETATM   19  C   UNL     1      -9.412  12.559  64.104  1.00  0.00     0.400 A  
HETATM   20  C   UNL     1      -9.448  11.201  64.335  1.00  0.00    -0.220 A  
HETATM   21  N   UNL     1     -10.529  10.894  65.131  1.00  0.00    -0.272 NA 
HETATM   22  H   UNL     1     -10.829   9.962  65.418  1.00  0.00     0.000 HD 
HETATM   23  N   UNL     1     -10.483  13.076  64.791  1.00  0.00    -0.346 NA 
BRANCH  20  24
HETATM   24  C   UNL     1      -8.469  10.202  63.927  1.00  0.00    -0.181 A  
HETATM   25  C   UNL     1      -7.757   7.867  63.933  1.00  0.00    -0.138 A  
HETATM   26  C   UNL     1      -6.564   8.216  63.309  1.00  0.00    -0.080 A  
HETATM   27  C   UNL     1      -6.324   9.549  62.975  1.00  0.00    -0.101 A  
HETATM   28  C   UNL     1      -8.701   8.852  64.237  1.00  0.00    -0.095 A  
HETATM   29  C   UNL     1      -7.272  10.537  63.277  1.00  0.00     0.028 A  
ENDBRANCH  20  24
ENDBRANCH  16  18
ENDBRANCH  13  16
BRANCH  15  30
HETATM   30  C   UNL     1     -10.393  10.227  69.430  1.00  0.00    -0.235 C  
HETATM   31  H2  UNL     1     -12.076   9.220  70.169  1.00  0.00     0.000 HD 
HETATM   32  N   UNL     1     -11.424   9.945  70.466  1.00  0.00    -0.295 NA 
HETATM   33  H1  UNL     1     -10.974   9.716  71.352  1.00  0.00     0.000 HD 
BRANCH  30  34
HETATM   34  C   UNL     1      -9.462   8.995  69.418  1.00  0.00    -0.159 C  
BRANCH  34  35
HETATM   35  C   UNL     1      -9.801   7.801  70.290  1.00  0.00    -0.184 A  
HETATM   36  C   UNL     1      -8.254   8.714  72.141  1.00  0.00    -0.129 C  
HETATM   37  C   UNL     1     -10.905   5.655  70.681  1.00  0.00    -0.304 A  
HETATM   38  C   UNL     1     -11.127   6.592  68.413  1.00  0.00    -0.281 C  
HETATM   39  C   UNL     1      -9.227   7.702  71.586  1.00  0.00    -0.159 A  
HETATM   40  C   UNL     1     -10.592   6.724  69.817  1.00  0.00    -0.263 A  
HETATM   41  C   UNL     1     -10.411   5.604  71.980  1.00  0.00    -0.270 A  
HETATM   42  C   UNL     1      -9.558   6.620  72.417  1.00  0.00    -0.154 A  
BRANCH  41  43
HETATM   43  C   UNL     1     -10.707   4.496  72.930  1.00  0.00    -0.208 C  
HETATM   44  H2  UNL     1     -10.721   5.732  74.602  1.00  0.00     0.000 HD 
HETATM   45  H1  UNL     1     -11.033   4.017  74.913  1.00  0.00     0.000 HD 
HETATM   46  N   UNL     1     -10.831   4.776  74.263  1.00  0.00    -0.215 N  
HETATM   47  O   UNL     1     -10.842   3.338  72.545  1.00  0.00     0.015 OA 
ENDBRANCH  41  43
ENDBRANCH  34  35
ENDBRANCH  30  34
ENDBRANCH  15  30
ENDBRANCH  12  13
ENDBRANCH   6  12
ENDBRANCH   2   3
TORSDOF 10
ENDMDL
MODEL      191
REMARK 921   NORMALIZED FREE ENERGY PREDICTED BY IDOCK:   -3.49 KCAL/MOL
REMARK 922        TOTAL FREE ENERGY PREDICTED BY IDOCK:   -8.39 KCAL/MOL
REMARK 923 INTER-LIGAND FREE ENERGY PREDICTED BY IDOCK:   -6.66 KCAL/MOL
REMARK 924 INTRA-LIGAND FREE ENERGY PREDICTED BY IDOCK:   -1.74 KCAL/MOL
REMARK 927      BINDING AFFINITY PREDICTED BY RF-SCORE:    0.00 PKD
ROOT
HETATM    1  C   UNL     1     -12.087   6.270  71.123  1.00  0.00    -0.001 C  
HETATM    2  O   UNL     1     -11.063   6.293  70.127  1.00  0.00    -0.311 OA 
ENDROOT
BRANCH   2   3
HETATM    3  C   UNL     1     -10.334   7.450  70.011  1.00  0.00    -0.219 A  
HETATM    4  C   UNL     1      -9.798   8.143  71.100  1.00  0.00    -0.207 A  
HETATM    5  C   UNL     1      -8.981   9.261  70.905  1.00  0.00    -0.273 A  
HETATM    6  C   UNL     1      -8.705   9.743  69.622  1.00  0.00    -0.211 A  
HETATM    7  C   UNL     1      -9.293   9.084  68.531  1.00  0.00    -0.141 A  
HETATM    8  C   UNL     1     -10.651   7.319  67.481  1.00  0.00    -0.274 C  
HETATM    9  O   UNL     1     -10.835   5.985  67.553  1.00  0.00    -0.283 OA 
HETATM   10  C   UNL     1     -10.092   7.939  68.715  1.00  0.00    -0.203 A  
HETATM   11  O   UNL     1     -10.857   7.962  66.463  1.00  0.00     0.052 OA 
BRANCH   6  12
HETATM   12  C   UNL     1      -7.771  10.914  69.384  1.00  0.00    -0.066 C  
BRANCH  12  13
HETATM   13  N   UNL     1      -6.689  10.687  68.410  1.00  0.00    -0.059 N  
HETATM   14  O   UNL     1      -5.949  10.627  66.217  1.00  0.00    -0.082 OA 
HETATM   15  C   UNL     1      -6.818  10.973  67.029  1.00  0.00    -0.109 C  
BRANCH  13  16
HETATM   16  C   UNL     1      -5.552   9.832  68.839  1.00  0.00    -0.036 C  
HETATM   17  C   UNL     1      -5.134  10.031  70.307  1.00  0.00    -0.038 C  
BRANCH  16  18
HETATM   18  C   UNL     1      -5.862   8.363  68.642  1.00  0.00    -0.044 A  
HETATM   19  C   UNL     1      -6.587   6.343  69.220  1.00  0.00    -0.044 A  
HETATM   20  C   UNL     1      -6.741   6.545  67.865  1.00  0.00    -0.068 A  
HETATM   21  N   UNL     1      -6.243   7.780  67.520  1.00  0.00    -0.049 NA 
HETATM   22  H   UNL     1      -6.180   8.171  66.580  1.00  0.00     0.000 HD 
HETATM   23  N   UNL     1      -5.999   7.490  69.696  1.00  0.00    -0.023 NA 
BRANCH  20  24
HETATM   24  C   UNL     1      -7.417   5.678  66.909  1.00  0.00    -0.088 A  
HETATM   25  C   UNL     1      -8.594   5.453  64.782  1.00  0.00    -0.117 A  
HETATM   26  C   UNL     1      -8.865   4.117  65.058  1.00  0.00    -0.131 A  
HETATM   27  C   UNL     1      -8.402   3.551  66.247  1.00  0.00    -0.102 A  
HETATM   28  C   UNL     1      -7.875   6.225  65.698  1.00  0.00    -0.098 A  
HETATM   29  C   UNL     1      -7.678   4.325  67.166  1.00  0.00    -0.092 A  
ENDBRANCH  20  24
ENDBRANCH  16  18
ENDBRANCH  13  16
BRANCH  15  30
HETATM   30  C   UNL     1      -8.086  11.779  66.559  1.00  0.00    -0.035 C  
HETATM   31  H2  UNL     1      -9.382  10.158  66.854  1.00  0.00     0.000 HD 
HETATM   32  N   UNL     1      -9.156  10.838  66.128  1.00  0.00    -0.169 NA 
HETATM   33  H1  UNL     1      -9.977  11.360  65.824  1.00  0.00     0.000 HD 
BRANCH  30  34
HETATM   34  C   UNL     1      -8.736  12.699  67.617  1.00  0.00    -0.179 C  
BRANCH  34  35
HETATM   35  C   UNL     1      -8.905  14.175  67.312  1.00  0.00    -0.227 A  
HETATM   36  C   UNL     1      -6.423  14.578  67.887  1.00  0.00    -0.175 C  
HETATM   37  C   UNL     1     -10.265  16.113  66.703  1.00  0.00    -0.291 A  
HETATM   38  C   UNL     1     -11.478  13.993  67.021  1.00  0.00    -0.370 C  
HETATM   39  C   UNL     1      -7.785  15.042  67.431  1.00  0.00    -0.227 A  
HETATM   40  C   UNL     1     -10.169  14.741  67.012  1.00  0.00    -0.253 A  
HETATM   41  C   UNL     1      -9.148  16.943  66.736  1.00  0.00    -0.266 A  
HETATM   42  C   UNL     1      -7.919  16.404  67.119  1.00  0.00    -0.215 A  
BRANCH  41  43
HETATM   43  C   UNL     1      -9.196  18.399  66.424  1.00  0.00    -0.273 C  
HETATM   44  H2  UNL     1      -7.136  18.571  66.200  1.00  0.00     0.000 HD 
HETATM   45  H1  UNL     1      -8.062  20.062  65.960  1.00  0.00     0.000 HD 
HETATM   46  N   UNL     1      -8.028  19.065  66.174  1.00  0.00    -0.282 N  
HETATM   47  O   UNL     1     -10.258  19.013  66.387  1.00  0.00    -0.379 OA 
ENDBRANCH  41  43
ENDBRANCH  34  35
ENDBRANCH  30  34
ENDBRANCH  15  30
ENDBRANCH  12  13
ENDBRANCH   6  12
ENDBRANCH   2   3
TORSDOF 10
ENDMDL
MODEL      192
REMARK 921   NORMALIZED FREE ENERGY PREDICTED BY IDOCK:   -3.38 KCAL/MOL
REMARK 922        TOTAL FREE ENERGY PREDICTED BY IDOCK:   -8.23 KCAL/MOL
REMARK 923 INTER-LIGAND FREE ENERGY PREDICTED BY IDOCK:   -8.51 KCAL/MOL
REMARK 924 INTRA-LIGAND FREE ENERGY PREDICTED BY IDOCK:    0.28 KCAL/MOL
REMARK 927      BINDING AFFINITY PREDICTED BY RF-SCORE:    0.00 PKD
ROOT
HETATM    1  C   UNL     1      -9.565  18.231  69.471  1.00  0.00     0.375 C  
HETATM    2  O   UNL     1      -9.054  16.899  69.394  1.00  0.00    -0.052 OA 
ENDROOT
BRANCH   2   3
HETATM    3  C   UNL     1      -9.898  15.937  68.899  1.00  0.00    -0.226 A  
HETATM    4  C   UNL     1     -11.280  16.105  68.774  1.00  0.00    -0.365 A  
HETATM    5  C   UNL     1     -12.069  15.122  68.169  1.00  0.00    -0.009 A  
HETATM    6  C   UNL     1     -11.511  13.928  67.704  1.00  0.00    -0.354 A  
HETATM    7  C   UNL     1     -10.133  13.732  67.885  1.00  0.00    -0.246 A  
HETATM    8  C   UNL     1      -7.874  14.411  68.592  1.00  0.00    -0.140 C  
HETATM    9  O   UNL     1      -7.054  15.479  68.524  1.00  0.00    -0.110 OA 
HETATM   10  C   UNL     1      -9.324  14.728  68.466  1.00  0.00    -0.199 A  
HETATM   11  O   UNL     1      -7.463  13.264  68.680  1.00  0.00    -0.114 OA 
BRANCH   6  12
HETATM   12  C   UNL     1     -12.336  12.876  66.989  1.00  0.00     0.125 C  
BRANCH  12  13
HETATM   13  N   UNL     1     -11.586  11.944  66.128  1.00  0.00    -0.305 N  
HETATM   14  O   UNL     1     -10.082  10.200  65.899  1.00  0.00    -0.258 OA 
HETATM   15  C   UNL     1     -10.822  10.865  66.635  1.00  0.00    -0.197 C  
BRANCH  13  16
HETATM   16  C   UNL     1     -11.364  12.348  64.715  1.00  0.00    -0.315 C  
HETATM   17  C   UNL     1     -12.429  11.820  63.735  1.00  0.00    -0.436 C  
BRANCH  16  18
HETATM   18  C   UNL     1     -11.315  13.856  64.574  1.00  0.00    -0.372 A  
HETATM   19  C   UNL     1     -12.140  15.916  64.476  1.00  0.00     0.113 A  
HETATM   20  C   UNL     1     -10.853  15.932  64.969  1.00  0.00    -0.426 A  
HETATM   21  N   UNL     1     -10.343  14.654  64.976  1.00  0.00    -0.414 NA 
HETATM   22  H   UNL     1      -9.398  14.376  65.241  1.00  0.00     0.000 HD 
HETATM   23  N   UNL     1     -12.410  14.598  64.200  1.00  0.00    -0.747 NA 
BRANCH  20  24
HETATM   24  C   UNL     1     -10.125  17.068  65.518  1.00  0.00    -0.035 A  
HETATM   25  C   UNL     1     -10.109  19.438  66.105  1.00  0.00    -0.533 A  
HETATM   26  C   UNL     1      -8.759  19.361  66.433  1.00  0.00    -0.376 A  
HETATM   27  C   UNL     1      -8.091  18.141  66.324  1.00  0.00    -0.254 A  
HETATM   28  C   UNL     1     -10.784  18.301  65.653  1.00  0.00    -0.053 A  
HETATM   29  C   UNL     1      -8.770  16.999  65.874  1.00  0.00    -0.033 A  
ENDBRANCH  20  24
ENDBRANCH  16  18
ENDBRANCH  13  16
BRANCH  15  30
HETATM   30  C   UNL     1     -10.969  10.513  68.163  1.00  0.00    -0.277 C  
HETATM   31  H2  UNL     1     -13.054  10.330  68.050  1.00  0.00     0.000 HD 
HETATM   32  N   UNL     1     -12.355  10.805  68.621  1.00  0.00    -0.786 NA 
HETATM   33  H1  UNL     1     -12.449  10.576  69.610  1.00  0.00     0.000 HD 
BRANCH  30  34
HETATM   34  C   UNL     1     -10.700   9.041  68.547  1.00  0.00    -0.140 C  
BRANCH  34  35
HETATM   35  C   UNL     1      -9.489   8.333  67.969  1.00  0.00    -0.153 A  
HETATM   36  C   UNL     1     -11.033   6.568  66.896  1.00  0.00    -0.408 C  
HETATM   37  C   UNL     1      -7.075   8.061  67.689  1.00  0.00    -0.083 A  
HETATM   38  C   UNL     1      -7.795   9.830  69.247  1.00  0.00    -0.105 C  
HETATM   39  C   UNL     1      -9.677   7.172  67.174  1.00  0.00    -0.212 A  
HETATM   40  C   UNL     1      -8.165   8.732  68.281  1.00  0.00    -0.118 A  
HETATM   41  C   UNL     1      -7.267   6.976  66.840  1.00  0.00    -0.077 A  
HETATM   42  C   UNL     1      -8.568   6.527  66.605  1.00  0.00    -0.118 A  
BRANCH  41  43
HETATM   43  C   UNL     1      -6.152   6.230  66.194  1.00  0.00    -0.033 C  
HETATM   44  H2  UNL     1      -6.402   4.536  67.375  1.00  0.00     0.000 HD 
HETATM   45  H1  UNL     1      -5.097   4.453  66.180  1.00  0.00     0.000 HD 
HETATM   46  N   UNL     1      -5.861   4.964  66.622  1.00  0.00    -0.021 N  
HETATM   47  O   UNL     1      -5.487   6.725  65.289  1.00  0.00    -0.025 OA 
ENDBRANCH  41  43
ENDBRANCH  34  35
ENDBRANCH  30  34
ENDBRANCH  15  30
ENDBRANCH  12  13
ENDBRANCH   6  12
ENDBRANCH   2   3
TORSDOF 10
ENDMDL
MODEL      193
REMARK 921   NORMALIZED FREE ENERGY PREDICTED BY IDOCK:   -3.36 KCAL/MOL
REMARK 922        TOTAL FREE ENERGY PREDICTED BY IDOCK:   -8.20 KCAL/MOL
REMARK 923 INTER-LIGAND FREE ENERGY PREDICTED BY IDOCK:   -8.65 KCAL/MOL
REMARK 924 INTRA-LIGAND FREE ENERGY PREDICTED BY IDOCK:    0.45 KCAL/MOL
REMARK 927      BINDING AFFINITY PREDICTED BY RF-SCORE:    0.00 PKD
ROOT
HETATM    1  C   UNL     1      -5.435   8.804  68.678  1.00  0.00    -0.037 C  
HETATM    2  O   UNL     1      -6.329   9.540  67.841  1.00  0.00    -0.053 OA 
ENDROOT
BRANCH   2   3
HETATM    3  C   UNL     1      -7.646   9.588  68.226  1.00  0.00    -0.078 A  
HETATM    4  C   UNL     1      -8.111  10.333  69.313  1.00  0.00    -0.156 A  
HETATM    5  C   UNL     1      -9.479  10.417  69.591  1.00  0.00    -0.118 A  
HETATM    6  C   UNL     1     -10.420   9.731  68.818  1.00  0.00    -0.240 A  
HETATM    7  C   UNL     1      -9.948   8.932  67.764  1.00  0.00    -0.241 A  
HETATM    8  C   UNL     1      -8.197   7.995  66.308  1.00  0.00    -0.116 C  
HETATM    9  O   UNL     1      -7.099   8.393  65.635  1.00  0.00    -0.072 OA 
HETATM   10  C   UNL     1      -8.575   8.865  67.457  1.00  0.00    -0.120 A  
HETATM   11  O   UNL     1      -8.873   7.037  65.966  1.00  0.00    -0.156 OA 
BRANCH   6  12
HETATM   12  C   UNL     1     -11.911   9.857  69.061  1.00  0.00     0.407 C  
BRANCH  12  13
HETATM   13  N   UNL     1     -12.305  10.624  70.257  1.00  0.00    -0.321 N  
HETATM   14  O   UNL     1     -13.136  10.677  72.417  1.00  0.00    -0.269 OA 
HETATM   15  C   UNL     1     -12.662  10.015  71.485  1.00  0.00    -0.429 C  
BRANCH  13  16
HETATM   16  C   UNL     1     -12.651  12.057  70.066  1.00  0.00     0.128 C  
HETATM   17  C   UNL     1     -12.439  12.927  71.319  1.00  0.00    -0.298 C  
BRANCH  16  18
HETATM   18  C   UNL     1     -11.850  12.671  68.937  1.00  0.00    -0.302 A  
HETATM   19  C   UNL     1     -11.438  13.302  66.846  1.00  0.00    -0.338 A  
HETATM   20  C   UNL     1     -10.789  14.127  67.739  1.00  0.00    -0.252 A  
HETATM   21  N   UNL     1     -11.017  13.691  69.025  1.00  0.00    -0.305 NA 
HETATM   22  H   UNL     1     -10.620  14.081  69.879  1.00  0.00     0.000 HD 
HETATM   23  N   UNL     1     -12.081  12.364  67.616  1.00  0.00    -0.449 NA 
BRANCH  20  24
HETATM   24  C   UNL     1     -10.053  15.350  67.447  1.00  0.00    -0.233 A  
HETATM   25  C   UNL     1     -10.007  17.790  67.420  1.00  0.00    -0.323 A  
HETATM   26  C   UNL     1      -8.770  17.774  66.784  1.00  0.00    -0.273 A  
HETATM   27  C   UNL     1      -8.161  16.552  66.492  1.00  0.00    -0.335 A  
HETATM   28  C   UNL     1     -10.640  16.589  67.750  1.00  0.00    -0.332 A  
HETATM   29  C   UNL     1      -8.795  15.347  66.825  1.00  0.00    -0.300 A  
ENDBRANCH  20  24
ENDBRANCH  16  18
ENDBRANCH  13  16
BRANCH  15  30
HETATM   30  C   UNL     1     -12.404   8.470  71.643  1.00  0.00    -0.326 C  
HETATM   31  H2  UNL     1     -13.139   8.023  69.731  1.00  0.00     0.000 HD 
HETATM   32  N   UNL     1     -13.264   7.711  70.694  1.00  0.00    -0.293 NA 
HETATM   33  H1  UNL     1     -13.097   6.710  70.797  1.00  0.00     0.000 HD 
BRANCH  30  34
HETATM   34  C   UNL     1     -10.959   7.993  71.374  1.00  0.00    -0.273 C  
BRANCH  34  35
HETATM   35  C   UNL     1     -10.598   6.542  71.630  1.00  0.00    -0.250 A  
HETATM   36  C   UNL     1     -10.178   7.085  74.116  1.00  0.00    -0.265 C  
HETATM   37  C   UNL     1     -10.191   4.252  70.877  1.00  0.00    -0.052 A  
HETATM   38  C   UNL     1     -10.661   5.907  69.113  1.00  0.00    -0.369 C  
HETATM   39  C   UNL     1     -10.249   6.134  72.945  1.00  0.00    -0.206 A  
HETATM   40  C   UNL     1     -10.496   5.595  70.579  1.00  0.00    -0.347 A  
HETATM   41  C   UNL     1      -9.934   3.838  72.180  1.00  0.00    -0.239 A  
HETATM   42  C   UNL     1      -9.946   4.788  73.203  1.00  0.00    -0.179 A  
BRANCH  41  43
HETATM   43  C   UNL     1      -9.602   2.433  72.546  1.00  0.00    -0.103 C  
HETATM   44  H2  UNL     1      -7.946   2.339  71.291  1.00  0.00     0.000 HD 
HETATM   45  H1  UNL     1      -8.292   0.870  72.217  1.00  0.00     0.000 HD 
HETATM   46  N   UNL     1      -8.519   1.832  71.966  1.00  0.00    -0.052 N  
HETATM   47  O   UNL     1     -10.276   1.803  73.355  1.00  0.00    -0.088 OA 
ENDBRANCH  41  43
ENDBRANCH  34  35
ENDBRANCH  30  34
ENDBRANCH  15  30
ENDBRANCH  12  13
ENDBRANCH   6  12
ENDBRANCH   2   3
TORSDOF 10
ENDMDL
MODEL      194
REMARK 921   NORMALIZED FREE ENERGY PREDICTED BY IDOCK:   -3.33 KCAL/MOL
REMARK 922        TOTAL FREE ENERGY PREDICTED BY IDOCK:   -8.15 KCAL/MOL
REMARK 923 INTER-LIGAND FREE ENERGY PREDICTED BY IDOCK:   -8.59 KCAL/MOL
REMARK 924 INTRA-LIGAND FREE ENERGY PREDICTED BY IDOCK:    0.45 KCAL/MOL
REMARK 927      BINDING AFFINITY PREDICTED BY RF-SCORE:    0.00 PKD
ROOT
HETATM    1  C   UNL     1      -9.535   3.125  65.868  1.00  0.00    -0.043 C  
HETATM    2  O   UNL     1      -9.249   4.308  65.120  1.00  0.00    -0.135 OA 
ENDROOT
BRANCH   2   3
HETATM    3  C   UNL     1      -9.157   5.482  65.825  1.00  0.00    -0.144 A  
HETATM    4  C   UNL     1     -10.158   5.958  66.676  1.00  0.00    -0.229 A  
HETATM    5  C   UNL     1      -9.959   7.111  67.441  1.00  0.00    -0.224 A  
HETATM    6  C   UNL     1      -8.772   7.845  67.352  1.00  0.00    -0.128 A  
HETATM    7  C   UNL     1      -7.791   7.402  66.452  1.00  0.00    -0.102 A  
HETATM    8  C   UNL     1      -6.852   5.848  64.787  1.00  0.00    -0.047 C  
HETATM    9  O   UNL     1      -6.711   4.523  64.585  1.00  0.00    -0.042 OA 
HETATM   10  C   UNL     1      -7.969   6.224  65.699  1.00  0.00    -0.115 A  
HETATM   11  O   UNL     1      -6.086   6.676  64.319  1.00  0.00    -0.033 OA 
BRANCH   6  12
HETATM   12  C   UNL     1      -8.509   9.062  68.218  1.00  0.00    -0.129 C  
BRANCH  12  13
HETATM   13  N   UNL     1      -9.455   9.280  69.327  1.00  0.00    -0.156 N  
HETATM   14  O   UNL     1     -11.366  10.287  70.160  1.00  0.00    -0.270 OA 
HETATM   15  C   UNL     1     -10.672   9.989  69.179  1.00  0.00    -0.220 C  
BRANCH  13  16
HETATM   16  C   UNL     1      -8.960   9.030  70.706  1.00  0.00    -0.236 C  
HETATM   17  C   UNL     1     -10.069   8.980  71.773  1.00  0.00    -0.373 C  
BRANCH  16  18
HETATM   18  C   UNL     1      -8.185   7.731  70.786  1.00  0.00    -0.107 A  
HETATM   19  C   UNL     1      -6.910   6.181  71.739  1.00  0.00    -0.068 A  
HETATM   20  C   UNL     1      -7.735   5.615  70.791  1.00  0.00    -0.092 A  
HETATM   21  N   UNL     1      -8.481   6.597  70.179  1.00  0.00    -0.134 NA 
HETATM   22  H   UNL     1      -9.135   6.472  69.407  1.00  0.00     0.000 HD 
HETATM   23  N   UNL     1      -7.181   7.526  71.704  1.00  0.00    -0.066 NA 
BRANCH  20  24
HETATM   24  C   UNL     1      -7.922   4.198  70.506  1.00  0.00    -0.055 A  
HETATM   25  C   UNL     1      -9.232   2.457  69.405  1.00  0.00    -0.190 A  
HETATM   26  C   UNL     1      -8.456   1.473  70.010  1.00  0.00    -0.077 A  
HETATM   27  C   UNL     1      -7.403   1.843  70.848  1.00  0.00    -0.033 A  
HETATM   28  C   UNL     1      -8.965   3.807  69.650  1.00  0.00    -0.171 A  
HETATM   29  C   UNL     1      -7.133   3.197  71.091  1.00  0.00    -0.033 A  
ENDBRANCH  20  24
ENDBRANCH  16  18
ENDBRANCH  13  16
BRANCH  15  30
HETATM   30  C   UNL     1     -11.137  10.357  67.721  1.00  0.00    -0.299 C  
HETATM   31  H2  UNL     1     -12.059  12.139  68.329  1.00  0.00     0.000 HD 
HETATM   32  N   UNL     1     -12.279  11.310  67.777  1.00  0.00    -0.339 NA 
HETATM   33  H1  UNL     1     -12.580  11.549  66.832  1.00  0.00     0.000 HD 
BRANCH  30  34
HETATM   34  C   UNL     1     -10.075  11.027  66.820  1.00  0.00    -0.260 C  
BRANCH  34  35
HETATM   35  C   UNL     1     -10.226  12.493  66.461  1.00  0.00    -0.255 A  
HETATM   36  C   UNL     1     -11.429  11.836  64.277  1.00  0.00    -0.386 C  
HETATM   37  C   UNL     1      -9.834  14.870  66.878  1.00  0.00    -0.246 A  
HETATM   38  C   UNL     1      -8.753  13.302  68.441  1.00  0.00    -0.126 C  
HETATM   39  C   UNL     1     -10.889  12.850  65.257  1.00  0.00    -0.316 A  
HETATM   40  C   UNL     1      -9.635  13.522  67.237  1.00  0.00    -0.235 A  
HETATM   41  C   UNL     1     -10.559  15.218  65.743  1.00  0.00    -0.359 A  
HETATM   42  C   UNL     1     -11.065  14.203  64.929  1.00  0.00    -0.389 A  
BRANCH  41  43
HETATM   43  C   UNL     1     -10.794  16.626  65.317  1.00  0.00    -0.183 C  
HETATM   44  H2  UNL     1     -10.122  17.438  67.110  1.00  0.00     0.000 HD 
HETATM   45  H1  UNL     1     -10.660  18.606  65.891  1.00  0.00     0.000 HD 
HETATM   46  N   UNL     1     -10.499  17.642  66.183  1.00  0.00    -0.343 N  
HETATM   47  O   UNL     1     -11.248  16.895  64.209  1.00  0.00    -1.204 OA 
ENDBRANCH  41  43
ENDBRANCH  34  35
ENDBRANCH  30  34
ENDBRANCH  15  30
ENDBRANCH  12  13
ENDBRANCH   6  12
ENDBRANCH   2   3
TORSDOF 10
ENDMDL
MODEL      195
REMARK 921   NORMALIZED FREE ENERGY PREDICTED BY IDOCK:   -3.31 KCAL/MOL
REMARK 922        TOTAL FREE ENERGY PREDICTED BY IDOCK:   -8.12 KCAL/MOL
REMARK 923 INTER-LIGAND FREE ENERGY PREDICTED BY IDOCK:   -6.97 KCAL/MOL
REMARK 924 INTRA-LIGAND FREE ENERGY PREDICTED BY IDOCK:   -1.15 KCAL/MOL
REMARK 927      BINDING AFFINITY PREDICTED BY RF-SCORE:    0.00 PKD
ROOT
HETATM    1  C   UNL     1     -12.718  12.061  63.522  1.00  0.00    -0.443 C  
HETATM    2  O   UNL     1     -11.294  12.173  63.489  1.00  0.00    -0.421 OA 
ENDROOT
BRANCH   2   3
HETATM    3  C   UNL     1     -10.630  12.006  64.679  1.00  0.00    -0.307 A  
HETATM    4  C   UNL     1     -11.027  12.597  65.881  1.00  0.00    -0.310 A  
HETATM    5  C   UNL     1     -10.363  12.306  67.076  1.00  0.00    -0.237 A  
HETATM    6  C   UNL     1      -9.262  11.446  67.103  1.00  0.00    -0.170 A  
HETATM    7  C   UNL     1      -8.824  10.900  65.887  1.00  0.00    -0.197 A  
HETATM    8  C   UNL     1      -8.954  10.516  63.458  1.00  0.00    -0.221 C  
HETATM    9  O   UNL     1      -9.869  10.227  62.511  1.00  0.00    -0.193 OA 
HETATM   10  C   UNL     1      -9.504  11.163  64.682  1.00  0.00    -0.245 A  
HETATM   11  O   UNL     1      -7.776  10.210  63.356  1.00  0.00    -0.152 OA 
BRANCH   6  12
HETATM   12  C   UNL     1      -8.566  11.066  68.396  1.00  0.00    -0.149 C  
BRANCH  12  13
HETATM   13  N   UNL     1      -7.255  10.409  68.253  1.00  0.00    -0.082 N  
HETATM   14  O   UNL     1      -5.925   8.526  68.462  1.00  0.00    -0.043 OA 
HETATM   15  C   UNL     1      -7.061   9.019  68.437  1.00  0.00    -0.076 C  
BRANCH  13  16
HETATM   16  C   UNL     1      -6.052  11.282  68.237  1.00  0.00    -0.045 C  
HETATM   17  C   UNL     1      -5.664  11.793  66.837  1.00  0.00    -0.142 C  
BRANCH  16  18
HETATM   18  C   UNL     1      -6.234  12.488  69.135  1.00  0.00    -0.094 A  
HETATM   19  C   UNL     1      -5.898  13.755  70.929  1.00  0.00    -0.187 A  
HETATM   20  C   UNL     1      -6.222  14.534  69.838  1.00  0.00    -0.150 A  
HETATM   21  N   UNL     1      -6.472  13.728  68.751  1.00  0.00    -0.089 NA 
HETATM   22  H   UNL     1      -6.782  14.031  67.827  1.00  0.00     0.000 HD 
HETATM   23  N   UNL     1      -5.941  12.459  70.478  1.00  0.00    -0.217 NA 
BRANCH  20  24
HETATM   24  C   UNL     1      -6.209  15.988  69.748  1.00  0.00    -0.179 A  
HETATM   25  C   UNL     1      -7.255  18.025  68.902  1.00  0.00    -0.264 A  
HETATM   26  C   UNL     1      -6.200  18.787  69.395  1.00  0.00    -0.289 A  
HETATM   27  C   UNL     1      -5.157  18.160  70.080  1.00  0.00    -0.206 A  
HETATM   28  C   UNL     1      -7.259  16.639  69.079  1.00  0.00    -0.222 A  
HETATM   29  C   UNL     1      -5.163  16.770  70.260  1.00  0.00    -0.205 A  
ENDBRANCH  20  24
ENDBRANCH  16  18
ENDBRANCH  13  16
BRANCH  15  30
HETATM   30  C   UNL     1      -8.339   8.108  68.573  1.00  0.00    -0.126 C  
HETATM   31  H2  UNL     1      -8.514   7.828  66.503  1.00  0.00     0.000 HD 
HETATM   32  N   UNL     1      -9.098   8.104  67.292  1.00  0.00    -0.136 NA 
HETATM   33  H1  UNL     1      -9.925   7.514  67.381  1.00  0.00     0.000 HD 
BRANCH  30  34
HETATM   34  C   UNL     1      -8.080   6.624  68.914  1.00  0.00    -0.116 C  
BRANCH  34  35
HETATM   35  C   UNL     1      -8.234   5.576  67.827  1.00  0.00    -0.100 A  
HETATM   36  C   UNL     1     -10.725   5.305  68.442  1.00  0.00     0.030 C  
HETATM   37  C   UNL     1      -7.332   4.145  66.062  1.00  0.00    -0.080 A  
HETATM   38  C   UNL     1      -5.691   5.494  67.310  1.00  0.00    -0.017 C  
HETATM   39  C   UNL     1      -9.506   4.980  67.613  1.00  0.00    -0.154 A  
HETATM   40  C   UNL     1      -7.128   5.095  67.084  1.00  0.00    -0.069 A  
HETATM   41  C   UNL     1      -8.595   3.627  65.797  1.00  0.00    -0.114 A  
HETATM   42  C   UNL     1      -9.671   4.034  66.589  1.00  0.00    -0.215 A  
BRANCH  41  43
HETATM   43  C   UNL     1      -8.864   2.619  64.733  1.00  0.00    -0.118 C  
HETATM   44  H2  UNL     1     -10.447   3.689  63.911  1.00  0.00     0.000 HD 
HETATM   45  H1  UNL     1     -10.064   2.152  63.118  1.00  0.00     0.000 HD 
HETATM   46  N   UNL     1      -9.880   2.842  63.846  1.00  0.00    -0.147 N  
HETATM   47  O   UNL     1      -8.197   1.594  64.636  1.00  0.00    -0.069 OA 
ENDBRANCH  41  43
ENDBRANCH  34  35
ENDBRANCH  30  34
ENDBRANCH  15  30
ENDBRANCH  12  13
ENDBRANCH   6  12
ENDBRANCH   2   3
TORSDOF 10
ENDMDL
MODEL      196
REMARK 921   NORMALIZED FREE ENERGY PREDICTED BY IDOCK:   -3.31 KCAL/MOL
REMARK 922        TOTAL FREE ENERGY PREDICTED BY IDOCK:   -8.11 KCAL/MOL
REMARK 923 INTER-LIGAND FREE ENERGY PREDICTED BY IDOCK:   -7.65 KCAL/MOL
REMARK 924 INTRA-LIGAND FREE ENERGY PREDICTED BY IDOCK:   -0.47 KCAL/MOL
REMARK 927      BINDING AFFINITY PREDICTED BY RF-SCORE:    0.00 PKD
ROOT
HETATM    1  C   UNL     1     -13.250  13.205  71.138  1.00  0.00    -0.032 C  
HETATM    2  O   UNL     1     -13.190  11.806  70.853  1.00  0.00     0.008 OA 
ENDROOT
BRANCH   2   3
HETATM    3  C   UNL     1     -12.032  11.335  70.289  1.00  0.00    -0.379 A  
HETATM    4  C   UNL     1     -11.293  12.035  69.330  1.00  0.00    -0.317 A  
HETATM    5  C   UNL     1     -10.069  11.542  68.869  1.00  0.00    -0.144 A  
HETATM    6  C   UNL     1      -9.562  10.320  69.321  1.00  0.00    -0.239 A  
HETATM    7  C   UNL     1     -10.332   9.587  70.237  1.00  0.00    -0.321 A  
HETATM    8  C   UNL     1     -12.273   9.226  71.708  1.00  0.00    -0.385 C  
HETATM    9  O   UNL     1     -13.015   9.896  72.613  1.00  0.00    -0.140 OA 
HETATM   10  C   UNL     1     -11.552  10.089  70.731  1.00  0.00    -0.444 A  
HETATM   11  O   UNL     1     -12.143   8.012  71.727  1.00  0.00    -0.280 OA 
BRANCH   6  12
HETATM   12  C   UNL     1      -8.208   9.797  68.883  1.00  0.00    -0.117 C  
BRANCH  12  13
HETATM   13  N   UNL     1      -7.960   9.790  67.430  1.00  0.00    -0.102 N  
HETATM   14  O   UNL     1      -8.206   8.779  65.362  1.00  0.00    -0.120 OA 
HETATM   15  C   UNL     1      -8.555   8.857  66.547  1.00  0.00    -0.124 C  
BRANCH  13  16
HETATM   16  C   UNL     1      -6.801  10.576  66.931  1.00  0.00    -0.091 C  
HETATM   17  C   UNL     1      -6.632  10.545  65.400  1.00  0.00    -0.074 C  
BRANCH  16  18
HETATM   18  C   UNL     1      -6.896  12.027  67.355  1.00  0.00    -0.142 A  
HETATM   19  C   UNL     1      -6.138  14.066  67.810  1.00  0.00    -0.123 A  
HETATM   20  C   UNL     1      -7.445  14.120  67.377  1.00  0.00    -0.134 A  
HETATM   21  N   UNL     1      -7.911  12.845  67.147  1.00  0.00    -0.341 NA 
HETATM   22  H   UNL     1      -8.857  12.583  66.869  1.00  0.00     0.000 HD 
HETATM   23  N   UNL     1      -5.812  12.732  67.823  1.00  0.00    -0.120 NA 
BRANCH  20  24
HETATM   24  C   UNL     1      -8.235  15.307  67.078  1.00  0.00    -0.267 A  
HETATM   25  C   UNL     1     -10.435  16.356  66.934  1.00  0.00    -0.289 A  
HETATM   26  C   UNL     1      -9.866  17.504  66.392  1.00  0.00    -0.316 A  
HETATM   27  C   UNL     1      -8.484  17.568  66.207  1.00  0.00    -0.247 A  
HETATM   28  C   UNL     1      -9.625  15.269  67.275  1.00  0.00    -0.214 A  
HETATM   29  C   UNL     1      -7.672  16.479  66.552  1.00  0.00    -0.323 A  
ENDBRANCH  20  24
ENDBRANCH  16  18
ENDBRANCH  13  16
BRANCH  15  30
HETATM   30  C   UNL     1      -9.704   7.939  67.111  1.00  0.00    -0.191 C  
HETATM   31  H2  UNL     1     -11.128   8.677  65.761  1.00  0.00     0.000 HD 
HETATM   32  N   UNL     1     -11.032   8.516  66.763  1.00  0.00    -0.109 NA 
HETATM   33  H1  UNL     1     -11.776   7.922  67.128  1.00  0.00     0.000 HD 
BRANCH  30  34
HETATM   34  C   UNL     1      -9.728   6.485  66.589  1.00  0.00    -0.201 C  
BRANCH  34  35
HETATM   35  C   UNL     1      -9.180   5.374  67.466  1.00  0.00    -0.114 A  
HETATM   36  C   UNL     1      -7.570   4.676  65.575  1.00  0.00    -0.082 C  
HETATM   37  C   UNL     1      -9.170   4.051  69.521  1.00  0.00    -0.220 A  
HETATM   38  C   UNL     1     -10.952   5.741  69.328  1.00  0.00    -0.330 C  
HETATM   39  C   UNL     1      -8.143   4.542  66.966  1.00  0.00    -0.102 A  
HETATM   40  C   UNL     1      -9.740   5.071  68.732  1.00  0.00    -0.226 A  
HETATM   41  C   UNL     1      -8.097   3.294  69.063  1.00  0.00    -0.072 A  
HETATM   42  C   UNL     1      -7.604   3.533  67.778  1.00  0.00    -0.069 A  
BRANCH  41  43
HETATM   43  C   UNL     1      -7.463   2.202  69.853  1.00  0.00    -0.043 C  
HETATM   44  H2  UNL     1      -8.893   2.262  71.363  1.00  0.00     0.000 HD 
HETATM   45  H1  UNL     1      -7.605   1.064  71.572  1.00  0.00     0.000 HD 
HETATM   46  N   UNL     1      -8.039   1.812  71.031  1.00  0.00    -0.045 N  
HETATM   47  O   UNL     1      -6.437   1.647  69.474  1.00  0.00    -0.025 OA 
ENDBRANCH  41  43
ENDBRANCH  34  35
ENDBRANCH  30  34
ENDBRANCH  15  30
ENDBRANCH  12  13
ENDBRANCH   6  12
ENDBRANCH   2   3
TORSDOF 10
ENDMDL
MODEL      197
REMARK 921   NORMALIZED FREE ENERGY PREDICTED BY IDOCK:   -3.30 KCAL/MOL
REMARK 922        TOTAL FREE ENERGY PREDICTED BY IDOCK:   -8.10 KCAL/MOL
REMARK 923 INTER-LIGAND FREE ENERGY PREDICTED BY IDOCK:   -6.97 KCAL/MOL
REMARK 924 INTRA-LIGAND FREE ENERGY PREDICTED BY IDOCK:   -1.13 KCAL/MOL
REMARK 927      BINDING AFFINITY PREDICTED BY RF-SCORE:    0.00 PKD
ROOT
HETATM    1  C   UNL     1     -12.621  13.524  65.204  1.00  0.00    -0.436 C  
HETATM    2  O   UNL     1     -12.690  13.554  66.631  1.00  0.00    -0.173 OA 
ENDROOT
BRANCH   2   3
HETATM    3  C   UNL     1     -11.881  12.678  67.311  1.00  0.00    -0.328 A  
HETATM    4  C   UNL     1     -11.448  11.456  66.791  1.00  0.00    -0.157 A  
HETATM    5  C   UNL     1     -10.545  10.656  67.498  1.00  0.00    -0.297 A  
HETATM    6  C   UNL     1     -10.075  11.033  68.759  1.00  0.00    -0.214 A  
HETATM    7  C   UNL     1     -10.557  12.231  69.309  1.00  0.00     0.064 A  
HETATM    8  C   UNL     1     -11.875  14.311  69.275  1.00  0.00    -0.330 C  
HETATM    9  O   UNL     1     -12.151  15.339  68.447  1.00  0.00    -0.236 OA 
HETATM   10  C   UNL     1     -11.444  13.058  68.593  1.00  0.00    -0.344 A  
HETATM   11  O   UNL     1     -11.907  14.413  70.491  1.00  0.00    -0.285 OA 
BRANCH   6  12
HETATM   12  C   UNL     1      -9.047  10.214  69.515  1.00  0.00    -0.195 C  
BRANCH  12  13
HETATM   13  N   UNL     1      -7.806   9.905  68.784  1.00  0.00    -0.088 N  
HETATM   14  O   UNL     1      -5.987  10.610  67.538  1.00  0.00    -0.047 OA 
HETATM   15  C   UNL     1      -6.935  10.901  68.279  1.00  0.00    -0.069 C  
BRANCH  13  16
HETATM   16  C   UNL     1      -7.636   8.515  68.284  1.00  0.00    -0.097 C  
HETATM   17  C   UNL     1      -6.491   8.348  67.267  1.00  0.00    -0.058 C  
BRANCH  16  18
HETATM   18  C   UNL     1      -7.388   7.546  69.421  1.00  0.00    -0.085 A  
HETATM   19  C   UNL     1      -6.521   6.849  71.344  1.00  0.00    -0.042 A  
HETATM   20  C   UNL     1      -7.741   6.250  71.117  1.00  0.00    -0.102 A  
HETATM   21  N   UNL     1      -8.239   6.658  69.900  1.00  0.00    -0.125 NA 
HETATM   22  H   UNL     1      -9.098   6.337  69.455  1.00  0.00     0.000 HD 
HETATM   23  N   UNL     1      -6.293   7.643  70.247  1.00  0.00    -0.034 NA 
BRANCH  20  24
HETATM   24  C   UNL     1      -8.498   5.399  72.026  1.00  0.00    -0.127 A  
HETATM   25  C   UNL     1     -10.402   3.913  72.378  1.00  0.00    -0.194 A  
HETATM   26  C   UNL     1     -10.111   3.841  73.737  1.00  0.00    -0.185 A  
HETATM   27  C   UNL     1      -9.008   4.529  74.243  1.00  0.00    -0.108 A  
HETATM   28  C   UNL     1      -9.601   4.684  71.532  1.00  0.00    -0.225 A  
HETATM   29  C   UNL     1      -8.202   5.300  73.393  1.00  0.00    -0.111 A  
ENDBRANCH  20  24
ENDBRANCH  16  18
ENDBRANCH  13  16
BRANCH  15  30
HETATM   30  C   UNL     1      -7.190  12.392  68.717  1.00  0.00    -0.094 C  
HETATM   31  H2  UNL     1      -5.475  12.463  69.921  1.00  0.00     0.000 HD 
HETATM   32  N   UNL     1      -6.470  12.678  69.988  1.00  0.00    -0.359 NA 
HETATM   33  H1  UNL     1      -6.635  13.643  70.271  1.00  0.00     0.000 HD 
BRANCH  30  34
HETATM   34  C   UNL     1      -6.730  13.479  67.720  1.00  0.00    -0.173 C  
BRANCH  34  35
HETATM   35  C   UNL     1      -7.598  14.705  67.508  1.00  0.00    -0.215 A  
HETATM   36  C   UNL     1      -9.018  13.405  65.792  1.00  0.00     0.661 C  
HETATM   37  C   UNL     1      -8.156  17.052  67.907  1.00  0.00    -0.196 A  
HETATM   38  C   UNL     1      -6.080  16.237  68.954  1.00  0.00    -0.131 C  
HETATM   39  C   UNL     1      -8.689  14.637  66.601  1.00  0.00    -0.197 A  
HETATM   40  C   UNL     1      -7.296  15.953  68.109  1.00  0.00    -0.133 A  
HETATM   41  C   UNL     1      -9.273  16.956  67.085  1.00  0.00    -0.238 A  
HETATM   42  C   UNL     1      -9.521  15.753  66.421  1.00  0.00    -0.326 A  
BRANCH  41  43
HETATM   43  C   UNL     1     -10.209  18.087  66.834  1.00  0.00    -0.362 C  
HETATM   44  H2  UNL     1     -10.417  17.663  64.809  1.00  0.00     0.000 HD 
HETATM   45  H1  UNL     1     -11.334  19.058  65.398  1.00  0.00     0.000 HD 
HETATM   46  N   UNL     1     -10.693  18.284  65.570  1.00  0.00    -0.166 N  
HETATM   47  O   UNL     1     -10.554  18.848  67.734  1.00  0.00    -0.415 OA 
ENDBRANCH  41  43
ENDBRANCH  34  35
ENDBRANCH  30  34
ENDBRANCH  15  30
ENDBRANCH  12  13
ENDBRANCH   6  12
ENDBRANCH   2   3
TORSDOF 10
ENDMDL
MODEL      198
REMARK 921   NORMALIZED FREE ENERGY PREDICTED BY IDOCK:   -3.27 KCAL/MOL
REMARK 922        TOTAL FREE ENERGY PREDICTED BY IDOCK:   -8.05 KCAL/MOL
REMARK 923 INTER-LIGAND FREE ENERGY PREDICTED BY IDOCK:   -7.15 KCAL/MOL
REMARK 924 INTRA-LIGAND FREE ENERGY PREDICTED BY IDOCK:   -0.90 KCAL/MOL
REMARK 927      BINDING AFFINITY PREDICTED BY RF-SCORE:    0.00 PKD
ROOT
HETATM    1  C   UNL     1      -7.852   8.402  74.286  1.00  0.00    -0.182 C  
HETATM    2  O   UNL     1      -7.844   7.299  73.378  1.00  0.00    -0.093 OA 
ENDROOT
BRANCH   2   3
HETATM    3  C   UNL     1      -7.651   7.588  72.050  1.00  0.00    -0.081 A  
HETATM    4  C   UNL     1      -7.352   8.865  71.568  1.00  0.00    -0.081 A  
HETATM    5  C   UNL     1      -7.069   9.072  70.214  1.00  0.00    -0.055 A  
HETATM    6  C   UNL     1      -7.114   8.019  69.295  1.00  0.00    -0.068 A  
HETATM    7  C   UNL     1      -7.475   6.748  69.768  1.00  0.00    -0.091 A  
HETATM    8  C   UNL     1      -8.093   5.130  71.518  1.00  0.00    -0.115 C  
HETATM    9  O   UNL     1      -7.721   4.773  72.764  1.00  0.00    -0.089 OA 
HETATM   10  C   UNL     1      -7.732   6.523  71.135  1.00  0.00    -0.098 A  
HETATM   11  O   UNL     1      -8.621   4.354  70.737  1.00  0.00    -0.087 OA 
BRANCH   6  12
HETATM   12  C   UNL     1      -6.750   8.207  67.835  1.00  0.00    -0.065 C  
BRANCH  12  13
HETATM   13  N   UNL     1      -7.023   9.541  67.270  1.00  0.00    -0.084 N  
HETATM   14  O   UNL     1      -8.089  10.873  65.706  1.00  0.00    -0.157 OA 
HETATM   15  C   UNL     1      -7.994   9.774  66.267  1.00  0.00    -0.109 C  
BRANCH  13  16
HETATM   16  C   UNL     1      -6.024  10.610  67.530  1.00  0.00    -0.048 C  
HETATM   17  C   UNL     1      -5.239  11.056  66.282  1.00  0.00    -0.122 C  
BRANCH  16  18
HETATM   18  C   UNL     1      -6.675  11.840  68.129  1.00  0.00    -0.064 A  
HETATM   19  C   UNL     1      -6.763  13.730  69.295  1.00  0.00    -0.101 A  
HETATM   20  C   UNL     1      -7.706  13.735  68.289  1.00  0.00    -0.138 A  
HETATM   21  N   UNL     1      -7.668  12.538  67.611  1.00  0.00    -0.139 NA 
HETATM   22  H   UNL     1      -8.287  12.247  66.854  1.00  0.00     0.000 HD 
HETATM   23  N   UNL     1      -6.138  12.510  69.203  1.00  0.00    -0.081 NA 
BRANCH  20  24
HETATM   24  C   UNL     1      -8.563  14.840  67.880  1.00  0.00    -0.166 A  
HETATM   25  C   UNL     1     -10.800  15.628  67.301  1.00  0.00    -0.298 A  
HETATM   26  C   UNL     1     -10.286  16.873  66.954  1.00  0.00    -0.296 A  
HETATM   27  C   UNL     1      -8.917  17.114  67.083  1.00  0.00    -0.238 A  
HETATM   28  C   UNL     1      -9.946  14.622  67.761  1.00  0.00    -0.224 A  
HETATM   29  C   UNL     1      -8.060  16.106  67.548  1.00  0.00    -0.164 A  
ENDBRANCH  20  24
ENDBRANCH  16  18
ENDBRANCH  13  16
BRANCH  15  30
HETATM   30  C   UNL     1      -8.978   8.598  65.908  1.00  0.00    -0.200 C  
HETATM   31  H2  UNL     1      -8.202   7.329  67.384  1.00  0.00     0.000 HD 
HETATM   32  N   UNL     1      -8.421   7.304  66.389  1.00  0.00    -0.123 NA 
HETATM   33  H1  UNL     1      -9.059   6.543  66.156  1.00  0.00     0.000 HD 
BRANCH  30  34
HETATM   34  C   UNL     1     -10.398   8.695  66.510  1.00  0.00    -0.237 C  
BRANCH  34  35
HETATM   35  C   UNL     1     -10.634   8.218  67.931  1.00  0.00    -0.212 A  
HETATM   36  C   UNL     1     -10.165  10.597  68.808  1.00  0.00    -0.204 C  
HETATM   37  C   UNL     1     -11.099   6.467  69.572  1.00  0.00    -0.460 A  
HETATM   38  C   UNL     1     -10.809   5.720  67.243  1.00  0.00    -0.290 C  
HETATM   39  C   UNL     1     -10.535   9.146  69.001  1.00  0.00    -0.238 A  
HETATM   40  C   UNL     1     -10.850   6.851  68.239  1.00  0.00    -0.244 A  
HETATM   41  C   UNL     1     -11.087   7.395  70.609  1.00  0.00    -0.285 A  
HETATM   42  C   UNL     1     -10.785   8.726  70.317  1.00  0.00    -0.249 A  
BRANCH  41  43
HETATM   43  C   UNL     1     -11.337   7.040  72.033  1.00  0.00    -0.264 C  
HETATM   44  H2  UNL     1     -11.139   8.996  72.711  1.00  0.00     0.000 HD 
HETATM   45  H1  UNL     1     -11.492   7.785  73.954  1.00  0.00     0.000 HD 
HETATM   46  N   UNL     1     -11.320   8.028  72.979  1.00  0.00    -0.308 N  
HETATM   47  O   UNL     1     -11.557   5.883  72.379  1.00  0.00    -0.302 OA 
ENDBRANCH  41  43
ENDBRANCH  34  35
ENDBRANCH  30  34
ENDBRANCH  15  30
ENDBRANCH  12  13
ENDBRANCH   6  12
ENDBRANCH   2   3
TORSDOF 10
ENDMDL
MODEL      199
REMARK 921   NORMALIZED FREE ENERGY PREDICTED BY IDOCK:   -3.26 KCAL/MOL
REMARK 922        TOTAL FREE ENERGY PREDICTED BY IDOCK:   -8.03 KCAL/MOL
REMARK 923 INTER-LIGAND FREE ENERGY PREDICTED BY IDOCK:   -7.52 KCAL/MOL
REMARK 924 INTRA-LIGAND FREE ENERGY PREDICTED BY IDOCK:   -0.51 KCAL/MOL
REMARK 927      BINDING AFFINITY PREDICTED BY RF-SCORE:    0.00 PKD
ROOT
HETATM    1  C   UNL     1      -9.485   4.279  65.898  1.00  0.00    -0.176 C  
HETATM    2  O   UNL     1      -9.242   5.497  65.193  1.00  0.00    -0.047 OA 
ENDROOT
BRANCH   2   3
HETATM    3  C   UNL     1      -9.337   6.662  65.913  1.00  0.00     0.085 A  
HETATM    4  C   UNL     1     -10.460   7.022  66.663  1.00  0.00    -0.209 A  
HETATM    5  C   UNL     1     -10.454   8.176  67.453  1.00  0.00    -0.356 A  
HETATM    6  C   UNL     1      -9.343   9.024  67.490  1.00  0.00    -0.159 A  
HETATM    7  C   UNL     1      -8.238   8.695  66.689  1.00  0.00    -0.107 A  
HETATM    8  C   UNL     1      -6.989   7.271  65.116  1.00  0.00    -0.055 C  
HETATM    9  O   UNL     1      -6.697   5.970  64.918  1.00  0.00    -0.041 OA 
HETATM   10  C   UNL     1      -8.223   7.520  65.914  1.00  0.00    -0.134 A  
HETATM   11  O   UNL     1      -6.266   8.178  64.734  1.00  0.00    -0.048 OA 
BRANCH   6  12
HETATM   12  C   UNL     1      -9.290  10.245  68.387  1.00  0.00    -0.143 C  
BRANCH  12  13
HETATM   13  N   UNL     1     -10.411  10.399  69.332  1.00  0.00    -0.225 N  
HETATM   14  O   UNL     1     -12.234  11.604  70.096  1.00  0.00    -0.310 OA 
HETATM   15  C   UNL     1     -11.399  11.405  69.204  1.00  0.00    -0.288 C  
BRANCH  13  16
HETATM   16  C   UNL     1     -10.312   9.685  70.631  1.00  0.00    -0.297 C  
HETATM   17  C   UNL     1     -11.469   8.704  70.900  1.00  0.00    -0.315 C  
BRANCH  16  18
HETATM   18  C   UNL     1      -9.016   8.909  70.737  1.00  0.00    -0.209 A  
HETATM   19  C   UNL     1      -6.981   8.445  71.500  1.00  0.00    -0.075 A  
HETATM   20  C   UNL     1      -7.623   7.293  71.099  1.00  0.00    -0.080 A  
HETATM   21  N   UNL     1      -8.861   7.606  70.585  1.00  0.00    -0.144 NA 
HETATM   22  H   UNL     1      -9.530   6.958  70.169  1.00  0.00     0.000 HD 
HETATM   23  N   UNL     1      -7.861   9.465  71.235  1.00  0.00    -0.315 NA 
BRANCH  20  24
HETATM   24  C   UNL     1      -7.170   5.918  71.265  1.00  0.00    -0.078 A  
HETATM   25  C   UNL     1      -7.729   3.593  71.757  1.00  0.00    -0.061 A  
HETATM   26  C   UNL     1      -6.380   3.253  71.747  1.00  0.00    -0.015 A  
HETATM   27  C   UNL     1      -5.423   4.234  71.481  1.00  0.00    -0.007 A  
HETATM   28  C   UNL     1      -8.119   4.913  71.517  1.00  0.00    -0.111 A  
HETATM   29  C   UNL     1      -5.815   5.558  71.236  1.00  0.00    -0.024 A  
ENDBRANCH  20  24
ENDBRANCH  16  18
ENDBRANCH  13  16
BRANCH  15  30
HETATM   30  C   UNL     1     -11.428  12.244  67.871  1.00  0.00    -0.330 C  
HETATM   31  H2  UNL     1     -11.381  14.081  68.878  1.00  0.00     0.000 HD 
HETATM   32  N   UNL     1     -11.922  13.620  68.147  1.00  0.00    -0.369 NA 
HETATM   33  H1  UNL     1     -11.941  14.163  67.284  1.00  0.00     0.000 HD 
BRANCH  30  34
HETATM   34  C   UNL     1     -10.072  12.420  67.152  1.00  0.00    -0.221 C  
BRANCH  34  35
HETATM   35  C   UNL     1      -9.458  13.805  67.056  1.00  0.00    -0.255 A  
HETATM   36  C   UNL     1     -10.577  14.141  64.757  1.00  0.00    -0.439 C  
HETATM   37  C   UNL     1      -8.024  15.595  67.901  1.00  0.00    -0.151 A  
HETATM   38  C   UNL     1      -8.011  13.495  69.189  1.00  0.00     0.326 C  
HETATM   39  C   UNL     1      -9.730  14.608  65.916  1.00  0.00    -0.341 A  
HETATM   40  C   UNL     1      -8.537  14.288  68.019  1.00  0.00    -0.169 A  
HETATM   41  C   UNL     1      -8.361  16.411  66.826  1.00  0.00    -0.285 A  
HETATM   42  C   UNL     1      -9.197  15.903  65.830  1.00  0.00    -0.332 A  
BRANCH  41  43
HETATM   43  C   UNL     1      -7.842  17.796  66.651  1.00  0.00    -0.244 C  
HETATM   44  H2  UNL     1      -8.608  18.473  68.463  1.00  0.00     0.000 HD 
HETATM   45  H1  UNL     1      -7.726  19.674  67.506  1.00  0.00     0.000 HD 
HETATM   46  N   UNL     1      -8.081  18.725  67.626  1.00  0.00    -0.249 N  
HETATM   47  O   UNL     1      -7.207  18.124  65.653  1.00  0.00    -0.513 OA 
ENDBRANCH  41  43
ENDBRANCH  34  35
ENDBRANCH  30  34
ENDBRANCH  15  30
ENDBRANCH  12  13
ENDBRANCH   6  12
ENDBRANCH   2   3
TORSDOF 10
ENDMDL
MODEL      200
REMARK 921   NORMALIZED FREE ENERGY PREDICTED BY IDOCK:   -3.25 KCAL/MOL
REMARK 922        TOTAL FREE ENERGY PREDICTED BY IDOCK:   -8.02 KCAL/MOL
REMARK 923 INTER-LIGAND FREE ENERGY PREDICTED BY IDOCK:   -5.76 KCAL/MOL
REMARK 924 INTRA-LIGAND FREE ENERGY PREDICTED BY IDOCK:   -2.26 KCAL/MOL
REMARK 927      BINDING AFFINITY PREDICTED BY RF-SCORE:    0.00 PKD
ROOT
HETATM    1  C   UNL     1      -9.891   3.298  70.340  1.00  0.00     0.081 C  
HETATM    2  O   UNL     1     -10.509   4.116  71.335  1.00  0.00    -0.004 OA 
ENDROOT
BRANCH   2   3
HETATM    3  C   UNL     1     -10.480   5.473  71.132  1.00  0.00    -0.236 A  
HETATM    4  C   UNL     1     -10.891   6.090  69.947  1.00  0.00    -0.434 A  
HETATM    5  C   UNL     1     -10.929   7.484  69.841  1.00  0.00    -0.223 A  
HETATM    6  C   UNL     1     -10.523   8.303  70.899  1.00  0.00    -0.230 A  
HETATM    7  C   UNL     1     -10.051   7.683  72.067  1.00  0.00    -0.233 A  
HETATM    8  C   UNL     1      -9.528   5.740  73.486  1.00  0.00    -0.138 C  
HETATM    9  O   UNL     1     -10.073   4.566  73.862  1.00  0.00    -0.148 OA 
HETATM   10  C   UNL     1     -10.038   6.281  72.194  1.00  0.00    -0.203 A  
HETATM   11  O   UNL     1      -8.730   6.352  74.179  1.00  0.00    -0.123 OA 
BRANCH   6  12
HETATM   12  C   UNL     1     -10.615   9.815  70.830  1.00  0.00    -0.301 C  
BRANCH  12  13
HETATM   13  N   UNL     1     -10.943  10.380  69.509  1.00  0.00    -0.244 N  
HETATM   14  O   UNL     1     -10.256  11.240  67.472  1.00  0.00    -0.183 OA 
HETATM   15  C   UNL     1      -9.973  10.622  68.507  1.00  0.00    -0.167 C  
BRANCH  13  16
HETATM   16  C   UNL     1     -12.278  11.014  69.349  1.00  0.00    -0.259 C  
HETATM   17  C   UNL     1     -13.301  10.606  70.426  1.00  0.00     0.220 C  
BRANCH  16  18
HETATM   18  C   UNL     1     -12.176  12.525  69.359  1.00  0.00    -0.062 A  
HETATM   19  C   UNL     1     -11.887  14.537  70.258  1.00  0.00    -0.308 A  
HETATM   20  C   UNL     1     -11.478  14.530  68.941  1.00  0.00    -0.300 A  
HETATM   21  N   UNL     1     -11.709  13.290  68.390  1.00  0.00    -0.334 NA 
HETATM   22  H   UNL     1     -11.551  13.016  67.420  1.00  0.00     0.000 HD 
HETATM   23  N   UNL     1     -12.357  13.270  70.501  1.00  0.00    -0.339 NA 
BRANCH  20  24
HETATM   24  C   UNL     1     -10.797  15.594  68.216  1.00  0.00    -0.298 A  
HETATM   25  C   UNL     1      -9.990  16.468  66.084  1.00  0.00    -0.363 A  
HETATM   26  C   UNL     1      -9.372  17.529  66.738  1.00  0.00    -0.275 A  
HETATM   27  C   UNL     1      -9.476  17.639  68.125  1.00  0.00    -0.286 A  
HETATM   28  C   UNL     1     -10.697  15.511  66.817  1.00  0.00    -0.305 A  
HETATM   29  C   UNL     1     -10.188  16.681  68.861  1.00  0.00    -0.284 A  
ENDBRANCH  20  24
ENDBRANCH  16  18
ENDBRANCH  13  16
BRANCH  15  30
HETATM   30  C   UNL     1      -8.523  10.050  68.732  1.00  0.00    -0.126 C  
HETATM   31  H2  UNL     1      -8.540   8.954  66.946  1.00  0.00     0.000 HD 
HETATM   32  N   UNL     1      -8.337   8.808  67.934  1.00  0.00    -0.118 NA 
HETATM   33  H1  UNL     1      -7.398   8.437  68.080  1.00  0.00     0.000 HD 
BRANCH  30  34
HETATM   34  C   UNL     1      -7.357  10.983  68.337  1.00  0.00    -0.096 C  
BRANCH  34  35
HETATM   35  C   UNL     1      -6.879  12.031  69.324  1.00  0.00    -0.066 A  
HETATM   36  C   UNL     1      -7.542  13.893  67.667  1.00  0.00    -0.188 C  
HETATM   37  C   UNL     1      -5.830  12.697  71.429  1.00  0.00     0.513 A  
HETATM   38  C   UNL     1      -5.865  10.281  70.951  1.00  0.00    -0.074 C  
HETATM   39  C   UNL     1      -6.995  13.407  68.988  1.00  0.00    -0.084 A  
HETATM   40  C   UNL     1      -6.223  11.684  70.531  1.00  0.00     0.124 A  
HETATM   41  C   UNL     1      -6.025  14.042  71.134  1.00  0.00    -0.160 A  
HETATM   42  C   UNL     1      -6.589  14.388  69.905  1.00  0.00    -0.133 A  
BRANCH  41  43
HETATM   43  C   UNL     1      -5.623  15.151  72.045  1.00  0.00     0.354 C  
HETATM   44  H2  UNL     1      -6.182  14.135  73.772  1.00  0.00     0.000 HD 
HETATM   45  H1  UNL     1      -5.513  15.756  74.017  1.00  0.00     0.000 HD 
HETATM   46  N   UNL     1      -5.789  14.997  73.394  1.00  0.00     0.511 N  
HETATM   47  O   UNL     1      -5.149  16.197  71.614  1.00  0.00    -0.235 OA 
ENDBRANCH  41  43
ENDBRANCH  34  35
ENDBRANCH  30  34
ENDBRANCH  15  30
ENDBRANCH  12  13
ENDBRANCH   6  12
ENDBRANCH   2   3
TORSDOF 10
ENDMDL
MODEL      201
REMARK 921   NORMALIZED FREE ENERGY PREDICTED BY IDOCK:   -3.21 KCAL/MOL
REMARK 922        TOTAL FREE ENERGY PREDICTED BY IDOCK:   -7.95 KCAL/MOL
REMARK 923 INTER-LIGAND FREE ENERGY PREDICTED BY IDOCK:   -7.45 KCAL/MOL
REMARK 924 INTRA-LIGAND FREE ENERGY PREDICTED BY IDOCK:   -0.51 KCAL/MOL
REMARK 927      BINDING AFFINITY PREDICTED BY RF-SCORE:    0.00 PKD
ROOT
HETATM    1  C   UNL     1      -8.205   8.038  73.601  1.00  0.00    -0.227 C  
HETATM    2  O   UNL     1      -7.286   7.558  72.618  1.00  0.00    -0.070 OA 
ENDROOT
BRANCH   2   3
HETATM    3  C   UNL     1      -7.257   8.221  71.416  1.00  0.00    -0.080 A  
HETATM    4  C   UNL     1      -7.943   9.413  71.170  1.00  0.00     0.075 A  
HETATM    5  C   UNL     1      -7.792  10.089  69.956  1.00  0.00    -0.172 A  
HETATM    6  C   UNL     1      -6.981   9.579  68.938  1.00  0.00    -0.063 A  
HETATM    7  C   UNL     1      -6.340   8.350  69.161  1.00  0.00    -0.043 A  
HETATM    8  C   UNL     1      -5.725   6.388  70.515  1.00  0.00    -0.019 C  
HETATM    9  O   UNL     1      -5.313   6.090  71.764  1.00  0.00    -0.020 OA 
HETATM   10  C   UNL     1      -6.462   7.677  70.392  1.00  0.00    -0.038 A  
HETATM   11  O   UNL     1      -5.456   5.695  69.546  1.00  0.00    -0.004 OA 
BRANCH   6  12
HETATM   12  C   UNL     1      -6.752  10.326  67.639  1.00  0.00    -0.074 C  
BRANCH  12  13
HETATM   13  N   UNL     1      -7.516  11.575  67.470  1.00  0.00    -0.109 N  
HETATM   14  O   UNL     1      -8.938  12.897  66.210  1.00  0.00    -0.084 OA 
HETATM   15  C   UNL     1      -8.432  11.786  66.411  1.00  0.00    -0.081 C  
BRANCH  13  16
HETATM   16  C   UNL     1      -7.067  12.761  68.246  1.00  0.00    -0.104 C  
HETATM   17  C   UNL     1      -5.748  13.377  67.745  1.00  0.00    -0.112 C  
BRANCH  16  18
HETATM   18  C   UNL     1      -8.117  13.852  68.242  1.00  0.00    -0.150 A  
HETATM   19  C   UNL     1      -9.801  15.055  69.051  1.00  0.00    -0.236 A  
HETATM   20  C   UNL     1      -9.026  15.815  68.200  1.00  0.00    -0.180 A  
HETATM   21  N   UNL     1      -8.019  15.039  67.673  1.00  0.00    -0.147 NA 
HETATM   22  H   UNL     1      -7.329  15.326  66.978  1.00  0.00     0.000 HD 
HETATM   23  N   UNL     1      -9.234  13.805  69.043  1.00  0.00     0.149 NA 
BRANCH  20  24
HETATM   24  C   UNL     1      -9.131  17.245  67.940  1.00  0.00    -0.239 A  
HETATM   25  C   UNL     1     -10.239  19.062  66.746  1.00  0.00    -0.465 A  
HETATM   26  C   UNL     1      -9.324  19.976  67.260  1.00  0.00    -0.496 A  
HETATM   27  C   UNL     1      -8.323  19.535  68.126  1.00  0.00    -0.359 A  
HETATM   28  C   UNL     1     -10.143  17.710  67.085  1.00  0.00    -0.328 A  
HETATM   29  C   UNL     1      -8.228  18.179  68.470  1.00  0.00    -0.320 A  
ENDBRANCH  20  24
ENDBRANCH  16  18
ENDBRANCH  13  16
BRANCH  15  30
HETATM   30  C   UNL     1      -8.817  10.550  65.514  1.00  0.00    -0.184 C  
HETATM   31  H2  UNL     1      -7.663   9.212  66.641  1.00  0.00     0.000 HD 
HETATM   32  N   UNL     1      -7.799   9.475  65.665  1.00  0.00    -0.099 NA 
HETATM   33  H1  UNL     1      -8.049   8.675  65.084  1.00  0.00     0.000 HD 
BRANCH  30  34
HETATM   34  C   UNL     1     -10.178   9.887  65.822  1.00  0.00    -0.251 C  
BRANCH  34  35
HETATM   35  C   UNL     1     -10.478   9.434  67.238  1.00  0.00    -0.332 A  
HETATM   36  C   UNL     1      -9.671   7.056  66.649  1.00  0.00    -0.226 C  
HETATM   37  C   UNL     1     -11.339   9.822  69.494  1.00  0.00    -0.127 A  
HETATM   38  C   UNL     1     -11.622  11.672  67.891  1.00  0.00    -0.369 C  
HETATM   39  C   UNL     1     -10.211   8.089  67.610  1.00  0.00    -0.291 A  
HETATM   40  C   UNL     1     -11.115  10.281  68.180  1.00  0.00    -0.324 A  
HETATM   41  C   UNL     1     -10.996   8.530  69.878  1.00  0.00    -0.165 A  
HETATM   42  C   UNL     1     -10.451   7.666  68.926  1.00  0.00    -0.211 A  
BRANCH  41  43
HETATM   43  C   UNL     1     -11.216   7.994  71.250  1.00  0.00    -0.256 C  
HETATM   44  H2  UNL     1     -11.101   6.005  70.653  1.00  0.00     0.000 HD 
HETATM   45  H1  UNL     1     -11.387   6.273  72.381  1.00  0.00     0.000 HD 
HETATM   46  N   UNL     1     -11.236   6.640  71.441  1.00  0.00    -0.261 N  
HETATM   47  O   UNL     1     -11.382   8.738  72.212  1.00  0.00    -0.355 OA 
ENDBRANCH  41  43
ENDBRANCH  34  35
ENDBRANCH  30  34
ENDBRANCH  15  30
ENDBRANCH  12  13
ENDBRANCH   6  12
ENDBRANCH   2   3
TORSDOF 10
ENDMDL
MODEL      202
REMARK 921   NORMALIZED FREE ENERGY PREDICTED BY IDOCK:   -3.17 KCAL/MOL
REMARK 922        TOTAL FREE ENERGY PREDICTED BY IDOCK:   -7.89 KCAL/MOL
REMARK 923 INTER-LIGAND FREE ENERGY PREDICTED BY IDOCK:   -7.38 KCAL/MOL
REMARK 924 INTRA-LIGAND FREE ENERGY PREDICTED BY IDOCK:   -0.51 KCAL/MOL
REMARK 927      BINDING AFFINITY PREDICTED BY RF-SCORE:    0.00 PKD
ROOT
HETATM    1  C   UNL     1      -9.830   4.732  66.382  1.00  0.00    -0.219 C  
HETATM    2  O   UNL     1      -9.283   6.004  66.029  1.00  0.00    -0.161 OA 
ENDROOT
BRANCH   2   3
HETATM    3  C   UNL     1      -9.488   7.036  66.910  1.00  0.00    -0.160 A  
HETATM    4  C   UNL     1     -10.747   7.566  67.206  1.00  0.00    -0.365 A  
HETATM    5  C   UNL     1     -10.896   8.551  68.187  1.00  0.00     0.004 A  
HETATM    6  C   UNL     1      -9.792   9.063  68.876  1.00  0.00    -0.181 A  
HETATM    7  C   UNL     1      -8.521   8.575  68.535  1.00  0.00    -0.131 A  
HETATM    8  C   UNL     1      -6.966   7.116  67.303  1.00  0.00    -0.078 C  
HETATM    9  O   UNL     1      -6.847   5.826  66.928  1.00  0.00    -0.060 OA 
HETATM   10  C   UNL     1      -8.363   7.561  67.570  1.00  0.00    -0.117 A  
HETATM   11  O   UNL     1      -6.004   7.846  67.480  1.00  0.00    -0.043 OA 
BRANCH   6  12
HETATM   12  C   UNL     1      -9.937  10.084  69.987  1.00  0.00    -0.222 C  
BRANCH  12  13
HETATM   13  N   UNL     1     -11.307  10.563  70.247  1.00  0.00    -0.311 N  
HETATM   14  O   UNL     1     -12.909  12.227  70.094  1.00  0.00     0.172 OA 
HETATM   15  C   UNL     1     -11.813  11.781  69.731  1.00  0.00    -0.349 C  
BRANCH  13  16
HETATM   16  C   UNL     1     -12.062   9.908  71.346  1.00  0.00    -0.413 C  
HETATM   17  C   UNL     1     -13.520   9.562  70.990  1.00  0.00    -0.196 C  
BRANCH  16  18
HETATM   18  C   UNL     1     -11.383   8.632  71.798  1.00  0.00    -0.323 A  
HETATM   19  C   UNL     1     -10.950   6.452  71.805  1.00  0.00    -0.255 A  
HETATM   20  C   UNL     1      -9.841   7.168  72.200  1.00  0.00    -0.153 A  
HETATM   21  N   UNL     1     -10.143   8.511  72.235  1.00  0.00    -0.315 NA 
HETATM   22  H   UNL     1      -9.529   9.265  72.540  1.00  0.00     0.000 HD 
HETATM   23  N   UNL     1     -11.930   7.388  71.584  1.00  0.00    -0.293 NA 
BRANCH  20  24
HETATM   24  C   UNL     1      -8.498   6.662  72.448  1.00  0.00    -0.117 A  
HETATM   25  C   UNL     1      -6.437   5.712  71.547  1.00  0.00    -0.044 A  
HETATM   26  C   UNL     1      -5.941   5.533  72.835  1.00  0.00    -0.035 A  
HETATM   27  C   UNL     1      -6.708   5.931  73.931  1.00  0.00    -0.080 A  
HETATM   28  C   UNL     1      -7.703   6.272  71.357  1.00  0.00    -0.100 A  
HETATM   29  C   UNL     1      -7.977   6.497  73.740  1.00  0.00    -0.102 A  
ENDBRANCH  20  24
ENDBRANCH  16  18
ENDBRANCH  13  16
BRANCH  15  30
HETATM   30  C   UNL     1     -10.952  12.536  68.650  1.00  0.00    -0.255 C  
HETATM   31  H2  UNL     1     -12.375  14.055  68.396  1.00  0.00     0.000 HD 
HETATM   32  N   UNL     1     -11.829  13.411  67.824  1.00  0.00    -0.358 NA 
HETATM   33  H1  UNL     1     -11.271  13.900  67.123  1.00  0.00     0.000 HD 
BRANCH  30  34
HETATM   34  C   UNL     1      -9.834  13.454  69.193  1.00  0.00     0.351 C  
BRANCH  34  35
HETATM   35  C   UNL     1      -9.378  14.638  68.362  1.00  0.00    -0.201 A  
HETATM   36  C   UNL     1     -11.262  16.077  69.379  1.00  0.00    -0.349 C  
HETATM   37  C   UNL     1      -7.945  15.664  66.668  1.00  0.00    -0.185 A  
HETATM   38  C   UNL     1      -7.652  13.243  67.014  1.00  0.00     0.157 C  
HETATM   39  C   UNL     1     -10.062  15.877  68.483  1.00  0.00    -0.217 A  
HETATM   40  C   UNL     1      -8.354  14.524  67.389  1.00  0.00    -0.217 A  
HETATM   41  C   UNL     1      -8.561  16.898  66.853  1.00  0.00    -0.241 A  
HETATM   42  C   UNL     1      -9.630  16.990  67.746  1.00  0.00    -0.244 A  
BRANCH  41  43
HETATM   43  C   UNL     1      -8.171  18.131  66.114  1.00  0.00    -0.140 C  
HETATM   44  H2  UNL     1      -9.838  19.209  66.732  1.00  0.00     0.000 HD 
HETATM   45  H1  UNL     1      -8.711  20.076  65.676  1.00  0.00     0.000 HD 
HETATM   46  N   UNL     1      -8.979  19.232  66.182  1.00  0.00    -0.317 N  
HETATM   47  O   UNL     1      -7.143  18.181  65.445  1.00  0.00    -0.523 OA 
ENDBRANCH  41  43
ENDBRANCH  34  35
ENDBRANCH  30  34
ENDBRANCH  15  30
ENDBRANCH  12  13
ENDBRANCH   6  12
ENDBRANCH   2   3
TORSDOF 10
ENDMDL
MODEL      203
REMARK 921   NORMALIZED FREE ENERGY PREDICTED BY IDOCK:   -3.16 KCAL/MOL
REMARK 922        TOTAL FREE ENERGY PREDICTED BY IDOCK:   -7.88 KCAL/MOL
REMARK 923 INTER-LIGAND FREE ENERGY PREDICTED BY IDOCK:   -7.93 KCAL/MOL
REMARK 924 INTRA-LIGAND FREE ENERGY PREDICTED BY IDOCK:    0.05 KCAL/MOL
REMARK 927      BINDING AFFINITY PREDICTED BY RF-SCORE:    0.00 PKD
ROOT
HETATM    1  C   UNL     1      -5.792  10.869  69.618  1.00  0.00    -0.055 C  
HETATM    2  O   UNL     1      -6.591  10.162  68.668  1.00  0.00    -0.052 OA 
ENDROOT
BRANCH   2   3
HETATM    3  C   UNL     1      -7.415  10.913  67.866  1.00  0.00    -0.090 A  
HETATM    4  C   UNL     1      -8.026  12.101  68.276  1.00  0.00    -0.163 A  
HETATM    5  C   UNL     1      -8.774  12.869  67.378  1.00  0.00    -0.197 A  
HETATM    6  C   UNL     1      -8.965  12.458  66.056  1.00  0.00     0.106 A  
HETATM    7  C   UNL     1      -8.403  11.234  65.661  1.00  0.00     0.080 A  
HETATM    8  C   UNL     1      -7.068   9.194  66.010  1.00  0.00    -0.090 C  
HETATM    9  O   UNL     1      -5.893   8.815  66.552  1.00  0.00    -0.049 OA 
HETATM   10  C   UNL     1      -7.623  10.468  66.549  1.00  0.00    -0.128 A  
HETATM   11  O   UNL     1      -7.605   8.582  65.100  1.00  0.00    -0.087 OA 
BRANCH   6  12
HETATM   12  C   UNL     1      -9.717  13.304  65.049  1.00  0.00     0.094 C  
BRANCH  12  13
HETATM   13  N   UNL     1     -11.143  13.540  65.342  1.00  0.00    -0.289 N  
HETATM   14  O   UNL     1     -12.815  14.901  66.186  1.00  0.00     0.311 OA 
HETATM   15  C   UNL     1     -11.644  14.782  65.802  1.00  0.00    -0.290 C  
BRANCH  13  16
HETATM   16  C   UNL     1     -12.020  12.347  65.470  1.00  0.00    -0.391 C  
HETATM   17  C   UNL     1     -12.234  11.579  64.152  1.00  0.00     0.023 C  
BRANCH  16  18
HETATM   18  C   UNL     1     -11.476  11.370  66.491  1.00  0.00    -0.015 A  
HETATM   19  C   UNL     1     -11.307  10.391  68.478  1.00  0.00    -0.220 A  
HETATM   20  C   UNL     1     -10.968   9.510  67.473  1.00  0.00    -0.054 A  
HETATM   21  N   UNL     1     -11.033  10.148  66.256  1.00  0.00     0.138 NA 
HETATM   22  H   UNL     1     -10.787   9.754  65.348  1.00  0.00     0.000 HD 
HETATM   23  N   UNL     1     -11.595  11.575  67.846  1.00  0.00    -0.478 NA 
BRANCH  20  24
HETATM   24  C   UNL     1     -10.686   8.086  67.596  1.00  0.00    -0.203 A  
HETATM   25  C   UNL     1     -10.985   6.010  68.846  1.00  0.00    -0.395 A  
HETATM   26  C   UNL     1     -10.088   5.359  68.005  1.00  0.00    -0.224 A  
HETATM   27  C   UNL     1      -9.501   6.059  66.950  1.00  0.00    -0.146 A  
HETATM   28  C   UNL     1     -11.282   7.360  68.641  1.00  0.00     0.243 A  
HETATM   29  C   UNL     1      -9.801   7.413  66.742  1.00  0.00    -0.290 A  
ENDBRANCH  20  24
ENDBRANCH  16  18
ENDBRANCH  13  16
BRANCH  15  30
HETATM   30  C   UNL     1     -10.674  16.022  65.777  1.00  0.00    -0.301 C  
HETATM   31  H2  UNL     1     -11.892  17.108  64.461  1.00  0.00     0.000 HD 
HETATM   32  N   UNL     1     -10.915  16.831  64.550  1.00  0.00    -1.079 NA 
HETATM   33  H1  UNL     1     -10.286  17.635  64.535  1.00  0.00     0.000 HD 
BRANCH  30  34
HETATM   34  C   UNL     1     -10.801  17.006  66.961  1.00  0.00    -0.048 C  
BRANCH  34  35
HETATM   35  C   UNL     1      -9.654  17.951  67.266  1.00  0.00    -0.273 A  
HETATM   36  C   UNL     1      -8.747  16.288  69.016  1.00  0.00    -0.246 C  
HETATM   37  C   UNL     1      -8.468  20.070  66.982  1.00  0.00    -0.390 A  
HETATM   38  C   UNL     1     -10.612  19.859  65.788  1.00  0.00    -0.490 C  
HETATM   39  C   UNL     1      -8.683  17.577  68.233  1.00  0.00    -0.270 A  
HETATM   40  C   UNL     1      -9.573  19.245  66.692  1.00  0.00    -0.411 A  
HETATM   41  C   UNL     1      -7.472  19.664  67.865  1.00  0.00    -0.321 A  
HETATM   42  C   UNL     1      -7.598  18.427  68.500  1.00  0.00    -0.319 A  
BRANCH  41  43
HETATM   43  C   UNL     1      -6.288  20.499  68.210  1.00  0.00    -0.317 C  
HETATM   44  H2  UNL     1      -5.734  20.798  66.228  1.00  0.00     0.000 HD 
HETATM   45  H1  UNL     1      -4.697  21.568  67.439  1.00  0.00     0.000 HD 
HETATM   46  N   UNL     1      -5.507  20.996  67.203  1.00  0.00    -0.209 N  
HETATM   47  O   UNL     1      -5.996  20.750  69.375  1.00  0.00    -0.348 OA 
ENDBRANCH  41  43
ENDBRANCH  34  35
ENDBRANCH  30  34
ENDBRANCH  15  30
ENDBRANCH  12  13
ENDBRANCH   6  12
ENDBRANCH   2   3
TORSDOF 10
ENDMDL
MODEL      204
REMARK 921   NORMALIZED FREE ENERGY PREDICTED BY IDOCK:   -3.13 KCAL/MOL
REMARK 922        TOTAL FREE ENERGY PREDICTED BY IDOCK:   -7.83 KCAL/MOL
REMARK 923 INTER-LIGAND FREE ENERGY PREDICTED BY IDOCK:   -6.61 KCAL/MOL
REMARK 924 INTRA-LIGAND FREE ENERGY PREDICTED BY IDOCK:   -1.22 KCAL/MOL
REMARK 927      BINDING AFFINITY PREDICTED BY RF-SCORE:    0.00 PKD
ROOT
HETATM    1  C   UNL     1     -11.569   6.342  69.995  1.00  0.00    -0.308 C  
HETATM    2  O   UNL     1     -10.566   6.689  69.039  1.00  0.00    -0.203 OA 
ENDROOT
BRANCH   2   3
HETATM    3  C   UNL     1      -9.929   7.892  69.214  1.00  0.00    -0.190 A  
HETATM    4  C   UNL     1      -9.475   8.358  70.451  1.00  0.00    -0.179 A  
HETATM    5  C   UNL     1      -8.746   9.548  70.544  1.00  0.00    -0.247 A  
HETATM    6  C   UNL     1      -8.480  10.326  69.414  1.00  0.00    -0.170 A  
HETATM    7  C   UNL     1      -8.989   9.890  68.181  1.00  0.00    -0.118 A  
HETATM    8  C   UNL     1     -10.177   8.314  66.708  1.00  0.00    -0.304 C  
HETATM    9  O   UNL     1     -10.256   6.989  66.472  1.00  0.00    -0.166 OA 
HETATM   10  C   UNL     1      -9.698   8.678  68.071  1.00  0.00    -0.184 A  
HETATM   11  O   UNL     1     -10.411   9.154  65.853  1.00  0.00    -0.104 OA 
BRANCH   6  12
HETATM   12  C   UNL     1      -7.638  11.585  69.482  1.00  0.00     0.283 C  
BRANCH  12  13
HETATM   13  N   UNL     1      -6.455  11.617  68.604  1.00  0.00    -0.055 N  
HETATM   14  O   UNL     1      -5.487  12.136  66.566  1.00  0.00    -0.305 OA 
HETATM   15  C   UNL     1      -6.442  12.261  67.343  1.00  0.00    -0.157 C  
BRANCH  13  16
HETATM   16  C   UNL     1      -5.352  10.668  68.909  1.00  0.00    -0.041 C  
HETATM   17  C   UNL     1      -5.128  10.427  70.414  1.00  0.00    -0.044 C  
BRANCH  16  18
HETATM   18  C   UNL     1      -5.586   9.322  68.256  1.00  0.00    -0.038 A  
HETATM   19  C   UNL     1      -6.319   7.228  68.121  1.00  0.00    -0.044 A  
HETATM   20  C   UNL     1      -6.293   7.815  66.874  1.00  0.00    -0.054 A  
HETATM   21  N   UNL     1      -5.791   9.093  66.972  1.00  0.00    -0.045 NA 
HETATM   22  H   UNL     1      -5.614   9.739  66.203  1.00  0.00     0.000 HD 
HETATM   23  N   UNL     1      -5.838   8.182  68.984  1.00  0.00    -0.034 NA 
BRANCH  20  24
HETATM   24  C   UNL     1      -6.804   7.269  65.623  1.00  0.00    -0.056 A  
HETATM   25  C   UNL     1      -7.623   7.678  63.360  1.00  0.00    -0.119 A  
HETATM   26  C   UNL     1      -7.932   6.329  63.215  1.00  0.00    -0.098 A  
HETATM   27  C   UNL     1      -7.664   5.444  64.259  1.00  0.00    -0.086 A  
HETATM   28  C   UNL     1      -7.063   8.142  64.554  1.00  0.00    -0.077 A  
HETATM   29  C   UNL     1      -7.099   5.909  65.455  1.00  0.00    -0.069 A  
ENDBRANCH  20  24
ENDBRANCH  16  18
ENDBRANCH  13  16
BRANCH  15  30
HETATM   30  C   UNL     1      -7.670  13.174  66.970  1.00  0.00     0.096 C  
HETATM   31  H2  UNL     1      -9.041  11.592  67.079  1.00  0.00     0.000 HD 
HETATM   32  N   UNL     1      -8.781  12.339  66.436  1.00  0.00    -0.396 NA 
HETATM   33  H1  UNL     1      -9.576  12.931  66.195  1.00  0.00     0.000 HD 
BRANCH  30  34
HETATM   34  C   UNL     1      -8.281  13.994  68.128  1.00  0.00    -0.155 C  
BRANCH  34  35
HETATM   35  C   UNL     1      -8.392  15.501  67.991  1.00  0.00    -0.142 A  
HETATM   36  C   UNL     1     -10.050  15.200  66.038  1.00  0.00    -0.323 C  
HETATM   37  C   UNL     1      -7.754  17.780  68.606  1.00  0.00    -0.283 A  
HETATM   38  C   UNL     1      -6.501  15.967  69.708  1.00  0.00    -0.164 C  
HETATM   39  C   UNL     1      -9.254  16.047  67.002  1.00  0.00    -0.229 A  
HETATM   40  C   UNL     1      -7.586  16.388  68.748  1.00  0.00    -0.211 A  
HETATM   41  C   UNL     1      -8.663  18.310  67.696  1.00  0.00    -0.261 A  
HETATM   42  C   UNL     1      -9.393  17.438  66.886  1.00  0.00    -0.271 A  
BRANCH  41  43
HETATM   43  C   UNL     1      -8.875  19.772  67.503  1.00  0.00    -0.326 C  
HETATM   44  H2  UNL     1     -10.921  19.585  67.181  1.00  0.00     0.000 HD 
HETATM   45  H1  UNL     1     -10.281  21.235  67.110  1.00  0.00     0.000 HD 
HETATM   46  N   UNL     1     -10.136  20.234  67.242  1.00  0.00    -0.423 N  
HETATM   47  O   UNL     1      -7.946  20.571  67.572  1.00  0.00    -0.314 OA 
ENDBRANCH  41  43
ENDBRANCH  34  35
ENDBRANCH  30  34
ENDBRANCH  15  30
ENDBRANCH  12  13
ENDBRANCH   6  12
ENDBRANCH   2   3
TORSDOF 10
ENDMDL
MODEL      205
REMARK 921   NORMALIZED FREE ENERGY PREDICTED BY IDOCK:   -2.99 KCAL/MOL
REMARK 922        TOTAL FREE ENERGY PREDICTED BY IDOCK:   -7.60 KCAL/MOL
REMARK 923 INTER-LIGAND FREE ENERGY PREDICTED BY IDOCK:   -7.98 KCAL/MOL
REMARK 924 INTRA-LIGAND FREE ENERGY PREDICTED BY IDOCK:    0.38 KCAL/MOL
REMARK 927      BINDING AFFINITY PREDICTED BY RF-SCORE:    0.00 PKD
ROOT
HETATM    1  C   UNL     1     -14.238  15.136  70.999  1.00  0.00    -0.209 C  
HETATM    2  O   UNL     1     -12.878  14.715  71.116  1.00  0.00    -0.307 OA 
ENDROOT
BRANCH   2   3
HETATM    3  C   UNL     1     -12.422  13.817  70.184  1.00  0.00    -0.267 A  
HETATM    4  C   UNL     1     -11.955  14.180  68.918  1.00  0.00    -0.376 A  
HETATM    5  C   UNL     1     -11.412  13.224  68.053  1.00  0.00    -0.344 A  
HETATM    6  C   UNL     1     -11.352  11.874  68.410  1.00  0.00    -0.331 A  
HETATM    7  C   UNL     1     -11.877  11.500  69.656  1.00  0.00    -0.421 A  
HETATM    8  C   UNL     1     -12.915  11.942  71.845  1.00  0.00    -0.329 C  
HETATM    9  O   UNL     1     -12.807  12.801  72.878  1.00  0.00     0.159 OA 
HETATM   10  C   UNL     1     -12.399  12.458  70.547  1.00  0.00    -0.346 A  
HETATM   11  O   UNL     1     -13.337  10.803  71.973  1.00  0.00    -0.447 OA 
BRANCH   6  12
HETATM   12  C   UNL     1     -10.710  10.832  67.516  1.00  0.00    -0.264 C  
BRANCH  12  13
HETATM   13  N   UNL     1      -9.334  10.439  67.869  1.00  0.00    -0.138 N  
HETATM   14  O   UNL     1      -7.615   8.890  67.806  1.00  0.00    -0.092 OA 
HETATM   15  C   UNL     1      -8.709   9.271  67.370  1.00  0.00    -0.118 C  
BRANCH  13  16
HETATM   16  C   UNL     1      -8.708  11.117  69.034  1.00  0.00    -0.017 C  
HETATM   17  C   UNL     1      -7.792  10.208  69.874  1.00  0.00    -0.164 C  
BRANCH  16  18
HETATM   18  C   UNL     1      -7.894  12.319  68.600  1.00  0.00    -0.063 A  
HETATM   19  C   UNL     1      -6.568  13.501  67.266  1.00  0.00     0.196 A  
HETATM   20  C   UNL     1      -7.383  14.334  68.002  1.00  0.00    -0.142 A  
HETATM   21  N   UNL     1      -8.161  13.586  68.856  1.00  0.00    -0.351 NA 
HETATM   22  H   UNL     1      -8.817  13.942  69.551  1.00  0.00     0.000 HD 
HETATM   23  N   UNL     1      -6.879  12.229  67.677  1.00  0.00    -0.109 NA 
BRANCH  20  24
HETATM   24  C   UNL     1      -7.531  15.778  67.871  1.00  0.00    -0.147 A  
HETATM   25  C   UNL     1      -6.704  17.872  66.928  1.00  0.00    -0.209 A  
HETATM   26  C   UNL     1      -7.643  18.589  67.663  1.00  0.00    -0.238 A  
HETATM   27  C   UNL     1      -8.538  17.908  68.489  1.00  0.00    -0.298 A  
HETATM   28  C   UNL     1      -6.651  16.480  67.031  1.00  0.00    -0.234 A  
HETATM   29  C   UNL     1      -8.487  16.510  68.589  1.00  0.00    -0.243 A  
ENDBRANCH  20  24
ENDBRANCH  16  18
ENDBRANCH  13  16
BRANCH  15  30
HETATM   30  C   UNL     1      -9.434   8.485  66.214  1.00  0.00    -0.231 C  
HETATM   31  H2  UNL     1      -8.719   9.771  64.720  1.00  0.00     0.000 HD 
HETATM   32  N   UNL     1      -9.604   9.368  65.028  1.00  0.00    -0.453 NA 
HETATM   33  H1  UNL     1     -10.073   8.859  64.279  1.00  0.00     0.000 HD 
BRANCH  30  34
HETATM   34  C   UNL     1      -8.711   7.221  65.696  1.00  0.00    -0.092 C  
BRANCH  34  35
HETATM   35  C   UNL     1      -8.587   6.014  66.606  1.00  0.00    -0.113 A  
HETATM   36  C   UNL     1     -11.046   6.304  67.327  1.00  0.00    -0.387 C  
HETATM   37  C   UNL     1      -7.297   4.215  67.645  1.00  0.00    -0.068 A  
HETATM   38  C   UNL     1      -6.027   5.787  66.236  1.00  0.00    -0.022 C  
HETATM   39  C   UNL     1      -9.716   5.589  67.355  1.00  0.00    -0.147 A  
HETATM   40  C   UNL     1      -7.350   5.353  66.815  1.00  0.00    -0.086 A  
HETATM   41  C   UNL     1      -8.427   3.750  68.309  1.00  0.00    -0.108 A  
HETATM   42  C   UNL     1      -9.626   4.453  68.175  1.00  0.00    -0.200 A  
BRANCH  41  43
HETATM   43  C   UNL     1      -8.424   2.556  69.201  1.00  0.00    -0.062 C  
HETATM   44  H2  UNL     1      -6.513   1.956  68.639  1.00  0.00     0.000 HD 
HETATM   45  H1  UNL     1      -7.320   0.929  69.835  1.00  0.00     0.000 HD 
HETATM   46  N   UNL     1      -7.322   1.746  69.224  1.00  0.00    -0.043 N  
HETATM   47  O   UNL     1      -9.386   2.283  69.912  1.00  0.00    -0.119 OA 
ENDBRANCH  41  43
ENDBRANCH  34  35
ENDBRANCH  30  34
ENDBRANCH  15  30
ENDBRANCH  12  13
ENDBRANCH   6  12
ENDBRANCH   2   3
TORSDOF 10
ENDMDL
MODEL      206
REMARK 921   NORMALIZED FREE ENERGY PREDICTED BY IDOCK:   -2.98 KCAL/MOL
REMARK 922        TOTAL FREE ENERGY PREDICTED BY IDOCK:   -7.60 KCAL/MOL
REMARK 923 INTER-LIGAND FREE ENERGY PREDICTED BY IDOCK:   -8.36 KCAL/MOL
REMARK 924 INTRA-LIGAND FREE ENERGY PREDICTED BY IDOCK:    0.76 KCAL/MOL
REMARK 927      BINDING AFFINITY PREDICTED BY RF-SCORE:    0.00 PKD
ROOT
HETATM    1  C   UNL     1     -11.919  12.258  62.833  1.00  0.00     0.269 C  
HETATM    2  O   UNL     1     -10.538  12.252  63.199  1.00  0.00    -0.364 OA 
ENDROOT
BRANCH   2   3
HETATM    3  C   UNL     1     -10.250  12.268  64.541  1.00  0.00    -0.296 A  
HETATM    4  C   UNL     1     -10.737  13.230  65.429  1.00  0.00    -0.308 A  
HETATM    5  C   UNL     1     -10.486  13.131  66.801  1.00  0.00    -0.262 A  
HETATM    6  C   UNL     1      -9.712  12.091  67.324  1.00  0.00    -0.190 A  
HETATM    7  C   UNL     1      -9.170  11.159  66.424  1.00  0.00    -0.199 A  
HETATM    8  C   UNL     1      -8.823  10.179  64.192  1.00  0.00    -0.222 C  
HETATM    9  O   UNL     1      -9.531   9.855  63.091  1.00  0.00    -0.271 OA 
HETATM   10  C   UNL     1      -9.443  11.233  65.045  1.00  0.00    -0.237 A  
HETATM   11  O   UNL     1      -7.790   9.608  64.508  1.00  0.00    -0.122 OA 
BRANCH   6  12
HETATM   12  C   UNL     1      -9.479  11.928  68.813  1.00  0.00     0.009 C  
BRANCH  12  13
HETATM   13  N   UNL     1      -8.389  11.013  69.198  1.00  0.00    -0.083 N  
HETATM   14  O   UNL     1      -7.658   9.142  70.348  1.00  0.00    -0.084 OA 
HETATM   15  C   UNL     1      -8.605   9.806  69.905  1.00  0.00    -0.218 C  
BRANCH  13  16
HETATM   16  C   UNL     1      -7.001  11.538  69.127  1.00  0.00    -0.113 C  
HETATM   17  C   UNL     1      -6.094  10.785  68.136  1.00  0.00    -0.050 C  
BRANCH  16  18
HETATM   18  C   UNL     1      -6.984  13.004  68.746  1.00  0.00    -0.103 A  
HETATM   19  C   UNL     1      -6.806  14.747  67.380  1.00  0.00    -0.070 A  
HETATM   20  C   UNL     1      -7.634  15.045  68.441  1.00  0.00    -0.115 A  
HETATM   21  N   UNL     1      -7.692  13.971  69.300  1.00  0.00    -0.343 NA 
HETATM   22  H   UNL     1      -8.187  13.929  70.191  1.00  0.00     0.000 HD 
HETATM   23  N   UNL     1      -6.375  13.462  67.602  1.00  0.00    -0.190 NA 
BRANCH  20  24
HETATM   24  C   UNL     1      -8.440  16.243  68.631  1.00  0.00    -0.221 A  
HETATM   25  C   UNL     1     -10.618  17.222  69.140  1.00  0.00    -0.209 A  
HETATM   26  C   UNL     1     -10.120  18.496  68.882  1.00  0.00    -0.348 A  
HETATM   27  C   UNL     1      -8.782  18.652  68.517  1.00  0.00    -0.362 A  
HETATM   28  C   UNL     1      -9.784  16.108  69.017  1.00  0.00    -0.248 A  
HETATM   29  C   UNL     1      -7.945  17.534  68.397  1.00  0.00    -0.261 A  
ENDBRANCH  20  24
ENDBRANCH  16  18
ENDBRANCH  13  16
BRANCH  15  30
HETATM   30  C   UNL     1     -10.090   9.312  70.083  1.00  0.00    -0.213 C  
HETATM   31  H2  UNL     1     -10.782  10.396  68.428  1.00  0.00     0.000 HD 
HETATM   32  N   UNL     1     -11.023  10.254  69.409  1.00  0.00    -0.233 NA 
HETATM   33  H1  UNL     1     -11.985   9.934  69.524  1.00  0.00     0.000 HD 
BRANCH  30  34
HETATM   34  C   UNL     1     -10.412   7.915  69.506  1.00  0.00    -0.226 C  
BRANCH  34  35
HETATM   35  C   UNL     1     -10.437   6.717  70.436  1.00  0.00    -0.249 A  
HETATM   36  C   UNL     1      -8.921   5.418  68.804  1.00  0.00    -0.127 C  
HETATM   37  C   UNL     1     -11.211   5.557  72.445  1.00  0.00    -0.305 A  
HETATM   38  C   UNL     1     -12.218   7.763  72.010  1.00  0.00    -0.342 C  
HETATM   39  C   UNL     1      -9.705   5.551  70.087  1.00  0.00    -0.242 A  
HETATM   40  C   UNL     1     -11.252   6.682  71.596  1.00  0.00    -0.306 A  
HETATM   41  C   UNL     1     -10.425   4.450  72.143  1.00  0.00    -0.161 A  
HETATM   42  C   UNL     1      -9.692   4.447  70.954  1.00  0.00    -0.267 A  
BRANCH  41  43
HETATM   43  C   UNL     1     -10.350   3.235  73.002  1.00  0.00    -0.162 C  
HETATM   44  H2  UNL     1      -8.397   2.782  72.451  1.00  0.00     0.000 HD 
HETATM   45  H1  UNL     1      -9.146   1.669  73.607  1.00  0.00     0.000 HD 
HETATM   46  N   UNL     1      -9.197   2.501  73.019  1.00  0.00    -0.087 N  
HETATM   47  O   UNL     1     -11.300   2.878  73.693  1.00  0.00    -0.228 OA 
ENDBRANCH  41  43
ENDBRANCH  34  35
ENDBRANCH  30  34
ENDBRANCH  15  30
ENDBRANCH  12  13
ENDBRANCH   6  12
ENDBRANCH   2   3
TORSDOF 10
ENDMDL
MODEL      207
REMARK 921   NORMALIZED FREE ENERGY PREDICTED BY IDOCK:   -2.96 KCAL/MOL
REMARK 922        TOTAL FREE ENERGY PREDICTED BY IDOCK:   -7.57 KCAL/MOL
REMARK 923 INTER-LIGAND FREE ENERGY PREDICTED BY IDOCK:   -5.87 KCAL/MOL
REMARK 924 INTRA-LIGAND FREE ENERGY PREDICTED BY IDOCK:   -1.69 KCAL/MOL
REMARK 927      BINDING AFFINITY PREDICTED BY RF-SCORE:    0.00 PKD
ROOT
HETATM    1  C   UNL     1     -12.100  12.600  65.394  1.00  0.00    -0.462 C  
HETATM    2  O   UNL     1     -10.754  12.232  65.700  1.00  0.00    -0.253 OA 
ENDROOT
BRANCH   2   3
HETATM    3  C   UNL     1     -10.192  11.238  64.939  1.00  0.00    -0.286 A  
HETATM    4  C   UNL     1      -9.867  11.383  63.588  1.00  0.00    -0.380 A  
HETATM    5  C   UNL     1      -9.205  10.363  62.897  1.00  0.00    -0.319 A  
HETATM    6  C   UNL     1      -8.881   9.155  63.521  1.00  0.00    -0.086 A  
HETATM    7  C   UNL     1      -9.262   8.985  64.862  1.00  0.00    -0.056 A  
HETATM    8  C   UNL     1     -10.245   9.724  66.995  1.00  0.00    -0.229 C  
HETATM    9  O   UNL     1     -10.241  10.798  67.811  1.00  0.00    -0.172 OA 
HETATM   10  C   UNL     1      -9.901  10.018  65.575  1.00  0.00    -0.373 A  
HETATM   11  O   UNL     1     -10.444   8.588  67.396  1.00  0.00    -0.262 OA 
BRANCH   6  12
HETATM   12  C   UNL     1      -8.108   8.062  62.811  1.00  0.00    -0.139 C  
BRANCH  12  13
HETATM   13  N   UNL     1      -6.887   7.590  63.490  1.00  0.00    -0.057 N  
HETATM   14  O   UNL     1      -5.860   6.179  65.010  1.00  0.00    -0.024 OA 
HETATM   15  C   UNL     1      -6.860   6.455  64.336  1.00  0.00    -0.042 C  
BRANCH  13  16
HETATM   16  C   UNL     1      -5.732   8.524  63.544  1.00  0.00    -0.071 C  
HETATM   17  C   UNL     1      -5.672   9.520  62.371  1.00  0.00    -0.085 C  
BRANCH  16  18
HETATM   18  C   UNL     1      -5.730   9.325  64.830  1.00  0.00    -0.063 A  
HETATM   19  C   UNL     1      -6.149  11.073  66.136  1.00  0.00    -0.119 A  
HETATM   20  C   UNL     1      -6.125   9.909  66.875  1.00  0.00    -0.063 A  
HETATM   21  N   UNL     1      -5.817   8.846  66.057  1.00  0.00    -0.050 NA 
HETATM   22  H   UNL     1      -5.682   7.876  66.343  1.00  0.00     0.000 HD 
HETATM   23  N   UNL     1      -5.866  10.693  64.847  1.00  0.00    -0.100 NA 
BRANCH  20  24
HETATM   24  C   UNL     1      -6.471   9.741  68.280  1.00  0.00    -0.056 A  
HETATM   25  C   UNL     1      -7.760   8.543  69.972  1.00  0.00    -0.086 A  
HETATM   26  C   UNL     1      -7.316   9.424  70.953  1.00  0.00    -0.095 A  
HETATM   27  C   UNL     1      -6.438  10.453  70.609  1.00  0.00    -0.036 A  
HETATM   28  C   UNL     1      -7.339   8.700  68.649  1.00  0.00    -0.081 A  
HETATM   29  C   UNL     1      -6.013  10.608  69.282  1.00  0.00    -0.042 A  
ENDBRANCH  20  24
ENDBRANCH  16  18
ENDBRANCH  13  16
BRANCH  15  30
HETATM   30  C   UNL     1      -8.134   5.530  64.367  1.00  0.00    -0.124 C  
HETATM   31  H2  UNL     1      -7.974   5.027  62.338  1.00  0.00     0.000 HD 
HETATM   32  N   UNL     1      -8.679   5.369  62.991  1.00  0.00    -0.316 NA 
HETATM   33  H1  UNL     1      -9.504   4.769  63.011  1.00  0.00     0.000 HD 
BRANCH  30  34
HETATM   34  C   UNL     1      -7.918   4.097  64.904  1.00  0.00    -0.093 C  
BRANCH  34  35
HETATM   35  C   UNL     1      -8.320   3.772  66.330  1.00  0.00    -0.105 A  
HETATM   36  C   UNL     1      -6.293   2.190  66.540  1.00  0.00    -0.024 C  
HETATM   37  C   UNL     1      -9.835   3.947  68.241  1.00  0.00    -0.028 A  
HETATM   38  C   UNL     1     -10.567   5.062  66.169  1.00  0.00    -0.321 C  
HETATM   39  C   UNL     1      -7.520   2.878  67.091  1.00  0.00    -0.069 A  
HETATM   40  C   UNL     1      -9.526   4.251  66.899  1.00  0.00    -0.205 A  
HETATM   41  C   UNL     1      -9.004   3.140  69.011  1.00  0.00    -0.181 A  
HETATM   42  C   UNL     1      -7.861   2.594  68.422  1.00  0.00    -0.057 A  
BRANCH  41  43
HETATM   43  C   UNL     1      -9.286   2.784  70.429  1.00  0.00    -0.147 C  
HETATM   44  H2  UNL     1      -7.875   1.258  70.485  1.00  0.00     0.000 HD 
HETATM   45  H1  UNL     1      -8.778   1.524  71.985  1.00  0.00     0.000 HD 
HETATM   46  N   UNL     1      -8.584   1.767  71.014  1.00  0.00    -0.050 N  
HETATM   47  O   UNL     1     -10.135   3.381  71.084  1.00  0.00    -0.070 OA 
ENDBRANCH  41  43
ENDBRANCH  34  35
ENDBRANCH  30  34
ENDBRANCH  15  30
ENDBRANCH  12  13
ENDBRANCH   6  12
ENDBRANCH   2   3
TORSDOF 10
ENDMDL
MODEL      208
REMARK 921   NORMALIZED FREE ENERGY PREDICTED BY IDOCK:   -2.90 KCAL/MOL
REMARK 922        TOTAL FREE ENERGY PREDICTED BY IDOCK:   -7.46 KCAL/MOL
REMARK 923 INTER-LIGAND FREE ENERGY PREDICTED BY IDOCK:   -5.99 KCAL/MOL
REMARK 924 INTRA-LIGAND FREE ENERGY PREDICTED BY IDOCK:   -1.47 KCAL/MOL
REMARK 927      BINDING AFFINITY PREDICTED BY RF-SCORE:    0.00 PKD
ROOT
HETATM    1  C   UNL     1     -12.330  13.425  64.330  1.00  0.00    -0.341 C  
HETATM    2  O   UNL     1     -12.731  13.490  65.700  1.00  0.00    -0.480 OA 
ENDROOT
BRANCH   2   3
HETATM    3  C   UNL     1     -12.038  12.707  66.589  1.00  0.00    -0.197 A  
HETATM    4  C   UNL     1     -11.677  11.380  66.339  1.00  0.00     0.268 A  
HETATM    5  C   UNL     1     -10.885  10.670  67.246  1.00  0.00    -0.345 A  
HETATM    6  C   UNL     1     -10.460  11.248  68.446  1.00  0.00    -0.219 A  
HETATM    7  C   UNL     1     -10.874  12.560  68.726  1.00  0.00    -0.276 A  
HETATM    8  C   UNL     1     -12.013  14.681  68.208  1.00  0.00    -0.247 C  
HETATM    9  O   UNL     1     -12.154  15.548  67.185  1.00  0.00     0.254 OA 
HETATM   10  C   UNL     1     -11.646  13.294  67.805  1.00  0.00    -0.380 A  
HETATM   11  O   UNL     1     -12.107  15.016  69.379  1.00  0.00    -0.295 OA 
BRANCH   6  12
HETATM   12  C   UNL     1      -9.549  10.520  69.415  1.00  0.00    -0.148 C  
BRANCH  12  13
HETATM   13  N   UNL     1      -8.312   9.962  68.840  1.00  0.00    -0.117 N  
HETATM   14  O   UNL     1      -6.210  10.278  67.924  1.00  0.00    -0.058 OA 
HETATM   15  C   UNL     1      -7.171  10.747  68.548  1.00  0.00    -0.088 C  
BRANCH  13  16
HETATM   16  C   UNL     1      -8.387   8.599  68.250  1.00  0.00    -0.127 C  
HETATM   17  C   UNL     1      -7.716   8.473  66.870  1.00  0.00    -0.091 C  
BRANCH  16  18
HETATM   18  C   UNL     1      -7.759   7.568  69.165  1.00  0.00    -0.113 A  
HETATM   19  C   UNL     1      -7.486   6.417  71.045  1.00  0.00    -0.085 A  
HETATM   20  C   UNL     1      -7.110   5.662  69.955  1.00  0.00    -0.067 A  
HETATM   21  N   UNL     1      -7.241   6.408  68.806  1.00  0.00    -0.082 NA 
HETATM   22  H   UNL     1      -6.987   6.120  67.861  1.00  0.00     0.000 HD 
HETATM   23  N   UNL     1      -7.865   7.634  70.534  1.00  0.00    -0.093 NA 
BRANCH  20  24
HETATM   24  C   UNL     1      -6.731   4.255  69.936  1.00  0.00    -0.034 A  
HETATM   25  C   UNL     1      -5.205   2.505  70.689  1.00  0.00    -0.004 A  
HETATM   26  C   UNL     1      -5.830   1.583  69.855  1.00  0.00    -0.018 A  
HETATM   27  C   UNL     1      -6.914   1.984  69.074  1.00  0.00    -0.036 A  
HETATM   28  C   UNL     1      -5.654   3.827  70.729  1.00  0.00    -0.012 A  
HETATM   29  C   UNL     1      -7.367   3.311  69.117  1.00  0.00    -0.049 A  
ENDBRANCH  20  24
ENDBRANCH  16  18
ENDBRANCH  13  16
BRANCH  15  30
HETATM   30  C   UNL     1      -7.144  12.231  69.073  1.00  0.00    -0.051 C  
HETATM   31  H2  UNL     1      -5.469  11.904  70.290  1.00  0.00     0.000 HD 
HETATM   32  N   UNL     1      -6.405  12.301  70.364  1.00  0.00    -0.493 NA 
HETATM   33  H1  UNL     1      -6.389  13.262  70.703  1.00  0.00     0.000 HD 
BRANCH  30  34
HETATM   34  C   UNL     1      -6.469  13.266  68.146  1.00  0.00    -0.112 C  
BRANCH  34  35
HETATM   35  C   UNL     1      -7.189  14.565  67.836  1.00  0.00    -0.169 A  
HETATM   36  C   UNL     1      -8.681  13.332  66.132  1.00  0.00     0.499 C  
HETATM   37  C   UNL     1      -7.499  16.977  68.091  1.00  0.00    -0.195 A  
HETATM   38  C   UNL     1      -5.563  16.002  69.262  1.00  0.00    -0.116 C  
HETATM   39  C   UNL     1      -8.248  14.564  66.890  1.00  0.00    -0.073 A  
HETATM   40  C   UNL     1      -6.773  15.805  68.384  1.00  0.00    -0.116 A  
HETATM   41  C   UNL     1      -8.591  16.956  67.229  1.00  0.00    -0.212 A  
HETATM   42  C   UNL     1      -8.945  15.752  66.619  1.00  0.00    -0.313 A  
BRANCH  41  43
HETATM   43  C   UNL     1      -9.387  18.166  66.882  1.00  0.00    -0.278 C  
HETATM   44  H2  UNL     1     -10.950  17.690  68.169  1.00  0.00     0.000 HD 
HETATM   45  H1  UNL     1     -11.142  19.192  67.250  1.00  0.00     0.000 HD 
HETATM   46  N   UNL     1     -10.597  18.363  67.488  1.00  0.00    -0.424 N  
HETATM   47  O   UNL     1      -8.984  18.989  66.066  1.00  0.00    -0.456 OA 
ENDBRANCH  41  43
ENDBRANCH  34  35
ENDBRANCH  30  34
ENDBRANCH  15  30
ENDBRANCH  12  13
ENDBRANCH   6  12
ENDBRANCH   2   3
TORSDOF 10
ENDMDL
MODEL      209
REMARK 921   NORMALIZED FREE ENERGY PREDICTED BY IDOCK:   -2.73 KCAL/MOL
REMARK 922        TOTAL FREE ENERGY PREDICTED BY IDOCK:   -7.20 KCAL/MOL
REMARK 923 INTER-LIGAND FREE ENERGY PREDICTED BY IDOCK:   -7.80 KCAL/MOL
REMARK 924 INTRA-LIGAND FREE ENERGY PREDICTED BY IDOCK:    0.59 KCAL/MOL
REMARK 927      BINDING AFFINITY PREDICTED BY RF-SCORE:    0.00 PKD
ROOT
HETATM    1  C   UNL     1     -13.045  12.285  63.815  1.00  0.00    -0.038 C  
HETATM    2  O   UNL     1     -11.781  12.737  64.304  1.00  0.00    -0.335 OA 
ENDROOT
BRANCH   2   3
HETATM    3  C   UNL     1     -10.987  11.808  64.928  1.00  0.00    -0.300 A  
HETATM    4  C   UNL     1     -10.144  10.923  64.249  1.00  0.00    -0.413 A  
HETATM    5  C   UNL     1      -9.287  10.069  64.950  1.00  0.00    -0.324 A  
HETATM    6  C   UNL     1      -9.271  10.045  66.347  1.00  0.00    -0.191 A  
HETATM    7  C   UNL     1     -10.161  10.888  67.030  1.00  0.00    -0.256 A  
HETATM    8  C   UNL     1     -11.897  12.629  67.168  1.00  0.00    -0.330 C  
HETATM    9  O   UNL     1     -12.193  13.830  66.630  1.00  0.00    -0.426 OA 
HETATM   10  C   UNL     1     -11.007  11.774  66.334  1.00  0.00    -0.341 A  
HETATM   11  O   UNL     1     -12.270  12.292  68.281  1.00  0.00    -0.315 OA 
BRANCH   6  12
HETATM   12  C   UNL     1      -8.307   9.173  67.128  1.00  0.00    -0.117 C  
BRANCH  12  13
HETATM   13  N   UNL     1      -8.323   9.345  68.592  1.00  0.00    -0.116 N  
HETATM   14  O   UNL     1      -7.423  10.282  70.508  1.00  0.00    -0.250 OA 
HETATM   15  C   UNL     1      -7.497  10.272  69.272  1.00  0.00    -0.112 C  
BRANCH  13  16
HETATM   16  C   UNL     1      -8.989   8.288  69.396  1.00  0.00    -0.147 C  
HETATM   17  C   UNL     1     -10.526   8.387  69.417  1.00  0.00    -0.222 C  
BRANCH  16  18
HETATM   18  C   UNL     1      -8.623   6.904  68.899  1.00  0.00    -0.131 A  
HETATM   19  C   UNL     1      -8.328   4.707  69.039  1.00  0.00    -0.080 A  
HETATM   20  C   UNL     1      -8.647   5.072  67.749  1.00  0.00    -0.103 A  
HETATM   21  N   UNL     1      -8.778   6.440  67.673  1.00  0.00    -0.115 NA 
HETATM   22  H   UNL     1      -8.960   6.989  66.833  1.00  0.00     0.000 HD 
HETATM   23  N   UNL     1      -8.284   5.880  69.751  1.00  0.00    -0.111 NA 
BRANCH  20  24
HETATM   24  C   UNL     1      -8.927   4.195  66.620  1.00  0.00    -0.128 A  
HETATM   25  C   UNL     1      -9.898   3.918  64.397  1.00  0.00    -0.188 A  
HETATM   26  C   UNL     1      -9.643   2.551  64.442  1.00  0.00    -0.128 A  
HETATM   27  C   UNL     1      -9.017   2.003  65.562  1.00  0.00    -0.116 A  
HETATM   28  C   UNL     1      -9.541   4.731  65.476  1.00  0.00    -0.172 A  
HETATM   29  C   UNL     1      -8.656   2.820  66.643  1.00  0.00    -0.113 A  
ENDBRANCH  20  24
ENDBRANCH  16  18
ENDBRANCH  13  16
BRANCH  15  30
HETATM   30  C   UNL     1      -6.698  11.319  68.409  1.00  0.00    -0.061 C  
HETATM   31  H2  UNL     1      -6.813  10.159  66.666  1.00  0.00     0.000 HD 
HETATM   32  N   UNL     1      -6.109  10.650  67.216  1.00  0.00    -0.053 NA 
HETATM   33  H1  UNL     1      -5.591  11.328  66.657  1.00  0.00     0.000 HD 
BRANCH  30  34
HETATM   34  C   UNL     1      -7.514  12.511  67.862  1.00  0.00    -0.120 C  
BRANCH  34  35
HETATM   35  C   UNL     1      -7.145  13.920  68.287  1.00  0.00    -0.108 A  
HETATM   36  C   UNL     1      -8.810  14.876  66.566  1.00  0.00    -0.256 C  
HETATM   37  C   UNL     1      -5.823  15.503  69.599  1.00  0.00    -0.128 A  
HETATM   38  C   UNL     1      -5.207  13.128  69.823  1.00  0.00    -0.085 C  
HETATM   39  C   UNL     1      -7.789  15.024  67.668  1.00  0.00    -0.186 A  
HETATM   40  C   UNL     1      -6.102  14.177  69.212  1.00  0.00    -0.101 A  
HETATM   41  C   UNL     1      -6.517  16.578  69.054  1.00  0.00    -0.182 A  
HETATM   42  C   UNL     1      -7.482  16.331  68.076  1.00  0.00    -0.144 A  
BRANCH  41  43
HETATM   43  C   UNL     1      -6.257  17.998  69.424  1.00  0.00    -0.250 C  
HETATM   44  H2  UNL     1      -7.267  18.769  67.778  1.00  0.00     0.000 HD 
HETATM   45  H1  UNL     1      -6.559  19.966  68.874  1.00  0.00     0.000 HD 
HETATM   46  N   UNL     1      -6.737  18.994  68.620  1.00  0.00    -0.267 N  
HETATM   47  O   UNL     1      -5.621  18.293  70.431  1.00  0.00    -0.238 OA 
ENDBRANCH  41  43
ENDBRANCH  34  35
ENDBRANCH  30  34
ENDBRANCH  15  30
ENDBRANCH  12  13
ENDBRANCH   6  12
ENDBRANCH   2   3
TORSDOF 10
ENDMDL
MODEL      210
REMARK 921   NORMALIZED FREE ENERGY PREDICTED BY IDOCK:   -2.72 KCAL/MOL
REMARK 922        TOTAL FREE ENERGY PREDICTED BY IDOCK:   -7.17 KCAL/MOL
REMARK 923 INTER-LIGAND FREE ENERGY PREDICTED BY IDOCK:   -7.86 KCAL/MOL
REMARK 924 INTRA-LIGAND FREE ENERGY PREDICTED BY IDOCK:    0.69 KCAL/MOL
REMARK 927      BINDING AFFINITY PREDICTED BY RF-SCORE:    0.00 PKD
ROOT
HETATM    1  C   UNL     1      -5.473  12.931  70.948  1.00  0.00    -0.185 C  
HETATM    2  O   UNL     1      -5.631  11.517  71.077  1.00  0.00    -0.292 OA 
ENDROOT
BRANCH   2   3
HETATM    3  C   UNL     1      -6.592  10.925  70.296  1.00  0.00    -0.060 A  
HETATM    4  C   UNL     1      -6.967  11.396  69.034  1.00  0.00    -0.106 A  
HETATM    5  C   UNL     1      -7.881  10.688  68.248  1.00  0.00    -0.113 A  
HETATM    6  C   UNL     1      -8.477   9.511  68.710  1.00  0.00    -0.122 A  
HETATM    7  C   UNL     1      -8.147   9.071  70.002  1.00  0.00    -0.124 A  
HETATM    8  C   UNL     1      -6.927   9.189  72.137  1.00  0.00     0.299 C  
HETATM    9  O   UNL     1      -5.678   9.404  72.596  1.00  0.00    -0.237 OA 
HETATM   10  C   UNL     1      -7.204   9.760  70.789  1.00  0.00    -0.018 A  
HETATM   11  O   UNL     1      -7.749   8.518  72.743  1.00  0.00    -0.294 OA 
BRANCH   6  12
HETATM   12  C   UNL     1      -9.422   8.694  67.851  1.00  0.00    -0.139 C  
BRANCH  12  13
HETATM   13  N   UNL     1     -10.169   9.442  66.824  1.00  0.00    -0.250 N  
HETATM   14  O   UNL     1     -10.290  10.347  64.697  1.00  0.00    -0.314 OA 
HETATM   15  C   UNL     1      -9.720   9.585  65.489  1.00  0.00    -0.273 C  
BRANCH  13  16
HETATM   16  C   UNL     1     -11.256  10.342  67.291  1.00  0.00    -0.075 C  
HETATM   17  C   UNL     1     -11.327  10.502  68.821  1.00  0.00    -0.310 C  
BRANCH  16  18
HETATM   18  C   UNL     1     -11.123  11.725  66.688  1.00  0.00    -0.310 A  
HETATM   19  C   UNL     1     -11.840  13.642  65.821  1.00  0.00    -0.371 A  
HETATM   20  C   UNL     1     -10.636  13.822  66.467  1.00  0.00    -0.279 A  
HETATM   21  N   UNL     1     -10.186  12.616  66.955  1.00  0.00    -0.225 NA 
HETATM   22  H   UNL     1      -9.301  12.444  67.431  1.00  0.00     0.000 HD 
HETATM   23  N   UNL     1     -12.122  12.303  65.940  1.00  0.00    -0.620 NA 
BRANCH  20  24
HETATM   24  C   UNL     1      -9.946  15.078  66.729  1.00  0.00    -0.254 A  
HETATM   25  C   UNL     1      -7.834  16.262  67.035  1.00  0.00    -0.253 A  
HETATM   26  C   UNL     1      -8.519  17.426  67.368  1.00  0.00    -0.215 A  
HETATM   27  C   UNL     1      -9.915  17.429  67.367  1.00  0.00    -0.305 A  
HETATM   28  C   UNL     1      -8.542  15.101  66.717  1.00  0.00    -0.297 A  
HETATM   29  C   UNL     1     -10.626  16.264  67.045  1.00  0.00    -0.284 A  
ENDBRANCH  20  24
ENDBRANCH  16  18
ENDBRANCH  13  16
BRANCH  15  30
HETATM   30  C   UNL     1      -8.490   8.716  65.029  1.00  0.00    -0.173 C  
HETATM   31  H2  UNL     1      -7.117   9.839  66.146  1.00  0.00     0.000 HD 
HETATM   32  N   UNL     1      -7.230   9.491  65.194  1.00  0.00    -0.104 NA 
HETATM   33  H1  UNL     1      -6.434   8.927  64.896  1.00  0.00     0.000 HD 
BRANCH  30  34
HETATM   34  C   UNL     1      -8.273   7.391  65.794  1.00  0.00    -0.135 C  
BRANCH  34  35
HETATM   35  C   UNL     1      -8.659   6.081  65.132  1.00  0.00    -0.073 A  
HETATM   36  C   UNL     1      -6.886   6.484  63.302  1.00  0.00    -0.046 C  
HETATM   37  C   UNL     1     -10.049   4.078  64.954  1.00  0.00    -0.214 A  
HETATM   38  C   UNL     1     -10.691   5.694  66.700  1.00  0.00    -0.339 C  
HETATM   39  C   UNL     1      -7.972   5.666  63.960  1.00  0.00    -0.121 A  
HETATM   40  C   UNL     1      -9.755   5.305  65.584  1.00  0.00    -0.031 A  
HETATM   41  C   UNL     1      -9.317   3.632  63.858  1.00  0.00    -0.134 A  
HETATM   42  C   UNL     1      -8.295   4.441  63.357  1.00  0.00    -0.104 A  
BRANCH  41  43
HETATM   43  C   UNL     1      -9.591   2.349  63.154  1.00  0.00    -0.092 C  
HETATM   44  H2  UNL     1     -11.622   2.364  63.600  1.00  0.00     0.000 HD 
HETATM   45  H1  UNL     1     -11.054   0.978  62.655  1.00  0.00     0.000 HD 
HETATM   46  N   UNL     1     -10.867   1.857  63.137  1.00  0.00    -0.199 N  
HETATM   47  O   UNL     1      -8.699   1.722  62.591  1.00  0.00    -0.071 OA 
ENDBRANCH  41  43
ENDBRANCH  34  35
ENDBRANCH  30  34
ENDBRANCH  15  30
ENDBRANCH  12  13
ENDBRANCH   6  12
ENDBRANCH   2   3
TORSDOF 10
ENDMDL
MODEL      211
REMARK 921   NORMALIZED FREE ENERGY PREDICTED BY IDOCK:   -2.71 KCAL/MOL
REMARK 922        TOTAL FREE ENERGY PREDICTED BY IDOCK:   -7.16 KCAL/MOL
REMARK 923 INTER-LIGAND FREE ENERGY PREDICTED BY IDOCK:   -6.70 KCAL/MOL
REMARK 924 INTRA-LIGAND FREE ENERGY PREDICTED BY IDOCK:   -0.46 KCAL/MOL
REMARK 927      BINDING AFFINITY PREDICTED BY RF-SCORE:    0.00 PKD
ROOT
HETATM    1  C   UNL     1      -9.437   2.677  69.789  1.00  0.00    -0.075 C  
HETATM    2  O   UNL     1      -9.375   3.818  70.646  1.00  0.00    -0.124 OA 
ENDROOT
BRANCH   2   3
HETATM    3  C   UNL     1      -8.523   4.829  70.275  1.00  0.00    -0.083 A  
HETATM    4  C   UNL     1      -7.258   4.615  69.722  1.00  0.00    -0.054 A  
HETATM    5  C   UNL     1      -6.481   5.688  69.274  1.00  0.00    -0.045 A  
HETATM    6  C   UNL     1      -6.926   7.007  69.398  1.00  0.00    -0.066 A  
HETATM    7  C   UNL     1      -8.171   7.227  70.009  1.00  0.00    -0.132 A  
HETATM    8  C   UNL     1     -10.279   6.509  71.059  1.00  0.00    -0.189 C  
HETATM    9  O   UNL     1     -11.258   5.599  70.880  1.00  0.00    -0.199 OA 
HETATM   10  C   UNL     1      -8.974   6.151  70.436  1.00  0.00    -0.151 A  
HETATM   11  O   UNL     1     -10.461   7.575  71.626  1.00  0.00    -0.200 OA 
BRANCH   6  12
HETATM   12  C   UNL     1      -6.130   8.181  68.862  1.00  0.00    -0.040 C  
BRANCH  12  13
HETATM   13  N   UNL     1      -6.701   8.864  67.687  1.00  0.00    -0.065 N  
HETATM   14  O   UNL     1      -8.157  10.423  66.788  1.00  0.00    -0.116 OA 
HETATM   15  C   UNL     1      -7.576   9.973  67.784  1.00  0.00    -0.090 C  
BRANCH  13  16
HETATM   16  C   UNL     1      -6.612   8.163  66.379  1.00  0.00    -0.051 C  
HETATM   17  C   UNL     1      -5.226   7.563  66.079  1.00  0.00    -0.025 C  
BRANCH  16  18
HETATM   18  C   UNL     1      -7.629   7.044  66.284  1.00  0.00    -0.092 A  
HETATM   19  C   UNL     1      -9.659   6.142  66.215  1.00  0.00    -0.085 A  
HETATM   20  C   UNL     1      -8.760   5.369  65.511  1.00  0.00    -0.154 A  
HETATM   21  N   UNL     1      -7.501   5.918  65.606  1.00  0.00    -0.079 NA 
HETATM   22  H   UNL     1      -6.638   5.530  65.226  1.00  0.00     0.000 HD 
HETATM   23  N   UNL     1      -8.923   7.183  66.727  1.00  0.00    -0.131 NA 
BRANCH  20  24
HETATM   24  C   UNL     1      -9.046   4.206  64.681  1.00  0.00    -0.146 A  
HETATM   25  C   UNL     1      -8.197   2.301  63.414  1.00  0.00    -0.073 A  
HETATM   26  C   UNL     1      -9.480   2.017  62.955  1.00  0.00    -0.091 A  
HETATM   27  C   UNL     1     -10.551   2.812  63.368  1.00  0.00    -0.224 A  
HETATM   28  C   UNL     1      -7.984   3.384  64.270  1.00  0.00    -0.086 A  
HETATM   29  C   UNL     1     -10.337   3.897  64.230  1.00  0.00    -0.245 A  
ENDBRANCH  20  24
ENDBRANCH  16  18
ENDBRANCH  13  16
BRANCH  15  30
HETATM   30  C   UNL     1      -7.761  10.643  69.197  1.00  0.00    -0.138 C  
HETATM   31  H2  UNL     1      -5.765  11.275  69.299  1.00  0.00     0.000 HD 
HETATM   32  N   UNL     1      -6.441  10.774  69.874  1.00  0.00    -0.119 NA 
HETATM   33  H1  UNL     1      -6.562  11.208  70.789  1.00  0.00     0.000 HD 
BRANCH  30  34
HETATM   34  C   UNL     1      -8.378  12.060  69.200  1.00  0.00     0.429 C  
BRANCH  34  35
HETATM   35  C   UNL     1      -9.464  12.397  68.196  1.00  0.00    -0.214 A  
HETATM   36  C   UNL     1      -7.885  14.086  67.054  1.00  0.00     0.086 C  
HETATM   37  C   UNL     1     -11.738  12.188  67.323  1.00  0.00    -0.369 A  
HETATM   38  C   UNL     1     -11.268  10.989  69.422  1.00  0.00    -0.332 C  
HETATM   39  C   UNL     1      -9.197  13.349  67.176  1.00  0.00    -0.240 A  
HETATM   40  C   UNL     1     -10.776  11.869  68.302  1.00  0.00    -0.253 A  
HETATM   41  C   UNL     1     -11.445  13.055  66.275  1.00  0.00    -0.379 A  
HETATM   42  C   UNL     1     -10.181  13.645  66.221  1.00  0.00    -0.296 A  
BRANCH  41  43
HETATM   43  C   UNL     1     -12.427  13.429  65.218  1.00  0.00    -0.483 C  
HETATM   44  H2  UNL     1     -11.720  15.376  65.040  1.00  0.00     0.000 HD 
HETATM   45  H1  UNL     1     -13.074  14.951  63.981  1.00  0.00     0.000 HD 
HETATM   46  N   UNL     1     -12.402  14.696  64.704  1.00  0.00    -0.433 N  
HETATM   47  O   UNL     1     -13.257  12.627  64.800  1.00  0.00    -0.846 OA 
ENDBRANCH  41  43
ENDBRANCH  34  35
ENDBRANCH  30  34
ENDBRANCH  15  30
ENDBRANCH  12  13
ENDBRANCH   6  12
ENDBRANCH   2   3
TORSDOF 10
ENDMDL
MODEL      212
REMARK 921   NORMALIZED FREE ENERGY PREDICTED BY IDOCK:   -2.70 KCAL/MOL
REMARK 922        TOTAL FREE ENERGY PREDICTED BY IDOCK:   -7.14 KCAL/MOL
REMARK 923 INTER-LIGAND FREE ENERGY PREDICTED BY IDOCK:   -6.58 KCAL/MOL
REMARK 924 INTRA-LIGAND FREE ENERGY PREDICTED BY IDOCK:   -0.56 KCAL/MOL
REMARK 927      BINDING AFFINITY PREDICTED BY RF-SCORE:    0.00 PKD
ROOT
HETATM    1  C   UNL     1      -8.252  11.251  62.942  1.00  0.00     0.224 C  
HETATM    2  O   UNL     1      -7.405  10.104  63.025  1.00  0.00    -0.135 OA 
ENDROOT
BRANCH   2   3
HETATM    3  C   UNL     1      -7.257   9.528  64.262  1.00  0.00    -0.115 A  
HETATM    4  C   UNL     1      -6.736  10.196  65.373  1.00  0.00    -0.121 A  
HETATM    5  C   UNL     1      -6.705   9.582  66.629  1.00  0.00    -0.072 A  
HETATM    6  C   UNL     1      -7.159   8.272  66.808  1.00  0.00    -0.077 A  
HETATM    7  C   UNL     1      -7.626   7.579  65.680  1.00  0.00    -0.091 A  
HETATM    8  C   UNL     1      -8.215   7.366  63.299  1.00  0.00     0.060 C  
HETATM    9  O   UNL     1      -8.855   8.055  62.333  1.00  0.00     0.024 OA 
HETATM   10  C   UNL     1      -7.689   8.198  64.417  1.00  0.00    -0.126 A  
HETATM   11  O   UNL     1      -8.131   6.147  63.298  1.00  0.00    -0.118 OA 
BRANCH   6  12
HETATM   12  C   UNL     1      -7.194   7.609  68.171  1.00  0.00    -0.093 C  
BRANCH  12  13
HETATM   13  N   UNL     1      -7.716   8.434  69.275  1.00  0.00    -0.096 N  
HETATM   14  O   UNL     1      -9.267   9.952  70.081  1.00  0.00    -0.228 OA 
HETATM   15  C   UNL     1      -8.936   9.148  69.199  1.00  0.00    -0.144 C  
BRANCH  13  16
HETATM   16  C   UNL     1      -6.774   8.784  70.370  1.00  0.00    -0.043 C  
HETATM   17  C   UNL     1      -6.700  10.291  70.680  1.00  0.00    -0.006 C  
BRANCH  16  18
HETATM   18  C   UNL     1      -7.132   8.066  71.655  1.00  0.00    -0.072 A  
HETATM   19  C   UNL     1      -8.030   7.841  73.675  1.00  0.00    -0.169 A  
HETATM   20  C   UNL     1      -7.994   6.628  73.022  1.00  0.00    -0.102 A  
HETATM   21  N   UNL     1      -7.392   6.779  71.793  1.00  0.00    -0.084 NA 
HETATM   22  H   UNL     1      -7.186   6.041  71.121  1.00  0.00     0.000 HD 
HETATM   23  N   UNL     1      -7.451   8.738  72.812  1.00  0.00    -0.359 NA 
BRANCH  20  24
HETATM   24  C   UNL     1      -8.583   5.367  73.454  1.00  0.00    -0.116 A  
HETATM   25  C   UNL     1      -8.293   3.212  74.564  1.00  0.00    -0.069 A  
HETATM   26  C   UNL     1      -9.586   2.841  74.210  1.00  0.00    -0.118 A  
HETATM   27  C   UNL     1     -10.388   3.732  73.494  1.00  0.00    -0.235 A  
HETATM   28  C   UNL     1      -7.799   4.465  74.191  1.00  0.00    -0.092 A  
HETATM   29  C   UNL     1      -9.893   4.990  73.122  1.00  0.00    -0.175 A  
ENDBRANCH  20  24
ENDBRANCH  16  18
ENDBRANCH  13  16
BRANCH  15  30
HETATM   30  C   UNL     1      -9.881   8.863  67.972  1.00  0.00    -0.168 C  
HETATM   31  H2  UNL     1     -10.946   7.365  68.980  1.00  0.00     0.000 HD 
HETATM   32  N   UNL     1     -10.468   7.500  68.090  1.00  0.00    -0.257 NA 
HETATM   33  H1  UNL     1     -11.080   7.315  67.295  1.00  0.00     0.000 HD 
BRANCH  30  34
HETATM   34  C   UNL     1     -11.079   9.823  67.802  1.00  0.00    -0.142 C  
BRANCH  34  35
HETATM   35  C   UNL     1     -10.841  11.213  67.243  1.00  0.00    -0.326 A  
HETATM   36  C   UNL     1     -11.444  12.237  69.532  1.00  0.00    -0.318 C  
HETATM   37  C   UNL     1     -10.313  12.743  65.410  1.00  0.00    -0.310 A  
HETATM   38  C   UNL     1     -10.530  10.364  64.809  1.00  0.00    -0.087 C  
HETATM   39  C   UNL     1     -11.003  12.341  68.091  1.00  0.00    -0.269 A  
HETATM   40  C   UNL     1     -10.561  11.434  65.871  1.00  0.00    -0.317 A  
HETATM   41  C   UNL     1     -10.388  13.838  66.265  1.00  0.00    -0.294 A  
HETATM   42  C   UNL     1     -10.753  13.630  67.597  1.00  0.00    -0.253 A  
BRANCH  41  43
HETATM   43  C   UNL     1     -10.142  15.241  65.828  1.00  0.00    -0.356 C  
HETATM   44  H2  UNL     1      -8.265  15.347  66.718  1.00  0.00     0.000 HD 
HETATM   45  H1  UNL     1      -8.797  16.809  65.871  1.00  0.00     0.000 HD 
HETATM   46  N   UNL     1      -8.965  15.848  66.170  1.00  0.00    -0.341 N  
HETATM   47  O   UNL     1     -10.970  15.864  65.170  1.00  0.00    -0.398 OA 
ENDBRANCH  41  43
ENDBRANCH  34  35
ENDBRANCH  30  34
ENDBRANCH  15  30
ENDBRANCH  12  13
ENDBRANCH   6  12
ENDBRANCH   2   3
TORSDOF 10
ENDMDL
MODEL      213
REMARK 921   NORMALIZED FREE ENERGY PREDICTED BY IDOCK:   -2.63 KCAL/MOL
REMARK 922        TOTAL FREE ENERGY PREDICTED BY IDOCK:   -7.03 KCAL/MOL
REMARK 923 INTER-LIGAND FREE ENERGY PREDICTED BY IDOCK:   -6.50 KCAL/MOL
REMARK 924 INTRA-LIGAND FREE ENERGY PREDICTED BY IDOCK:   -0.53 KCAL/MOL
REMARK 927      BINDING AFFINITY PREDICTED BY RF-SCORE:    0.00 PKD
ROOT
HETATM    1  C   UNL     1     -10.733  14.494  68.110  1.00  0.00    -0.239 C  
HETATM    2  O   UNL     1     -10.706  13.139  67.659  1.00  0.00    -0.234 OA 
ENDROOT
BRANCH   2   3
HETATM    3  C   UNL     1      -9.510  12.472  67.763  1.00  0.00    -0.197 A  
HETATM    4  C   UNL     1      -8.357  12.832  67.061  1.00  0.00    -0.123 A  
HETATM    5  C   UNL     1      -7.145  12.172  67.288  1.00  0.00    -0.144 A  
HETATM    6  C   UNL     1      -7.055  11.111  68.194  1.00  0.00    -0.071 A  
HETATM    7  C   UNL     1      -8.227  10.710  68.854  1.00  0.00    -0.145 A  
HETATM    8  C   UNL     1     -10.617  10.878  69.421  1.00  0.00    -0.197 C  
HETATM    9  O   UNL     1     -11.534  11.813  69.740  1.00  0.00    -0.280 OA 
HETATM   10  C   UNL     1      -9.446  11.387  68.655  1.00  0.00    -0.168 A  
HETATM   11  O   UNL     1     -10.701   9.716  69.790  1.00  0.00    -0.220 OA 
BRANCH   6  12
HETATM   12  C   UNL     1      -5.740  10.423  68.503  1.00  0.00    -0.037 C  
BRANCH  12  13
HETATM   13  N   UNL     1      -5.797   8.957  68.643  1.00  0.00    -0.041 N  
HETATM   14  O   UNL     1      -6.391   6.887  67.796  1.00  0.00    -0.044 OA 
HETATM   15  C   UNL     1      -6.205   8.094  67.598  1.00  0.00    -0.052 C  
BRANCH  13  16
HETATM   16  C   UNL     1      -5.738   8.400  70.020  1.00  0.00    -0.025 C  
HETATM   17  C   UNL     1      -6.070   9.418  71.126  1.00  0.00    -0.078 C  
BRANCH  16  18
HETATM   18  C   UNL     1      -6.677   7.222  70.179  1.00  0.00    -0.054 A  
HETATM   19  C   UNL     1      -8.639   6.203  70.406  1.00  0.00    -0.134 A  
HETATM   20  C   UNL     1      -7.735   5.381  69.767  1.00  0.00    -0.077 A  
HETATM   21  N   UNL     1      -6.515   6.011  69.679  1.00  0.00    -0.040 NA 
HETATM   22  H   UNL     1      -5.653   5.619  69.301  1.00  0.00     0.000 HD 
HETATM   23  N   UNL     1      -7.947   7.355  70.690  1.00  0.00    -0.097 NA 
BRANCH  20  24
HETATM   24  C   UNL     1      -7.992   4.084  69.155  1.00  0.00    -0.057 A  
HETATM   25  C   UNL     1      -7.095   2.046  68.155  1.00  0.00    -0.043 A  
HETATM   26  C   UNL     1      -8.380   1.622  67.834  1.00  0.00    -0.079 A  
HETATM   27  C   UNL     1      -9.475   2.413  68.184  1.00  0.00    -0.215 A  
HETATM   28  C   UNL     1      -6.904   3.265  68.811  1.00  0.00    -0.045 A  
HETATM   29  C   UNL     1      -9.284   3.635  68.846  1.00  0.00    -0.223 A  
ENDBRANCH  20  24
ENDBRANCH  16  18
ENDBRANCH  13  16
BRANCH  15  30
HETATM   30  C   UNL     1      -6.383   8.712  66.160  1.00  0.00    -0.056 C  
HETATM   31  H2  UNL     1      -5.101   7.317  65.264  1.00  0.00     0.000 HD 
HETATM   32  N   UNL     1      -5.234   8.327  65.296  1.00  0.00    -0.031 NA 
HETATM   33  H1  UNL     1      -5.350   8.728  64.365  1.00  0.00     0.000 HD 
BRANCH  30  34
HETATM   34  C   UNL     1      -7.651   8.283  65.390  1.00  0.00    -0.096 C  
BRANCH  34  35
HETATM   35  C   UNL     1      -8.685   9.330  65.021  1.00  0.00    -0.221 A  
HETATM   36  C   UNL     1     -10.283   8.383  66.811  1.00  0.00    -0.376 C  
HETATM   37  C   UNL     1      -9.482  11.190  63.648  1.00  0.00    -0.278 A  
HETATM   38  C   UNL     1      -7.336  10.184  62.974  1.00  0.00    -0.139 C  
HETATM   39  C   UNL     1      -9.919   9.367  65.725  1.00  0.00    -0.278 A  
HETATM   40  C   UNL     1      -8.505  10.212  63.926  1.00  0.00    -0.181 A  
HETATM   41  C   UNL     1     -10.652  11.278  64.396  1.00  0.00    -0.410 A  
HETATM   42  C   UNL     1     -10.870  10.352  65.418  1.00  0.00     0.213 A  
BRANCH  41  43
HETATM   43  C   UNL     1     -11.717  12.288  64.141  1.00  0.00    -0.402 C  
HETATM   44  H2  UNL     1     -10.424  13.910  64.292  1.00  0.00     0.000 HD 
HETATM   45  H1  UNL     1     -12.116  14.306  63.954  1.00  0.00     0.000 HD 
HETATM   46  N   UNL     1     -11.387  13.615  64.129  1.00  0.00    -0.349 N  
HETATM   47  O   UNL     1     -12.882  11.957  63.942  1.00  0.00    -0.536 OA 
ENDBRANCH  41  43
ENDBRANCH  34  35
ENDBRANCH  30  34
ENDBRANCH  15  30
ENDBRANCH  12  13
ENDBRANCH   6  12
ENDBRANCH   2   3
TORSDOF 10
ENDMDL
MODEL      214
REMARK 921   NORMALIZED FREE ENERGY PREDICTED BY IDOCK:   -2.61 KCAL/MOL
REMARK 922        TOTAL FREE ENERGY PREDICTED BY IDOCK:   -7.01 KCAL/MOL
REMARK 923 INTER-LIGAND FREE ENERGY PREDICTED BY IDOCK:   -7.73 KCAL/MOL
REMARK 924 INTRA-LIGAND FREE ENERGY PREDICTED BY IDOCK:    0.72 KCAL/MOL
REMARK 927      BINDING AFFINITY PREDICTED BY RF-SCORE:    0.00 PKD
ROOT
HETATM    1  C   UNL     1      -5.184  12.642  70.416  1.00  0.00    -0.118 C  
HETATM    2  O   UNL     1      -5.775  11.343  70.359  1.00  0.00    -0.122 OA 
ENDROOT
BRANCH   2   3
HETATM    3  C   UNL     1      -6.898  11.203  69.582  1.00  0.00    -0.117 A  
HETATM    4  C   UNL     1      -7.253  12.091  68.563  1.00  0.00    -0.101 A  
HETATM    5  C   UNL     1      -8.357  11.836  67.743  1.00  0.00    -0.146 A  
HETATM    6  C   UNL     1      -9.161  10.709  67.939  1.00  0.00    -0.145 A  
HETATM    7  C   UNL     1      -8.841   9.850  69.002  1.00  0.00    -0.156 A  
HETATM    8  C   UNL     1      -7.469   9.093  70.902  1.00  0.00    -0.118 C  
HETATM    9  O   UNL     1      -6.173   8.922  71.229  1.00  0.00    -0.048 OA 
HETATM   10  C   UNL     1      -7.714  10.082  69.814  1.00  0.00    -0.173 A  
HETATM   11  O   UNL     1      -8.371   8.441  71.405  1.00  0.00    -0.119 OA 
BRANCH   6  12
HETATM   12  C   UNL     1     -10.324  10.379  67.024  1.00  0.00    -0.240 C  
BRANCH  12  13
HETATM   13  N   UNL     1     -10.544  11.309  65.901  1.00  0.00    -0.262 N  
HETATM   14  O   UNL     1      -9.854  12.212  63.885  1.00  0.00    -0.287 OA 
HETATM   15  C   UNL     1      -9.740  11.320  64.736  1.00  0.00    -0.256 C  
BRANCH  13  16
HETATM   16  C   UNL     1     -11.428  12.478  66.146  1.00  0.00    -0.377 C  
HETATM   17  C   UNL     1     -11.958  12.576  67.589  1.00  0.00    -0.287 C  
BRANCH  16  18
HETATM   18  C   UNL     1     -10.723  13.780  65.824  1.00  0.00    -0.281 A  
HETATM   19  C   UNL     1     -10.569  15.948  65.363  1.00  0.00    -0.419 A  
HETATM   20  C   UNL     1      -9.435  15.508  66.011  1.00  0.00    -0.352 A  
HETATM   21  N   UNL     1      -9.530  14.155  66.245  1.00  0.00    -0.423 NA 
HETATM   22  H   UNL     1      -8.816  13.558  66.663  1.00  0.00     0.000 HD 
HETATM   23  N   UNL     1     -11.364  14.836  65.221  1.00  0.00    -0.352 NA 
BRANCH  20  24
HETATM   24  C   UNL     1      -8.324  16.312  66.503  1.00  0.00    -0.343 A  
HETATM   25  C   UNL     1      -6.147  16.392  67.605  1.00  0.00    -0.166 A  
HETATM   26  C   UNL     1      -6.188  17.782  67.614  1.00  0.00    -0.168 A  
HETATM   27  C   UNL     1      -7.283  18.444  67.055  1.00  0.00    -0.218 A  
HETATM   28  C   UNL     1      -7.205  15.665  67.053  1.00  0.00    -0.175 A  
HETATM   29  C   UNL     1      -8.343  17.714  66.498  1.00  0.00    -0.300 A  
ENDBRANCH  20  24
ENDBRANCH  16  18
ENDBRANCH  13  16
BRANCH  15  30
HETATM   30  C   UNL     1      -8.717  10.140  64.536  1.00  0.00    -0.196 C  
HETATM   31  H2  UNL     1      -7.410  10.855  66.011  1.00  0.00     0.000 HD 
HETATM   32  N   UNL     1      -7.375  10.540  65.042  1.00  0.00    -0.321 NA 
HETATM   33  H1  UNL     1      -6.713   9.775  64.912  1.00  0.00     0.000 HD 
BRANCH  30  34
HETATM   34  C   UNL     1      -9.060   8.816  65.253  1.00  0.00    -0.156 C  
BRANCH  34  35
HETATM   35  C   UNL     1      -8.279   7.562  64.909  1.00  0.00    -0.086 A  
HETATM   36  C   UNL     1      -8.106   6.981  67.416  1.00  0.00    -0.116 C  
HETATM   37  C   UNL     1      -7.172   6.076  63.314  1.00  0.00    -0.055 A  
HETATM   38  C   UNL     1      -8.083   8.172  62.393  1.00  0.00    -0.167 C  
HETATM   39  C   UNL     1      -7.854   6.699  65.954  1.00  0.00    -0.102 A  
HETATM   40  C   UNL     1      -7.867   7.273  63.584  1.00  0.00    -0.108 A  
HETATM   41  C   UNL     1      -6.833   5.190  64.331  1.00  0.00    -0.048 A  
HETATM   42  C   UNL     1      -7.160   5.518  65.648  1.00  0.00    -0.067 A  
BRANCH  41  43
HETATM   43  C   UNL     1      -6.096   3.916  64.100  1.00  0.00    -0.018 C  
HETATM   44  H2  UNL     1      -6.855   3.650  62.182  1.00  0.00     0.000 HD 
HETATM   45  H1  UNL     1      -5.741   2.395  62.748  1.00  0.00     0.000 HD 
HETATM   46  N   UNL     1      -6.246   3.267  62.906  1.00  0.00    -0.014 N  
HETATM   47  O   UNL     1      -5.359   3.436  64.956  1.00  0.00    -0.009 OA 
ENDBRANCH  41  43
ENDBRANCH  34  35
ENDBRANCH  30  34
ENDBRANCH  15  30
ENDBRANCH  12  13
ENDBRANCH   6  12
ENDBRANCH   2   3
TORSDOF 10
ENDMDL
MODEL      215
REMARK 921   NORMALIZED FREE ENERGY PREDICTED BY IDOCK:   -2.56 KCAL/MOL
REMARK 922        TOTAL FREE ENERGY PREDICTED BY IDOCK:   -6.93 KCAL/MOL
REMARK 923 INTER-LIGAND FREE ENERGY PREDICTED BY IDOCK:   -6.13 KCAL/MOL
REMARK 924 INTRA-LIGAND FREE ENERGY PREDICTED BY IDOCK:   -0.80 KCAL/MOL
REMARK 927      BINDING AFFINITY PREDICTED BY RF-SCORE:    0.00 PKD
ROOT
HETATM    1  C   UNL     1      -6.892  18.361  67.871  1.00  0.00    -0.217 C  
HETATM    2  O   UNL     1      -6.141  17.147  67.926  1.00  0.00    -0.131 OA 
ENDROOT
BRANCH   2   3
HETATM    3  C   UNL     1      -6.820  15.982  67.673  1.00  0.00    -0.159 A  
HETATM    4  C   UNL     1      -7.476  15.712  66.469  1.00  0.00     0.318 A  
HETATM    5  C   UNL     1      -8.065  14.465  66.238  1.00  0.00     1.160 A  
HETATM    6  C   UNL     1      -8.051  13.464  67.214  1.00  0.00    -0.147 A  
HETATM    7  C   UNL     1      -7.446  13.757  68.447  1.00  0.00    -0.119 A  
HETATM    8  C   UNL     1      -6.204  15.188  70.020  1.00  0.00    -0.152 C  
HETATM    9  O   UNL     1      -5.133  16.006  70.038  1.00  0.00    -0.119 OA 
HETATM   10  C   UNL     1      -6.823  14.999  68.678  1.00  0.00    -0.109 A  
HETATM   11  O   UNL     1      -6.598  14.590  71.010  1.00  0.00     0.064 OA 
BRANCH   6  12
HETATM   12  C   UNL     1      -8.627  12.084  66.964  1.00  0.00    -0.185 C  
BRANCH  12  13
HETATM   13  N   UNL     1      -9.594  11.599  67.964  1.00  0.00    -0.178 N  
HETATM   14  O   UNL     1     -10.174  10.090  69.621  1.00  0.00    -0.211 OA 
HETATM   15  C   UNL     1      -9.294  10.581  68.902  1.00  0.00    -0.187 C  
BRANCH  13  16
HETATM   16  C   UNL     1     -11.022  11.961  67.765  1.00  0.00    -0.228 C  
HETATM   17  C   UNL     1     -12.017  10.916  68.303  1.00  0.00    -0.024 C  
BRANCH  16  18
HETATM   18  C   UNL     1     -11.350  13.288  68.417  1.00  0.00    -0.291 A  
HETATM   19  C   UNL     1     -12.312  15.283  68.593  1.00  0.00     0.159 A  
HETATM   20  C   UNL     1     -12.090  14.740  69.840  1.00  0.00    -0.332 A  
HETATM   21  N   UNL     1     -11.451  13.528  69.711  1.00  0.00    -0.455 NA 
HETATM   22  H   UNL     1     -11.120  12.930  70.469  1.00  0.00     0.000 HD 
HETATM   23  N   UNL     1     -11.809  14.369  67.701  1.00  0.00    -0.383 NA 
BRANCH  20  24
HETATM   24  C   UNL     1     -12.536  15.257  71.128  1.00  0.00    -0.438 A  
HETATM   25  C   UNL     1     -11.993  16.454  73.185  1.00  0.00    -0.536 A  
HETATM   26  C   UNL     1     -13.256  16.174  73.696  1.00  0.00    -0.451 A  
HETATM   27  C   UNL     1     -14.168  15.453  72.925  1.00  0.00     0.029 A  
HETATM   28  C   UNL     1     -11.638  16.001  71.911  1.00  0.00    -0.524 A  
HETATM   29  C   UNL     1     -13.813  15.001  71.646  1.00  0.00    -0.571 A  
ENDBRANCH  20  24
ENDBRANCH  16  18
ENDBRANCH  13  16
BRANCH  15  30
HETATM   30  C   UNL     1      -7.796  10.114  69.028  1.00  0.00    -0.107 C  
HETATM   31  H2  UNL     1      -7.685  10.595  71.065  1.00  0.00     0.000 HD 
HETATM   32  N   UNL     1      -7.159  10.762  70.207  1.00  0.00    -0.475 NA 
HETATM   33  H1  UNL     1      -6.188  10.459  70.288  1.00  0.00     0.000 HD 
BRANCH  30  34
HETATM   34  C   UNL     1      -7.572   8.596  69.209  1.00  0.00    -0.094 C  
BRANCH  34  35
HETATM   35  C   UNL     1      -7.776   7.670  68.025  1.00  0.00    -0.119 A  
HETATM   36  C   UNL     1      -6.013   8.994  66.686  1.00  0.00    -0.056 C  
HETATM   37  C   UNL     1      -8.906   5.815  66.903  1.00  0.00    -0.114 A  
HETATM   38  C   UNL     1      -9.791   6.447  69.114  1.00  0.00    -0.158 C  
HETATM   39  C   UNL     1      -7.009   7.870  66.846  1.00  0.00    -0.073 A  
HETATM   40  C   UNL     1      -8.782   6.671  68.016  1.00  0.00    -0.117 A  
HETATM   41  C   UNL     1      -8.093   5.959  65.784  1.00  0.00    -0.121 A  
HETATM   42  C   UNL     1      -7.163   7.000  65.756  1.00  0.00    -0.073 A  
BRANCH  41  43
HETATM   43  C   UNL     1      -8.187   5.085  64.581  1.00  0.00    -0.128 C  
HETATM   44  H2  UNL     1      -6.842   3.678  65.313  1.00  0.00     0.000 HD 
HETATM   45  H1  UNL     1      -7.514   3.337  63.711  1.00  0.00     0.000 HD 
HETATM   46  N   UNL     1      -7.449   3.935  64.534  1.00  0.00    -0.074 N  
HETATM   47  O   UNL     1      -8.910   5.374  63.632  1.00  0.00    -0.002 OA 
ENDBRANCH  41  43
ENDBRANCH  34  35
ENDBRANCH  30  34
ENDBRANCH  15  30
ENDBRANCH  12  13
ENDBRANCH   6  12
ENDBRANCH   2   3
TORSDOF 10
ENDMDL
MODEL      216
REMARK 921   NORMALIZED FREE ENERGY PREDICTED BY IDOCK:   -2.55 KCAL/MOL
REMARK 922        TOTAL FREE ENERGY PREDICTED BY IDOCK:   -6.91 KCAL/MOL
REMARK 923 INTER-LIGAND FREE ENERGY PREDICTED BY IDOCK:   -5.64 KCAL/MOL
REMARK 924 INTRA-LIGAND FREE ENERGY PREDICTED BY IDOCK:   -1.26 KCAL/MOL
REMARK 927      BINDING AFFINITY PREDICTED BY RF-SCORE:    0.00 PKD
ROOT
HETATM    1  C   UNL     1     -10.311   5.207  66.958  1.00  0.00    -0.217 C  
HETATM    2  O   UNL     1      -9.363   6.118  66.399  1.00  0.00    -0.153 OA 
ENDROOT
BRANCH   2   3
HETATM    3  C   UNL     1      -9.195   7.316  67.047  1.00  0.00    -0.145 A  
HETATM    4  C   UNL     1      -9.231   7.460  68.436  1.00  0.00    -0.138 A  
HETATM    5  C   UNL     1      -8.953   8.693  69.036  1.00  0.00    -0.142 A  
HETATM    6  C   UNL     1      -8.668   9.825  68.268  1.00  0.00    -0.119 A  
HETATM    7  C   UNL     1      -8.693   9.696  66.871  1.00  0.00    -0.139 A  
HETATM    8  C   UNL     1      -8.928   8.437  64.768  1.00  0.00     0.254 C  
HETATM    9  O   UNL     1      -8.532   7.271  64.218  1.00  0.00     0.062 OA 
HETATM   10  C   UNL     1      -8.941   8.452  66.257  1.00  0.00    -0.213 A  
HETATM   11  O   UNL     1      -9.190   9.427  64.103  1.00  0.00    -0.176 OA 
BRANCH   6  12
HETATM   12  C   UNL     1      -8.302  11.155  68.898  1.00  0.00    -0.099 C  
BRANCH  12  13
HETATM   13  N   UNL     1      -6.961  11.674  68.573  1.00  0.00    -0.078 N  
HETATM   14  O   UNL     1      -5.552  12.827  67.144  1.00  0.00    -0.334 OA 
HETATM   15  C   UNL     1      -6.708  12.536  67.479  1.00  0.00    -0.151 C  
BRANCH  13  16
HETATM   16  C   UNL     1      -5.798  11.011  69.219  1.00  0.00    -0.043 C  
HETATM   17  C   UNL     1      -5.975  10.759  70.728  1.00  0.00    -0.048 C  
BRANCH  16  18
HETATM   18  C   UNL     1      -5.487   9.682  68.562  1.00  0.00    -0.036 A  
HETATM   19  C   UNL     1      -5.585   7.480  68.285  1.00  0.00    -0.027 A  
HETATM   20  C   UNL     1      -5.372   8.112  67.078  1.00  0.00    -0.032 A  
HETATM   21  N   UNL     1      -5.266   9.470  67.278  1.00  0.00    -0.036 NA 
HETATM   22  H   UNL     1      -5.058  10.175  66.571  1.00  0.00     0.000 HD 
HETATM   23  N   UNL     1      -5.624   8.483  69.221  1.00  0.00    -0.034 NA 
BRANCH  20  24
HETATM   24  C   UNL     1      -5.361   7.513  65.750  1.00  0.00    -0.028 A  
HETATM   25  C   UNL     1      -5.272   5.492  64.384  1.00  0.00    -0.010 A  
HETATM   26  C   UNL     1      -5.193   6.261  63.228  1.00  0.00    -0.018 A  
HETATM   27  C   UNL     1      -5.215   7.653  63.323  1.00  0.00    -0.038 A  
HETATM   28  C   UNL     1      -5.357   6.113  65.633  1.00  0.00    -0.013 A  
HETATM   29  C   UNL     1      -5.304   8.277  64.576  1.00  0.00    -0.036 A  
ENDBRANCH  20  24
ENDBRANCH  16  18
ENDBRANCH  13  16
BRANCH  15  30
HETATM   30  C   UNL     1      -7.945  13.146  66.720  1.00  0.00     0.293 C  
HETATM   31  H2  UNL     1      -8.858  11.278  66.447  1.00  0.00     0.000 HD 
HETATM   32  N   UNL     1      -8.602  12.096  65.894  1.00  0.00    -0.339 NA 
HETATM   33  H1  UNL     1      -9.404  12.491  65.402  1.00  0.00     0.000 HD 
BRANCH  30  34
HETATM   34  C   UNL     1      -9.060  13.740  67.609  1.00  0.00    -0.196 C  
BRANCH  34  35
HETATM   35  C   UNL     1      -9.328  15.233  67.562  1.00  0.00    -0.204 A  
HETATM   36  C   UNL     1      -7.686  15.589  69.519  1.00  0.00    -0.197 C  
HETATM   37  C   UNL     1     -10.499  17.191  66.683  1.00  0.00    -0.259 A  
HETATM   38  C   UNL     1     -11.241  15.005  65.821  1.00  0.00    -0.318 C  
HETATM   39  C   UNL     1      -8.648  16.090  68.468  1.00  0.00    -0.190 A  
HETATM   40  C   UNL     1     -10.314  15.794  66.712  1.00  0.00    -0.293 A  
HETATM   41  C   UNL     1      -9.768  18.036  67.512  1.00  0.00    -0.289 A  
HETATM   42  C   UNL     1      -8.861  17.476  68.414  1.00  0.00    -0.276 A  
BRANCH  41  43
HETATM   43  C   UNL     1      -9.929  19.517  67.524  1.00  0.00    -0.380 C  
HETATM   44  H2  UNL     1      -9.889  19.688  65.452  1.00  0.00     0.000 HD 
HETATM   45  H1  UNL     1     -10.078  21.206  66.345  1.00  0.00     0.000 HD 
HETATM   46  N   UNL     1      -9.968  20.192  66.336  1.00  0.00    -0.460 N  
HETATM   47  O   UNL     1     -10.025  20.144  68.575  1.00  0.00    -0.351 OA 
ENDBRANCH  41  43
ENDBRANCH  34  35
ENDBRANCH  30  34
ENDBRANCH  15  30
ENDBRANCH  12  13
ENDBRANCH   6  12
ENDBRANCH   2   3
TORSDOF 10
ENDMDL
MODEL      217
REMARK 921   NORMALIZED FREE ENERGY PREDICTED BY IDOCK:   -2.49 KCAL/MOL
REMARK 922        TOTAL FREE ENERGY PREDICTED BY IDOCK:   -6.82 KCAL/MOL
REMARK 923 INTER-LIGAND FREE ENERGY PREDICTED BY IDOCK:   -8.73 KCAL/MOL
REMARK 924 INTRA-LIGAND FREE ENERGY PREDICTED BY IDOCK:    1.91 KCAL/MOL
REMARK 927      BINDING AFFINITY PREDICTED BY RF-SCORE:    0.00 PKD
ROOT
HETATM    1  C   UNL     1     -12.412  13.639  63.080  1.00  0.00     0.333 C  
HETATM    2  O   UNL     1     -12.836  14.252  64.299  1.00  0.00    -0.598 OA 
ENDROOT
BRANCH   2   3
HETATM    3  C   UNL     1     -12.166  13.894  65.442  1.00  0.00    -0.444 A  
HETATM    4  C   UNL     1     -12.369  12.686  66.115  1.00  0.00    -0.101 A  
HETATM    5  C   UNL     1     -11.581  12.340  67.217  1.00  0.00    -0.427 A  
HETATM    6  C   UNL     1     -10.595  13.202  67.704  1.00  0.00    -0.235 A  
HETATM    7  C   UNL     1     -10.433  14.442  67.066  1.00  0.00    -0.268 A  
HETATM    8  C   UNL     1     -10.929  16.125  65.338  1.00  0.00    -0.227 C  
HETATM    9  O   UNL     1     -11.136  16.201  64.008  1.00  0.00    -0.554 OA 
HETATM   10  C   UNL     1     -11.200  14.788  65.936  1.00  0.00    -0.340 A  
HETATM   11  O   UNL     1     -10.486  17.055  65.994  1.00  0.00    -0.333 OA 
BRANCH   6  12
HETATM   12  C   UNL     1      -9.688  12.822  68.857  1.00  0.00     0.201 C  
BRANCH  12  13
HETATM   13  N   UNL     1      -8.244  13.022  68.635  1.00  0.00    -0.053 N  
HETATM   14  O   UNL     1      -6.465  14.431  68.181  1.00  0.00    -0.108 OA 
HETATM   15  C   UNL     1      -7.648  14.301  68.522  1.00  0.00    -0.127 C  
BRANCH  13  16
HETATM   16  C   UNL     1      -7.452  11.845  68.192  1.00  0.00    -0.100 C  
HETATM   17  C   UNL     1      -6.223  11.547  69.071  1.00  0.00    -0.060 C  
BRANCH  16  18
HETATM   18  C   UNL     1      -8.303  10.592  68.149  1.00  0.00    -0.121 A  
HETATM   19  C   UNL     1      -8.964   8.609  67.395  1.00  0.00    -0.133 A  
HETATM   20  C   UNL     1      -9.233   8.731  68.742  1.00  0.00    -0.141 A  
HETATM   21  N   UNL     1      -8.861   9.982  69.178  1.00  0.00    -0.157 NA 
HETATM   22  H   UNL     1      -8.991  10.364  70.115  1.00  0.00     0.000 HD 
HETATM   23  N   UNL     1      -8.404   9.807  67.025  1.00  0.00    -0.117 NA 
BRANCH  20  24
HETATM   24  C   UNL     1      -9.728   7.702  69.646  1.00  0.00    -0.171 A  
HETATM   25  C   UNL     1      -9.705   5.362  70.341  1.00  0.00    -0.254 A  
HETATM   26  C   UNL     1     -10.726   5.608  71.253  1.00  0.00    -0.312 A  
HETATM   27  C   UNL     1     -11.241   6.899  71.379  1.00  0.00    -0.296 A  
HETATM   28  C   UNL     1      -9.210   6.400  69.547  1.00  0.00    -0.144 A  
HETATM   29  C   UNL     1     -10.742   7.942  70.585  1.00  0.00    -0.230 A  
ENDBRANCH  20  24
ENDBRANCH  16  18
ENDBRANCH  13  16
BRANCH  15  30
HETATM   30  C   UNL     1      -8.528  15.557  68.878  1.00  0.00    -0.207 C  
HETATM   31  H2  UNL     1      -8.890  14.906  70.837  1.00  0.00     0.000 HD 
HETATM   32  N   UNL     1      -9.415  15.246  70.032  1.00  0.00    -0.427 NA 
HETATM   33  H1  UNL     1      -9.984  16.060  70.262  1.00  0.00     0.000 HD 
BRANCH  30  34
HETATM   34  C   UNL     1      -7.755  16.835  69.275  1.00  0.00    -0.076 C  
BRANCH  34  35
HETATM   35  C   UNL     1      -7.417  17.859  68.207  1.00  0.00    -0.260 A  
HETATM   36  C   UNL     1      -5.140  16.709  67.825  1.00  0.00    -0.134 C  
HETATM   37  C   UNL     1      -7.911  19.873  66.912  1.00  0.00    -0.330 A  
HETATM   38  C   UNL     1      -9.513  19.311  68.697  1.00  0.00    -0.463 C  
HETATM   39  C   UNL     1      -6.176  17.764  67.521  1.00  0.00    -0.171 A  
HETATM   40  C   UNL     1      -8.254  18.971  67.939  1.00  0.00    -0.311 A  
HETATM   41  C   UNL     1      -6.735  19.727  66.183  1.00  0.00    -0.238 A  
HETATM   42  C   UNL     1      -5.866  18.683  66.507  1.00  0.00    -0.176 A  
BRANCH  41  43
HETATM   43  C   UNL     1      -6.323  20.655  65.093  1.00  0.00    -0.265 C  
HETATM   44  H2  UNL     1      -4.587  21.264  66.064  1.00  0.00     0.000 HD 
HETATM   45  H1  UNL     1      -4.881  22.002  64.481  1.00  0.00     0.000 HD 
HETATM   46  N   UNL     1      -5.163  21.367  65.227  1.00  0.00    -0.139 N  
HETATM   47  O   UNL     1      -6.999  20.795  64.079  1.00  0.00    -0.018 OA 
ENDBRANCH  41  43
ENDBRANCH  34  35
ENDBRANCH  30  34
ENDBRANCH  15  30
ENDBRANCH  12  13
ENDBRANCH   6  12
ENDBRANCH   2   3
TORSDOF 10
ENDMDL
MODEL      218
REMARK 921   NORMALIZED FREE ENERGY PREDICTED BY IDOCK:   -2.48 KCAL/MOL
REMARK 922        TOTAL FREE ENERGY PREDICTED BY IDOCK:   -6.81 KCAL/MOL
REMARK 923 INTER-LIGAND FREE ENERGY PREDICTED BY IDOCK:   -5.62 KCAL/MOL
REMARK 924 INTRA-LIGAND FREE ENERGY PREDICTED BY IDOCK:   -1.19 KCAL/MOL
REMARK 927      BINDING AFFINITY PREDICTED BY RF-SCORE:    0.00 PKD
ROOT
HETATM    1  C   UNL     1      -5.397   5.171  62.512  1.00  0.00    -0.013 C  
HETATM    2  O   UNL     1      -6.125   5.100  63.739  1.00  0.00    -0.021 OA 
ENDROOT
BRANCH   2   3
HETATM    3  C   UNL     1      -6.448   6.291  64.341  1.00  0.00    -0.034 A  
HETATM    4  C   UNL     1      -5.572   7.376  64.435  1.00  0.00    -0.033 A  
HETATM    5  C   UNL     1      -5.998   8.595  64.972  1.00  0.00    -0.055 A  
HETATM    6  C   UNL     1      -7.295   8.757  65.465  1.00  0.00    -0.085 A  
HETATM    7  C   UNL     1      -8.156   7.649  65.428  1.00  0.00    -0.128 A  
HETATM    8  C   UNL     1      -8.753   5.326  64.867  1.00  0.00    -0.122 C  
HETATM    9  O   UNL     1      -8.645   4.457  63.842  1.00  0.00    -0.110 OA 
HETATM   10  C   UNL     1      -7.747   6.426  64.861  1.00  0.00    -0.104 A  
HETATM   11  O   UNL     1      -9.645   5.263  65.698  1.00  0.00    -0.136 OA 
BRANCH   6  12
HETATM   12  C   UNL     1      -7.798  10.086  65.994  1.00  0.00    -0.119 C  
BRANCH  12  13
HETATM   13  N   UNL     1      -7.900  10.200  67.460  1.00  0.00    -0.102 N  
HETATM   14  O   UNL     1      -8.866  11.160  69.331  1.00  0.00     0.084 OA 
HETATM   15  C   UNL     1      -8.902  10.960  68.110  1.00  0.00    -0.137 C  
BRANCH  13  16
HETATM   16  C   UNL     1      -6.724   9.770  68.262  1.00  0.00    -0.060 C  
HETATM   17  C   UNL     1      -6.230  10.825  69.269  1.00  0.00    -0.052 C  
BRANCH  16  18
HETATM   18  C   UNL     1      -7.017   8.498  69.031  1.00  0.00    -0.064 A  
HETATM   19  C   UNL     1      -8.010   7.233  70.563  1.00  0.00    -0.104 A  
HETATM   20  C   UNL     1      -7.638   6.474  69.474  1.00  0.00    -0.095 A  
HETATM   21  N   UNL     1      -6.982   7.266  68.559  1.00  0.00    -0.076 NA 
HETATM   22  H   UNL     1      -6.554   6.960  67.685  1.00  0.00     0.000 HD 
HETATM   23  N   UNL     1      -7.582   8.507  70.284  1.00  0.00    -0.071 NA 
BRANCH  20  24
HETATM   24  C   UNL     1      -7.954   5.075  69.214  1.00  0.00    -0.079 A  
HETATM   25  C   UNL     1      -7.444   3.023  67.995  1.00  0.00    -0.053 A  
HETATM   26  C   UNL     1      -8.569   2.407  68.535  1.00  0.00    -0.107 A  
HETATM   27  C   UNL     1      -9.380   3.112  69.426  1.00  0.00    -0.225 A  
HETATM   28  C   UNL     1      -7.140   4.344  68.334  1.00  0.00    -0.056 A  
HETATM   29  C   UNL     1      -9.072   4.436  69.769  1.00  0.00    -0.174 A  
ENDBRANCH  20  24
ENDBRANCH  16  18
ENDBRANCH  13  16
BRANCH  15  30
HETATM   30  C   UNL     1     -10.088  11.516  67.236  1.00  0.00    -0.199 C  
HETATM   31  H2  UNL     1     -11.433  10.054  67.905  1.00  0.00     0.000 HD 
HETATM   32  N   UNL     1     -11.106  10.451  67.024  1.00  0.00    -0.178 NA 
HETATM   33  H1  UNL     1     -11.874  10.812  66.458  1.00  0.00     0.000 HD 
BRANCH  30  34
HETATM   34  C   UNL     1     -10.856  12.721  67.824  1.00  0.00    -0.248 C  
BRANCH  34  35
HETATM   35  C   UNL     1     -10.436  14.127  67.437  1.00  0.00    -0.271 A  
HETATM   36  C   UNL     1     -11.286  13.719  65.036  1.00  0.00    -0.339 C  
HETATM   37  C   UNL     1      -9.389  16.281  67.928  1.00  0.00    -0.209 A  
HETATM   38  C   UNL     1      -9.246  14.576  69.700  1.00  0.00     0.436 C  
HETATM   39  C   UNL     1     -10.669  14.582  66.111  1.00  0.00    -0.310 A  
HETATM   40  C   UNL     1      -9.724  14.971  68.326  1.00  0.00    -0.215 A  
HETATM   41  C   UNL     1      -9.696  16.752  66.655  1.00  0.00    -0.281 A  
HETATM   42  C   UNL     1     -10.317  15.891  65.749  1.00  0.00    -0.396 A  
BRANCH  41  43
HETATM   43  C   UNL     1      -9.360  18.125  66.184  1.00  0.00    -0.132 C  
HETATM   44  H2  UNL     1     -11.285  18.857  66.469  1.00  0.00     0.000 HD 
HETATM   45  H1  UNL     1     -10.106  20.020  65.841  1.00  0.00     0.000 HD 
HETATM   46  N   UNL     1     -10.337  19.081  66.164  1.00  0.00    -0.449 N  
HETATM   47  O   UNL     1      -8.227  18.416  65.811  1.00  0.00    -0.494 OA 
ENDBRANCH  41  43
ENDBRANCH  34  35
ENDBRANCH  30  34
ENDBRANCH  15  30
ENDBRANCH  12  13
ENDBRANCH   6  12
ENDBRANCH   2   3
TORSDOF 10
ENDMDL
MODEL      219
REMARK 921   NORMALIZED FREE ENERGY PREDICTED BY IDOCK:   -2.40 KCAL/MOL
REMARK 922        TOTAL FREE ENERGY PREDICTED BY IDOCK:   -6.68 KCAL/MOL
REMARK 923 INTER-LIGAND FREE ENERGY PREDICTED BY IDOCK:   -6.51 KCAL/MOL
REMARK 924 INTRA-LIGAND FREE ENERGY PREDICTED BY IDOCK:   -0.17 KCAL/MOL
REMARK 927      BINDING AFFINITY PREDICTED BY RF-SCORE:    0.00 PKD
ROOT
HETATM    1  C   UNL     1      -6.830  18.419  67.838  1.00  0.00    -0.217 C  
HETATM    2  O   UNL     1      -6.103  17.190  67.867  1.00  0.00    -0.131 OA 
ENDROOT
BRANCH   2   3
HETATM    3  C   UNL     1      -6.815  16.041  67.628  1.00  0.00    -0.159 A  
HETATM    4  C   UNL     1      -7.473  15.770  66.425  1.00  0.00     0.455 A  
HETATM    5  C   UNL     1      -8.096  14.537  66.211  1.00  0.00     1.082 A  
HETATM    6  C   UNL     1      -8.114  13.551  67.202  1.00  0.00    -0.097 A  
HETATM    7  C   UNL     1      -7.506  13.845  68.432  1.00  0.00    -0.117 A  
HETATM    8  C   UNL     1      -6.230  15.264  69.989  1.00  0.00    -0.151 C  
HETATM    9  O   UNL     1      -5.136  16.052  69.999  1.00  0.00    -0.119 OA 
HETATM   10  C   UNL     1      -6.849  15.073  68.647  1.00  0.00    -0.109 A  
HETATM   11  O   UNL     1      -6.644  14.693  70.986  1.00  0.00     0.090 OA 
BRANCH   6  12
HETATM   12  C   UNL     1      -8.728  12.185  66.969  1.00  0.00    -0.190 C  
BRANCH  12  13
HETATM   13  N   UNL     1      -9.703  11.737  67.979  1.00  0.00    -0.180 N  
HETATM   14  O   UNL     1     -10.313  10.267  69.660  1.00  0.00    -0.229 OA 
HETATM   15  C   UNL     1      -9.424  10.726  68.931  1.00  0.00    -0.181 C  
BRANCH  13  16
HETATM   16  C   UNL     1     -11.123  12.129  67.778  1.00  0.00    -0.250 C  
HETATM   17  C   UNL     1     -12.140  11.108  68.321  1.00  0.00    -0.011 C  
BRANCH  16  18
HETATM   18  C   UNL     1     -11.422  13.466  68.423  1.00  0.00    -0.316 A  
HETATM   19  C   UNL     1     -12.345  15.480  68.592  1.00  0.00     0.251 A  
HETATM   20  C   UNL     1     -12.128  14.940  69.841  1.00  0.00    -0.332 A  
HETATM   21  N   UNL     1     -11.512  13.715  69.717  1.00  0.00    -0.437 NA 
HETATM   22  H   UNL     1     -11.189  13.116  70.476  1.00  0.00     0.000 HD 
HETATM   23  N   UNL     1     -11.864  14.551  67.703  1.00  0.00    -0.378 NA 
BRANCH  20  24
HETATM   24  C   UNL     1     -12.556  15.473  71.127  1.00  0.00    -0.509 A  
HETATM   25  C   UNL     1     -11.967  16.618  73.201  1.00  0.00    -0.366 A  
HETATM   26  C   UNL     1     -13.252  16.413  73.695  1.00  0.00    -0.169 A  
HETATM   27  C   UNL     1     -14.197  15.756  72.906  1.00  0.00    -0.113 A  
HETATM   28  C   UNL     1     -11.625  16.154  71.929  1.00  0.00    -0.491 A  
HETATM   29  C   UNL     1     -13.854  15.293  71.627  1.00  0.00    -0.615 A  
ENDBRANCH  20  24
ENDBRANCH  16  18
ENDBRANCH  13  16
BRANCH  15  30
HETATM   30  C   UNL     1      -7.936  10.227  69.061  1.00  0.00    -0.125 C  
HETATM   31  H2  UNL     1      -7.895  10.492  71.139  1.00  0.00     0.000 HD 
HETATM   32  N   UNL     1      -7.336  10.739  70.323  1.00  0.00    -0.436 NA 
HETATM   33  H1  UNL     1      -6.373  10.415  70.406  1.00  0.00     0.000 HD 
BRANCH  30  34
HETATM   34  C   UNL     1      -7.736   8.695  69.091  1.00  0.00    -0.097 C  
BRANCH  34  35
HETATM   35  C   UNL     1      -8.428   7.878  70.165  1.00  0.00    -0.129 A  
HETATM   36  C   UNL     1      -6.420   8.252  71.742  1.00  0.00    -0.058 C  
HETATM   37  C   UNL     1     -10.266   6.481  70.969  1.00  0.00    -0.218 A  
HETATM   38  C   UNL     1     -10.362   7.142  68.598  1.00  0.00    -0.200 C  
HETATM   39  C   UNL     1      -7.789   7.699  71.421  1.00  0.00    -0.089 A  
HETATM   40  C   UNL     1      -9.648   7.198  69.925  1.00  0.00    -0.163 A  
HETATM   41  C   UNL     1      -9.678   6.380  72.226  1.00  0.00    -0.158 A  
HETATM   42  C   UNL     1      -8.432   6.974  72.436  1.00  0.00    -0.122 A  
BRANCH  41  43
HETATM   43  C   UNL     1     -10.286   5.630  73.360  1.00  0.00    -0.206 C  
HETATM   44  H2  UNL     1     -11.270   4.272  72.131  1.00  0.00     0.000 HD 
HETATM   45  H1  UNL     1     -11.506   4.043  73.872  1.00  0.00     0.000 HD 
HETATM   46  N   UNL     1     -11.089   4.556  73.095  1.00  0.00    -0.265 N  
HETATM   47  O   UNL     1     -10.083   5.955  74.527  1.00  0.00    -0.257 OA 
ENDBRANCH  41  43
ENDBRANCH  34  35
ENDBRANCH  30  34
ENDBRANCH  15  30
ENDBRANCH  12  13
ENDBRANCH   6  12
ENDBRANCH   2   3
TORSDOF 10
ENDMDL
MODEL      220
REMARK 921   NORMALIZED FREE ENERGY PREDICTED BY IDOCK:   -2.39 KCAL/MOL
REMARK 922        TOTAL FREE ENERGY PREDICTED BY IDOCK:   -6.66 KCAL/MOL
REMARK 923 INTER-LIGAND FREE ENERGY PREDICTED BY IDOCK:   -7.29 KCAL/MOL
REMARK 924 INTRA-LIGAND FREE ENERGY PREDICTED BY IDOCK:    0.63 KCAL/MOL
REMARK 927      BINDING AFFINITY PREDICTED BY RF-SCORE:    0.00 PKD
ROOT
HETATM    1  C   UNL     1     -11.388  12.862  63.304  1.00  0.00    -0.093 C  
HETATM    2  O   UNL     1     -12.015  12.120  64.351  1.00  0.00    -0.377 OA 
ENDROOT
BRANCH   2   3
HETATM    3  C   UNL     1     -11.232  11.781  65.427  1.00  0.00    -0.251 A  
HETATM    4  C   UNL     1     -10.412  10.650  65.465  1.00  0.00    -0.246 A  
HETATM    5  C   UNL     1      -9.564  10.417  66.553  1.00  0.00    -0.224 A  
HETATM    6  C   UNL     1      -9.537  11.282  67.650  1.00  0.00    -0.180 A  
HETATM    7  C   UNL     1     -10.406  12.385  67.640  1.00  0.00    -0.223 A  
HETATM    8  C   UNL     1     -12.109  13.852  66.635  1.00  0.00    -0.448 C  
HETATM    9  O   UNL     1     -12.388  14.446  65.458  1.00  0.00    -0.392 OA 
HETATM   10  C   UNL     1     -11.241  12.645  66.536  1.00  0.00    -0.342 A  
HETATM   11  O   UNL     1     -12.478  14.304  67.709  1.00  0.00    -0.122 OA 
BRANCH   6  12
HETATM   12  C   UNL     1      -8.582  11.083  68.811  1.00  0.00    -0.144 C  
BRANCH  12  13
HETATM   13  N   UNL     1      -7.167  10.881  68.453  1.00  0.00    -0.082 N  
HETATM   14  O   UNL     1      -5.142  11.738  67.728  1.00  0.00    -0.047 OA 
HETATM   15  C   UNL     1      -6.277  11.947  68.176  1.00  0.00    -0.051 C  
BRANCH  13  16
HETATM   16  C   UNL     1      -6.753   9.510  68.054  1.00  0.00    -0.063 C  
HETATM   17  C   UNL     1      -5.263   9.385  67.682  1.00  0.00    -0.037 C  
BRANCH  16  18
HETATM   18  C   UNL     1      -7.040   8.506  69.152  1.00  0.00    -0.064 A  
HETATM   19  C   UNL     1      -6.738   7.485  71.102  1.00  0.00    -0.046 A  
HETATM   20  C   UNL     1      -8.065   7.442  70.732  1.00  0.00    -0.110 A  
HETATM   21  N   UNL     1      -8.223   8.037  69.501  1.00  0.00    -0.120 NA 
HETATM   22  H   UNL     1      -9.087   8.102  68.963  1.00  0.00     0.000 HD 
HETATM   23  N   UNL     1      -6.094   8.133  70.077  1.00  0.00    -0.029 NA 
BRANCH  20  24
HETATM   24  C   UNL     1      -9.193   6.961  71.519  1.00  0.00    -0.151 A  
HETATM   25  C   UNL     1     -10.286   5.098  72.656  1.00  0.00    -0.248 A  
HETATM   26  C   UNL     1     -11.396   5.895  72.923  1.00  0.00    -0.266 A  
HETATM   27  C   UNL     1     -11.403   7.227  72.507  1.00  0.00    -0.338 A  
HETATM   28  C   UNL     1      -9.195   5.628  71.963  1.00  0.00    -0.155 A  
HETATM   29  C   UNL     1     -10.307   7.760  71.813  1.00  0.00    -0.243 A  
ENDBRANCH  20  24
ENDBRANCH  16  18
ENDBRANCH  13  16
BRANCH  15  30
HETATM   30  C   UNL     1      -6.763  13.412  68.489  1.00  0.00    -0.096 C  
HETATM   31  H2  UNL     1      -4.920  13.984  69.306  1.00  0.00     0.000 HD 
HETATM   32  N   UNL     1      -5.909  14.015  69.549  1.00  0.00    -0.092 NA 
HETATM   33  H1  UNL     1      -6.225  14.963  69.751  1.00  0.00     0.000 HD 
BRANCH  30  34
HETATM   34  C   UNL     1      -6.729  14.404  67.306  1.00  0.00     0.195 C  
BRANCH  34  35
HETATM   35  C   UNL     1      -7.325  15.788  67.482  1.00  0.00    -0.205 A  
HETATM   36  C   UNL     1      -5.316  16.814  66.231  1.00  0.00     0.408 C  
HETATM   37  C   UNL     1      -9.024  17.313  68.358  1.00  0.00    -0.269 A  
HETATM   38  C   UNL     1      -9.232  14.953  69.033  1.00  0.00    -0.176 C  
HETATM   39  C   UNL     1      -6.643  16.913  66.946  1.00  0.00    -0.249 A  
HETATM   40  C   UNL     1      -8.492  16.012  68.255  1.00  0.00    -0.177 A  
HETATM   41  C   UNL     1      -8.398  18.401  67.758  1.00  0.00    -0.273 A  
HETATM   42  C   UNL     1      -7.200  18.195  67.072  1.00  0.00    -0.221 A  
BRANCH  41  43
HETATM   43  C   UNL     1      -8.915  19.795  67.841  1.00  0.00    -0.322 C  
HETATM   44  H2  UNL     1     -10.576  19.272  68.978  1.00  0.00     0.000 HD 
HETATM   45  H1  UNL     1     -10.426  20.992  68.584  1.00  0.00     0.000 HD 
HETATM   46  N   UNL     1     -10.073  20.037  68.528  1.00  0.00    -0.412 N  
HETATM   47  O   UNL     1      -8.327  20.731  67.307  1.00  0.00    -0.308 OA 
ENDBRANCH  41  43
ENDBRANCH  34  35
ENDBRANCH  30  34
ENDBRANCH  15  30
ENDBRANCH  12  13
ENDBRANCH   6  12
ENDBRANCH   2   3
TORSDOF 10
ENDMDL
MODEL      221
REMARK 921   NORMALIZED FREE ENERGY PREDICTED BY IDOCK:   -2.35 KCAL/MOL
REMARK 922        TOTAL FREE ENERGY PREDICTED BY IDOCK:   -6.60 KCAL/MOL
REMARK 923 INTER-LIGAND FREE ENERGY PREDICTED BY IDOCK:   -6.12 KCAL/MOL
REMARK 924 INTRA-LIGAND FREE ENERGY PREDICTED BY IDOCK:   -0.48 KCAL/MOL
REMARK 927      BINDING AFFINITY PREDICTED BY RF-SCORE:    0.00 PKD
ROOT
HETATM    1  C   UNL     1     -11.400  16.260  68.506  1.00  0.00    -0.330 C  
HETATM    2  O   UNL     1     -10.538  15.682  67.525  1.00  0.00    -0.283 OA 
ENDROOT
BRANCH   2   3
HETATM    3  C   UNL     1      -9.622  14.760  67.966  1.00  0.00    -0.209 A  
HETATM    4  C   UNL     1      -9.966  13.497  68.456  1.00  0.00    -0.202 A  
HETATM    5  C   UNL     1      -8.978  12.568  68.797  1.00  0.00     0.159 A  
HETATM    6  C   UNL     1      -7.620  12.883  68.695  1.00  0.00    -0.085 A  
HETATM    7  C   UNL     1      -7.275  14.173  68.262  1.00  0.00    -0.116 A  
HETATM    8  C   UNL     1      -7.772  16.437  67.432  1.00  0.00    -0.154 C  
HETATM    9  O   UNL     1      -8.561  17.048  66.525  1.00  0.00    -0.230 OA 
HETATM   10  C   UNL     1      -8.261  15.105  67.888  1.00  0.00    -0.152 A  
HETATM   11  O   UNL     1      -6.705  16.901  67.802  1.00  0.00    -0.137 OA 
BRANCH   6  12
HETATM   12  C   UNL     1      -6.532  11.871  68.999  1.00  0.00    -0.086 C  
BRANCH  12  13
HETATM   13  N   UNL     1      -6.636  10.582  68.292  1.00  0.00    -0.059 N  
HETATM   14  O   UNL     1      -6.496   8.271  68.311  1.00  0.00    -0.056 OA 
HETATM   15  C   UNL     1      -6.561   9.330  68.950  1.00  0.00    -0.048 C  
BRANCH  13  16
HETATM   16  C   UNL     1      -6.489  10.599  66.814  1.00  0.00    -0.086 C  
HETATM   17  C   UNL     1      -5.677   9.420  66.248  1.00  0.00    -0.053 C  
BRANCH  16  18
HETATM   18  C   UNL     1      -7.839  10.603  66.125  1.00  0.00    -0.152 A  
HETATM   19  C   UNL     1      -9.949   9.994  65.785  1.00  0.00    -0.276 A  
HETATM   20  C   UNL     1      -9.743  11.290  65.363  1.00  0.00    -0.231 A  
HETATM   21  N   UNL     1      -8.421  11.632  65.538  1.00  0.00    -0.333 NA 
HETATM   22  H   UNL     1      -7.978  12.509  65.266  1.00  0.00     0.000 HD 
HETATM   23  N   UNL     1      -8.727   9.559  66.236  1.00  0.00    -0.140 NA 
BRANCH  20  24
HETATM   24  C   UNL     1     -10.743  12.244  64.900  1.00  0.00    -0.335 A  
HETATM   25  C   UNL     1     -11.304  14.548  64.324  1.00  0.00    -0.135 A  
HETATM   26  C   UNL     1     -12.638  14.193  64.147  1.00  0.00    -0.113 A  
HETATM   27  C   UNL     1     -13.028  12.866  64.328  1.00  0.00    -0.051 A  
HETATM   28  C   UNL     1     -10.367  13.581  64.695  1.00  0.00    -0.406 A  
HETATM   29  C   UNL     1     -12.086  11.894  64.697  1.00  0.00    -0.221 A  
ENDBRANCH  20  24
ENDBRANCH  16  18
ENDBRANCH  13  16
BRANCH  15  30
HETATM   30  C   UNL     1      -6.597   9.321  70.524  1.00  0.00    -0.072 C  
HETATM   31  H2  UNL     1      -8.639   8.853  70.600  1.00  0.00     0.000 HD 
HETATM   32  N   UNL     1      -7.992   9.531  71.001  1.00  0.00    -0.309 NA 
HETATM   33  H1  UNL     1      -8.015   9.525  72.021  1.00  0.00     0.000 HD 
BRANCH  30  34
HETATM   34  C   UNL     1      -6.110   8.024  71.206  1.00  0.00    -0.034 C  
BRANCH  34  35
HETATM   35  C   UNL     1      -7.132   7.048  71.760  1.00  0.00    -0.070 A  
HETATM   36  C   UNL     1      -6.980   5.659  69.592  1.00  0.00    -0.063 C  
HETATM   37  C   UNL     1      -8.715   6.320  73.474  1.00  0.00    -0.126 A  
HETATM   38  C   UNL     1      -7.639   8.504  73.849  1.00  0.00    -0.117 C  
HETATM   39  C   UNL     1      -7.513   5.924  70.979  1.00  0.00    -0.094 A  
HETATM   40  C   UNL     1      -7.799   7.275  72.990  1.00  0.00    -0.113 A  
HETATM   41  C   UNL     1      -9.021   5.175  72.746  1.00  0.00    -0.123 A  
HETATM   42  C   UNL     1      -8.432   4.996  71.493  1.00  0.00    -0.124 A  
BRANCH  41  43
HETATM   43  C   UNL     1      -9.984   4.138  73.210  1.00  0.00    -0.136 C  
HETATM   44  H2  UNL     1     -10.227   3.303  71.321  1.00  0.00     0.000 HD 
HETATM   45  H1  UNL     1     -11.159   2.544  72.621  1.00  0.00     0.000 HD 
HETATM   46  N   UNL     1     -10.500   3.254  72.303  1.00  0.00    -0.036 N  
HETATM   47  O   UNL     1     -10.327   4.060  74.386  1.00  0.00    -0.184 OA 
ENDBRANCH  41  43
ENDBRANCH  34  35
ENDBRANCH  30  34
ENDBRANCH  15  30
ENDBRANCH  12  13
ENDBRANCH   6  12
ENDBRANCH   2   3
TORSDOF 10
ENDMDL
MODEL      222
REMARK 921   NORMALIZED FREE ENERGY PREDICTED BY IDOCK:   -2.28 KCAL/MOL
REMARK 922        TOTAL FREE ENERGY PREDICTED BY IDOCK:   -6.48 KCAL/MOL
REMARK 923 INTER-LIGAND FREE ENERGY PREDICTED BY IDOCK:   -5.44 KCAL/MOL
REMARK 924 INTRA-LIGAND FREE ENERGY PREDICTED BY IDOCK:   -1.04 KCAL/MOL
REMARK 927      BINDING AFFINITY PREDICTED BY RF-SCORE:    0.00 PKD
ROOT
HETATM    1  C   UNL     1     -13.687  11.080  71.280  1.00  0.00     0.710 C  
HETATM    2  O   UNL     1     -13.327   9.885  70.585  1.00  0.00    -0.249 OA 
ENDROOT
BRANCH   2   3
HETATM    3  C   UNL     1     -12.097   9.865  69.976  1.00  0.00     0.051 A  
HETATM    4  C   UNL     1     -11.671  10.825  69.055  1.00  0.00    -0.357 A  
HETATM    5  C   UNL     1     -10.368  10.803  68.547  1.00  0.00    -0.202 A  
HETATM    6  C   UNL     1      -9.464   9.802  68.914  1.00  0.00    -0.161 A  
HETATM    7  C   UNL     1      -9.910   8.802  69.792  1.00  0.00    -0.189 A  
HETATM    8  C   UNL     1     -11.565   7.725  71.264  1.00  0.00    -0.277 C  
HETATM    9  O   UNL     1     -12.458   8.054  72.219  1.00  0.00    -0.309 OA 
HETATM   10  C   UNL     1     -11.211   8.833  70.333  1.00  0.00    -0.247 A  
HETATM   11  O   UNL     1     -11.032   6.628  71.204  1.00  0.00    -0.239 OA 
BRANCH   6  12
HETATM   12  C   UNL     1      -8.028   9.793  68.426  1.00  0.00    -0.089 C  
BRANCH  12  13
HETATM   13  N   UNL     1      -7.718  10.719  67.322  1.00  0.00    -0.107 N  
HETATM   14  O   UNL     1      -7.593  11.160  65.053  1.00  0.00     0.325 OA 
HETATM   15  C   UNL     1      -8.007  10.433  65.966  1.00  0.00    -0.144 C  
BRANCH  13  16
HETATM   16  C   UNL     1      -6.781  11.837  67.612  1.00  0.00    -0.091 C  
HETATM   17  C   UNL     1      -5.679  12.025  66.553  1.00  0.00     0.304 C  
BRANCH  16  18
HETATM   18  C   UNL     1      -7.519  13.153  67.748  1.00  0.00    -0.150 A  
HETATM   19  C   UNL     1      -8.767  14.688  68.760  1.00  0.00    -0.166 A  
HETATM   20  C   UNL     1      -7.905  15.279  67.860  1.00  0.00    -0.139 A  
HETATM   21  N   UNL     1      -7.177  14.309  67.210  1.00  0.00    -0.317 NA 
HETATM   22  H   UNL     1      -6.502  14.454  66.459  1.00  0.00     0.000 HD 
HETATM   23  N   UNL     1      -8.535  13.339  68.656  1.00  0.00    -0.052 NA 
BRANCH  20  24
HETATM   24  C   UNL     1      -7.670  16.702  67.657  1.00  0.00    -0.183 A  
HETATM   25  C   UNL     1      -7.532  18.942  68.618  1.00  0.00    -0.355 A  
HETATM   26  C   UNL     1      -7.369  19.490  67.350  1.00  0.00    -0.261 A  
HETATM   27  C   UNL     1      -7.338  18.652  66.235  1.00  0.00    -0.287 A  
HETATM   28  C   UNL     1      -7.679  17.560  68.769  1.00  0.00    -0.252 A  
HETATM   29  C   UNL     1      -7.482  17.265  66.386  1.00  0.00    -0.336 A  
ENDBRANCH  20  24
ENDBRANCH  16  18
ENDBRANCH  13  16
BRANCH  15  30
HETATM   30  C   UNL     1      -8.903   9.177  65.653  1.00  0.00    -0.185 C  
HETATM   31  H2  UNL     1      -9.258   9.765  63.673  1.00  0.00     0.000 HD 
HETATM   32  N   UNL     1      -9.787   9.460  64.489  1.00  0.00    -0.263 NA 
HETATM   33  H1  UNL     1     -10.367   8.646  64.287  1.00  0.00     0.000 HD 
BRANCH  30  34
HETATM   34  C   UNL     1      -8.147   7.876  65.301  1.00  0.00    -0.135 C  
BRANCH  34  35
HETATM   35  C   UNL     1      -8.156   6.724  66.287  1.00  0.00    -0.112 A  
HETATM   36  C   UNL     1      -5.684   6.234  65.737  1.00  0.00    -0.021 C  
HETATM   37  C   UNL     1      -9.286   5.249  67.876  1.00  0.00    -0.131 A  
HETATM   38  C   UNL     1     -10.714   6.880  66.705  1.00  0.00    -0.296 C  
HETATM   39  C   UNL     1      -6.967   5.972  66.489  1.00  0.00    -0.067 A  
HETATM   40  C   UNL     1      -9.341   6.303  66.943  1.00  0.00    -0.148 A  
HETATM   41  C   UNL     1      -8.099   4.571  68.135  1.00  0.00    -0.087 A  
HETATM   42  C   UNL     1      -6.952   4.925  67.423  1.00  0.00    -0.061 A  
BRANCH  41  43
HETATM   43  C   UNL     1      -7.989   3.447  69.106  1.00  0.00    -0.049 C  
HETATM   44  H2  UNL     1      -5.923   3.606  69.285  1.00  0.00     0.000 HD 
HETATM   45  H1  UNL     1      -6.681   2.331  70.252  1.00  0.00     0.000 HD 
HETATM   46  N   UNL     1      -6.756   3.101  69.587  1.00  0.00    -0.033 N  
HETATM   47  O   UNL     1      -8.977   2.824  69.484  1.00  0.00    -0.084 OA 
ENDBRANCH  41  43
ENDBRANCH  34  35
ENDBRANCH  30  34
ENDBRANCH  15  30
ENDBRANCH  12  13
ENDBRANCH   6  12
ENDBRANCH   2   3
TORSDOF 10
ENDMDL
MODEL      223
REMARK 921   NORMALIZED FREE ENERGY PREDICTED BY IDOCK:   -2.22 KCAL/MOL
REMARK 922        TOTAL FREE ENERGY PREDICTED BY IDOCK:   -6.39 KCAL/MOL
REMARK 923 INTER-LIGAND FREE ENERGY PREDICTED BY IDOCK:   -7.86 KCAL/MOL
REMARK 924 INTRA-LIGAND FREE ENERGY PREDICTED BY IDOCK:    1.48 KCAL/MOL
REMARK 927      BINDING AFFINITY PREDICTED BY RF-SCORE:    0.00 PKD
ROOT
HETATM    1  C   UNL     1      -6.941  13.759  69.748  1.00  0.00     0.183 C  
HETATM    2  O   UNL     1      -5.707  13.092  69.478  1.00  0.00    -0.083 OA 
ENDROOT
BRANCH   2   3
HETATM    3  C   UNL     1      -5.753  11.727  69.347  1.00  0.00    -0.067 A  
HETATM    4  C   UNL     1      -5.805  10.844  70.429  1.00  0.00    -0.128 A  
HETATM    5  C   UNL     1      -5.950   9.468  70.225  1.00  0.00    -0.047 A  
HETATM    6  C   UNL     1      -6.011   8.929  68.936  1.00  0.00    -0.044 A  
HETATM    7  C   UNL     1      -5.897   9.809  67.849  1.00  0.00    -0.040 A  
HETATM    8  C   UNL     1      -5.680  12.032  66.813  1.00  0.00     0.019 C  
HETATM    9  O   UNL     1      -6.194  13.273  66.927  1.00  0.00     0.015 OA 
HETATM   10  C   UNL     1      -5.781  11.199  68.044  1.00  0.00    -0.042 A  
HETATM   11  O   UNL     1      -5.230  11.596  65.765  1.00  0.00    -0.250 OA 
BRANCH   6  12
HETATM   12  C   UNL     1      -6.233   7.449  68.691  1.00  0.00    -0.028 C  
BRANCH  12  13
HETATM   13  N   UNL     1      -7.542   7.079  68.124  1.00  0.00    -0.105 N  
HETATM   14  O   UNL     1      -9.361   5.649  68.052  1.00  0.00    -0.107 OA 
HETATM   15  C   UNL     1      -8.344   6.035  68.644  1.00  0.00    -0.113 C  
BRANCH  13  16
HETATM   16  C   UNL     1      -7.873   7.601  66.772  1.00  0.00    -0.107 C  
HETATM   17  C   UNL     1      -8.259   6.513  65.754  1.00  0.00    -0.135 C  
BRANCH  16  18
HETATM   18  C   UNL     1      -9.009   8.602  66.831  1.00  0.00    -0.138 A  
HETATM   19  C   UNL     1     -10.236  10.234  67.707  1.00  0.00    -0.187 A  
HETATM   20  C   UNL     1     -10.293  10.269  66.330  1.00  0.00    -0.186 A  
HETATM   21  N   UNL     1      -9.566   9.223  65.808  1.00  0.00    -0.295 NA 
HETATM   22  H   UNL     1      -9.475   8.976  64.823  1.00  0.00     0.000 HD 
HETATM   23  N   UNL     1      -9.446   9.154  68.013  1.00  0.00    -0.141 NA 
BRANCH  20  24
HETATM   24  C   UNL     1     -10.910  11.288  65.491  1.00  0.00    -0.244 A  
HETATM   25  C   UNL     1     -12.527  13.105  65.281  1.00  0.00    -0.550 A  
HETATM   26  C   UNL     1     -12.267  13.196  63.917  1.00  0.00    -0.503 A  
HETATM   27  C   UNL     1     -11.320  12.350  63.337  1.00  0.00    -0.507 A  
HETATM   28  C   UNL     1     -11.853  12.161  66.059  1.00  0.00    -0.328 A  
HETATM   29  C   UNL     1     -10.641  11.405  64.120  1.00  0.00    -0.430 A  
ENDBRANCH  20  24
ENDBRANCH  16  18
ENDBRANCH  13  16
BRANCH  15  30
HETATM   30  C   UNL     1      -7.924   5.400  70.023  1.00  0.00    -0.082 C  
HETATM   31  H2  UNL     1      -5.901   5.887  69.774  1.00  0.00     0.000 HD 
HETATM   32  N   UNL     1      -6.471   5.076  70.011  1.00  0.00    -0.033 NA 
HETATM   33  H1  UNL     1      -6.200   4.665  70.904  1.00  0.00     0.000 HD 
BRANCH  30  34
HETATM   34  C   UNL     1      -8.149   6.281  71.271  1.00  0.00    -0.118 C  
BRANCH  34  35
HETATM   35  C   UNL     1      -9.463   7.023  71.429  1.00  0.00    -0.159 A  
HETATM   36  C   UNL     1     -10.736   4.781  71.352  1.00  0.00     0.049 C  
HETATM   37  C   UNL     1     -10.777   9.077  71.605  1.00  0.00    -0.441 A  
HETATM   38  C   UNL     1      -8.365   9.363  71.195  1.00  0.00     0.076 C  
HETATM   39  C   UNL     1     -10.675   6.284  71.483  1.00  0.00    -0.292 A  
HETATM   40  C   UNL     1      -9.534   8.438  71.421  1.00  0.00    -0.251 A  
HETATM   41  C   UNL     1     -11.953   8.347  71.745  1.00  0.00    -0.380 A  
HETATM   42  C   UNL     1     -11.895   6.954  71.662  1.00  0.00    -0.363 A  
BRANCH  41  43
HETATM   43  C   UNL     1     -13.291   8.972  71.936  1.00  0.00    -0.417 C  
HETATM   44  H2  UNL     1     -14.324   7.178  71.732  1.00  0.00     0.000 HD 
HETATM   45  H1  UNL     1     -15.324   8.611  72.024  1.00  0.00     0.000 HD 
HETATM   46  N   UNL     1     -14.407   8.183  71.893  1.00  0.00    -0.454 N  
HETATM   47  O   UNL     1     -13.416  10.177  72.130  1.00  0.00    -0.411 OA 
ENDBRANCH  41  43
ENDBRANCH  34  35
ENDBRANCH  30  34
ENDBRANCH  15  30
ENDBRANCH  12  13
ENDBRANCH   6  12
ENDBRANCH   2   3
TORSDOF 10
ENDMDL
MODEL      224
REMARK 921   NORMALIZED FREE ENERGY PREDICTED BY IDOCK:   -2.18 KCAL/MOL
REMARK 922        TOTAL FREE ENERGY PREDICTED BY IDOCK:   -6.33 KCAL/MOL
REMARK 923 INTER-LIGAND FREE ENERGY PREDICTED BY IDOCK:   -7.03 KCAL/MOL
REMARK 924 INTRA-LIGAND FREE ENERGY PREDICTED BY IDOCK:    0.70 KCAL/MOL
REMARK 927      BINDING AFFINITY PREDICTED BY RF-SCORE:    0.00 PKD
ROOT
HETATM    1  C   UNL     1      -7.670   7.529  62.343  1.00  0.00    -0.119 C  
HETATM    2  O   UNL     1      -8.027   7.265  63.701  1.00  0.00    -0.129 OA 
ENDROOT
BRANCH   2   3
HETATM    3  C   UNL     1      -7.952   8.316  64.580  1.00  0.00    -0.146 A  
HETATM    4  C   UNL     1      -8.479   9.584  64.322  1.00  0.00    -0.193 A  
HETATM    5  C   UNL     1      -8.456  10.583  65.301  1.00  0.00    -0.175 A  
HETATM    6  C   UNL     1      -7.873  10.359  66.551  1.00  0.00    -0.124 A  
HETATM    7  C   UNL     1      -7.288   9.106  66.789  1.00  0.00    -0.086 A  
HETATM    8  C   UNL     1      -6.689   6.792  66.194  1.00  0.00    -0.052 C  
HETATM    9  O   UNL     1      -7.244   5.701  65.629  1.00  0.00    -0.069 OA 
HETATM   10  C   UNL     1      -7.333   8.083  65.821  1.00  0.00    -0.079 A  
HETATM   11  O   UNL     1      -5.777   6.728  67.003  1.00  0.00    -0.013 OA 
BRANCH   6  12
HETATM   12  C   UNL     1      -7.892  11.405  67.649  1.00  0.00    -0.122 C  
BRANCH  12  13
HETATM   13  N   UNL     1      -9.158  12.141  67.815  1.00  0.00    -0.181 N  
HETATM   14  O   UNL     1     -11.420  12.149  68.306  1.00  0.00    -0.259 OA 
HETATM   15  C   UNL     1     -10.338  11.548  68.326  1.00  0.00    -0.197 C  
BRANCH  13  16
HETATM   16  C   UNL     1      -9.283  13.450  67.122  1.00  0.00    -0.240 C  
HETATM   17  C   UNL     1     -10.170  13.414  65.863  1.00  0.00    -0.302 C  
BRANCH  16  18
HETATM   18  C   UNL     1      -9.839  14.513  68.047  1.00  0.00    -0.222 A  
HETATM   19  C   UNL     1     -11.157  16.198  68.647  1.00  0.00    -0.356 A  
HETATM   20  C   UNL     1     -10.802  15.445  69.746  1.00  0.00    -0.288 A  
HETATM   21  N   UNL     1      -9.948  14.436  69.361  1.00  0.00    -0.423 NA 
HETATM   22  H   UNL     1      -9.489  13.760  69.971  1.00  0.00     0.000 HD 
HETATM   23  N   UNL     1     -10.514  15.616  67.582  1.00  0.00    -0.276 NA 
BRANCH  20  24
HETATM   24  C   UNL     1     -11.301  15.569  71.109  1.00  0.00    -0.442 A  
HETATM   25  C   UNL     1     -12.614  14.619  72.934  1.00  0.00    -0.451 A  
HETATM   26  C   UNL     1     -12.434  15.777  73.684  1.00  0.00    -0.692 A  
HETATM   27  C   UNL     1     -11.676  16.826  73.161  1.00  0.00    -0.017 A  
HETATM   28  C   UNL     1     -12.051  14.517  71.660  1.00  0.00    -0.379 A  
HETATM   29  C   UNL     1     -11.108  16.722  71.883  1.00  0.00     0.909 A  
ENDBRANCH  20  24
ENDBRANCH  16  18
ENDBRANCH  13  16
BRANCH  15  30
HETATM   30  C   UNL     1     -10.226  10.108  68.954  1.00  0.00    -0.199 C  
HETATM   31  H2  UNL     1     -12.277   9.993  69.372  1.00  0.00     0.000 HD 
HETATM   32  N   UNL     1     -11.388   9.853  69.850  1.00  0.00    -0.324 NA 
HETATM   33  H1  UNL     1     -11.314   8.921  70.257  1.00  0.00     0.000 HD 
BRANCH  30  34
HETATM   34  C   UNL     1     -10.200   8.932  67.953  1.00  0.00    -0.274 C  
BRANCH  34  35
HETATM   35  C   UNL     1      -9.768   7.559  68.434  1.00  0.00    -0.161 A  
HETATM   36  C   UNL     1      -8.783   8.618  70.570  1.00  0.00    -0.178 C  
HETATM   37  C   UNL     1      -9.515   5.146  68.134  1.00  0.00    -0.160 A  
HETATM   38  C   UNL     1     -10.411   6.391  66.206  1.00  0.00     0.120 C  
HETATM   39  C   UNL     1      -9.113   7.437  69.689  1.00  0.00    -0.140 A  
HETATM   40  C   UNL     1      -9.902   6.403  67.626  1.00  0.00    -0.138 A  
HETATM   41  C   UNL     1      -8.953   5.019  69.400  1.00  0.00    -0.125 A  
HETATM   42  C   UNL     1      -8.738   6.170  70.161  1.00  0.00    -0.141 A  
BRANCH  41  43
HETATM   43  C   UNL     1      -8.523   3.717  69.982  1.00  0.00    -0.059 C  
HETATM   44  H2  UNL     1      -8.875   4.307  71.945  1.00  0.00     0.000 HD 
HETATM   45  H1  UNL     1      -8.263   2.658  71.737  1.00  0.00     0.000 HD 
HETATM   46  N   UNL     1      -8.558   3.549  71.339  1.00  0.00    -0.074 N  
HETATM   47  O   UNL     1      -8.137   2.792  69.273  1.00  0.00    -0.048 OA 
ENDBRANCH  41  43
ENDBRANCH  34  35
ENDBRANCH  30  34
ENDBRANCH  15  30
ENDBRANCH  12  13
ENDBRANCH   6  12
ENDBRANCH   2   3
TORSDOF 10
ENDMDL
MODEL      225
REMARK 921   NORMALIZED FREE ENERGY PREDICTED BY IDOCK:   -2.15 KCAL/MOL
REMARK 922        TOTAL FREE ENERGY PREDICTED BY IDOCK:   -6.28 KCAL/MOL
REMARK 923 INTER-LIGAND FREE ENERGY PREDICTED BY IDOCK:   -6.56 KCAL/MOL
REMARK 924 INTRA-LIGAND FREE ENERGY PREDICTED BY IDOCK:    0.28 KCAL/MOL
REMARK 927      BINDING AFFINITY PREDICTED BY RF-SCORE:    0.00 PKD
ROOT
HETATM    1  C   UNL     1      -7.440   8.360  73.257  1.00  0.00    -0.057 C  
HETATM    2  O   UNL     1      -6.530   8.141  72.178  1.00  0.00    -0.052 OA 
ENDROOT
BRANCH   2   3
HETATM    3  C   UNL     1      -6.881   8.656  70.955  1.00  0.00    -0.061 A  
HETATM    4  C   UNL     1      -7.491   9.901  70.781  1.00  0.00     0.170 A  
HETATM    5  C   UNL     1      -7.731  10.409  69.501  1.00  0.00    -0.159 A  
HETATM    6  C   UNL     1      -7.404   9.675  68.356  1.00  0.00    -0.075 A  
HETATM    7  C   UNL     1      -6.848   8.398  68.531  1.00  0.00    -0.064 A  
HETATM    8  C   UNL     1      -5.971   6.529  69.873  1.00  0.00    -0.022 C  
HETATM    9  O   UNL     1      -5.161   6.314  70.929  1.00  0.00    -0.013 OA 
HETATM   10  C   UNL     1      -6.574   7.890  69.816  1.00  0.00    -0.034 A  
HETATM   11  O   UNL     1      -6.146   5.701  68.992  1.00  0.00    -0.022 OA 
BRANCH   6  12
HETATM   12  C   UNL     1      -7.597  10.231  66.959  1.00  0.00    -0.099 C  
BRANCH  12  13
HETATM   13  N   UNL     1      -8.884  10.905  66.706  1.00  0.00    -0.142 N  
HETATM   14  O   UNL     1     -11.058  10.836  65.916  1.00  0.00    -0.007 OA 
HETATM   15  C   UNL     1     -10.043  10.221  66.268  1.00  0.00    -0.236 C  
BRANCH  13  16
HETATM   16  C   UNL     1      -8.868  12.387  66.595  1.00  0.00    -0.156 C  
HETATM   17  C   UNL     1      -9.811  12.947  65.514  1.00  0.00    -0.159 C  
BRANCH  16  18
HETATM   18  C   UNL     1      -9.234  13.042  67.911  1.00  0.00    -0.208 A  
HETATM   19  C   UNL     1      -9.270  14.656  69.437  1.00  0.00     0.123 A  
HETATM   20  C   UNL     1     -10.413  13.891  69.514  1.00  0.00     0.232 A  
HETATM   21  N   UNL     1     -10.351  12.869  68.594  1.00  0.00    -0.353 NA 
HETATM   22  H   UNL     1     -11.034  12.122  68.466  1.00  0.00     0.000 HD 
HETATM   23  N   UNL     1      -8.516  14.089  68.440  1.00  0.00    -0.165 NA 
BRANCH  20  24
HETATM   24  C   UNL     1     -11.592  14.132  70.336  1.00  0.00    -0.236 A  
HETATM   25  C   UNL     1     -13.391  13.215  71.707  1.00  0.00    -0.477 A  
HETATM   26  C   UNL     1     -13.962  14.478  71.827  1.00  0.00    -0.556 A  
HETATM   27  C   UNL     1     -13.346  15.574  71.220  1.00  0.00    -0.588 A  
HETATM   28  C   UNL     1     -12.216  13.046  70.970  1.00  0.00    -0.232 A  
HETATM   29  C   UNL     1     -12.165  15.404  70.483  1.00  0.00    -0.436 A  
ENDBRANCH  20  24
ENDBRANCH  16  18
ENDBRANCH  13  16
BRANCH  15  30
HETATM   30  C   UNL     1     -10.016   8.646  66.274  1.00  0.00    -0.217 C  
HETATM   31  H2  UNL     1      -8.399   8.553  67.605  1.00  0.00     0.000 HD 
HETATM   32  N   UNL     1      -8.675   8.163  66.704  1.00  0.00    -0.133 NA 
HETATM   33  H1  UNL     1      -8.658   7.143  66.708  1.00  0.00     0.000 HD 
BRANCH  30  34
HETATM   34  C   UNL     1     -11.033   7.954  67.208  1.00  0.00    -0.016 C  
BRANCH  34  35
HETATM   35  C   UNL     1     -10.538   7.288  68.479  1.00  0.00    -0.207 A  
HETATM   36  C   UNL     1     -10.214   5.076  67.193  1.00  0.00    -0.234 C  
HETATM   37  C   UNL     1     -10.054   7.298  70.875  1.00  0.00    -0.192 A  
HETATM   38  C   UNL     1     -11.114   9.331  69.974  1.00  0.00    -0.228 C  
HETATM   39  C   UNL     1     -10.138   5.926  68.439  1.00  0.00    -0.206 A  
HETATM   40  C   UNL     1     -10.557   7.951  69.732  1.00  0.00    -0.242 A  
HETATM   41  C   UNL     1      -9.582   5.991  70.814  1.00  0.00    -0.197 A  
HETATM   42  C   UNL     1      -9.646   5.307  69.598  1.00  0.00    -0.225 A  
BRANCH  41  43
HETATM   43  C   UNL     1      -9.045   5.254  71.992  1.00  0.00    -0.137 C  
HETATM   44  H2  UNL     1     -10.371   6.132  73.333  1.00  0.00     0.000 HD 
HETATM   45  H1  UNL     1      -9.232   4.968  74.030  1.00  0.00     0.000 HD 
HETATM   46  N   UNL     1      -9.599   5.473  73.223  1.00  0.00    -0.146 N  
HETATM   47  O   UNL     1      -8.117   4.458  71.885  1.00  0.00    -0.093 OA 
ENDBRANCH  41  43
ENDBRANCH  34  35
ENDBRANCH  30  34
ENDBRANCH  15  30
ENDBRANCH  12  13
ENDBRANCH   6  12
ENDBRANCH   2   3
TORSDOF 10
ENDMDL
MODEL      226
REMARK 921   NORMALIZED FREE ENERGY PREDICTED BY IDOCK:   -2.07 KCAL/MOL
REMARK 922        TOTAL FREE ENERGY PREDICTED BY IDOCK:   -6.15 KCAL/MOL
REMARK 923 INTER-LIGAND FREE ENERGY PREDICTED BY IDOCK:   -5.61 KCAL/MOL
REMARK 924 INTRA-LIGAND FREE ENERGY PREDICTED BY IDOCK:   -0.55 KCAL/MOL
REMARK 927      BINDING AFFINITY PREDICTED BY RF-SCORE:    0.00 PKD
ROOT
HETATM    1  C   UNL     1      -7.158  16.943  69.303  1.00  0.00    -0.192 C  
HETATM    2  O   UNL     1      -8.305  16.207  69.733  1.00  0.00     0.080 OA 
ENDROOT
BRANCH   2   3
HETATM    3  C   UNL     1      -8.372  14.887  69.363  1.00  0.00    -0.069 A  
HETATM    4  C   UNL     1      -7.261  14.043  69.289  1.00  0.00    -0.016 A  
HETATM    5  C   UNL     1      -7.413  12.683  69.001  1.00  0.00     0.098 A  
HETATM    6  C   UNL     1      -8.671  12.132  68.742  1.00  0.00     0.109 A  
HETATM    7  C   UNL     1      -9.780  12.992  68.755  1.00  0.00     0.049 A  
HETATM    8  C   UNL     1     -10.893  15.166  69.068  1.00  0.00    -0.242 C  
HETATM    9  O   UNL     1     -10.900  16.202  69.931  1.00  0.00    -0.313 OA 
HETATM   10  C   UNL     1      -9.642  14.357  69.073  1.00  0.00    -0.059 A  
HETATM   11  O   UNL     1     -11.860  14.868  68.384  1.00  0.00    -0.319 OA 
BRANCH   6  12
HETATM   12  C   UNL     1      -8.866  10.650  68.490  1.00  0.00    -0.148 C  
BRANCH  12  13
HETATM   13  N   UNL     1      -9.973  10.291  67.585  1.00  0.00    -0.173 N  
HETATM   14  O   UNL     1     -11.312  10.789  65.764  1.00  0.00     0.213 OA 
HETATM   15  C   UNL     1     -10.285  11.023  66.414  1.00  0.00    -0.236 C  
BRANCH  13  16
HETATM   16  C   UNL     1     -10.986   9.329  68.093  1.00  0.00    -0.002 C  
HETATM   17  C   UNL     1     -10.849   7.908  67.517  1.00  0.00    -0.152 C  
BRANCH  16  18
HETATM   18  C   UNL     1     -10.935   9.222  69.603  1.00  0.00    -0.175 A  
HETATM   19  C   UNL     1     -11.679   9.456  71.684  1.00  0.00    -0.398 A  
HETATM   20  C   UNL     1     -10.833   8.372  71.590  1.00  0.00    -0.268 A  
HETATM   21  N   UNL     1     -10.346   8.272  70.307  1.00  0.00    -0.204 NA 
HETATM   22  H   UNL     1      -9.663   7.596  69.965  1.00  0.00     0.000 HD 
HETATM   23  N   UNL     1     -11.710  10.005  70.425  1.00  0.00    -0.279 NA 
BRANCH  20  24
HETATM   24  C   UNL     1     -10.543   7.379  72.616  1.00  0.00    -0.322 A  
HETATM   25  C   UNL     1      -9.145   6.678  74.491  1.00  0.00    -0.221 A  
HETATM   26  C   UNL     1      -9.810   5.457  74.546  1.00  0.00    -0.233 A  
HETATM   27  C   UNL     1     -10.851   5.197  73.654  1.00  0.00    -0.363 A  
HETATM   28  C   UNL     1      -9.511   7.630  73.535  1.00  0.00    -0.347 A  
HETATM   29  C   UNL     1     -11.220   6.154  72.698  1.00  0.00    -0.312 A  
ENDBRANCH  20  24
ENDBRANCH  16  18
ENDBRANCH  13  16
BRANCH  15  30
HETATM   30  C   UNL     1      -9.266  12.127  65.942  1.00  0.00    -0.067 C  
HETATM   31  H2  UNL     1      -8.311  10.844  64.587  1.00  0.00     0.000 HD 
HETATM   32  N   UNL     1      -8.065  11.485  65.340  1.00  0.00    -0.133 NA 
HETATM   33  H1  UNL     1      -7.405  12.200  65.035  1.00  0.00     0.000 HD 
BRANCH  30  34
HETATM   34  C   UNL     1      -9.787  13.121  64.881  1.00  0.00    -0.044 C  
BRANCH  34  35
HETATM   35  C   UNL     1      -9.943  14.585  65.250  1.00  0.00    -0.322 A  
HETATM   36  C   UNL     1     -12.205  14.656  64.012  1.00  0.00    -0.226 C  
HETATM   37  C   UNL     1      -9.125  16.658  66.255  1.00  0.00    -0.333 A  
HETATM   38  C   UNL     1      -7.552  14.762  66.247  1.00  0.00     1.946 C  
HETATM   39  C   UNL     1     -11.109  15.284  64.841  1.00  0.00    -0.435 A  
HETATM   40  C   UNL     1      -8.915  15.309  65.904  1.00  0.00    -0.011 A  
HETATM   41  C   UNL     1     -10.306  17.316  65.928  1.00  0.00    -0.287 A  
HETATM   42  C   UNL     1     -11.283  16.629  65.204  1.00  0.00     0.020 A  
BRANCH  41  43
HETATM   43  C   UNL     1     -10.576  18.741  66.270  1.00  0.00    -0.369 C  
HETATM   44  H2  UNL     1     -10.272  18.464  68.309  1.00  0.00     0.000 HD 
HETATM   45  H1  UNL     1     -10.691  20.111  67.811  1.00  0.00     0.000 HD 
HETATM   46  N   UNL     1     -10.506  19.136  67.577  1.00  0.00    -0.428 N  
HETATM   47  O   UNL     1     -10.860  19.566  65.408  1.00  0.00    -0.419 OA 
ENDBRANCH  41  43
ENDBRANCH  34  35
ENDBRANCH  30  34
ENDBRANCH  15  30
ENDBRANCH  12  13
ENDBRANCH   6  12
ENDBRANCH   2   3
TORSDOF 10
ENDMDL
MODEL      227
REMARK 921   NORMALIZED FREE ENERGY PREDICTED BY IDOCK:   -2.07 KCAL/MOL
REMARK 922        TOTAL FREE ENERGY PREDICTED BY IDOCK:   -6.15 KCAL/MOL
REMARK 923 INTER-LIGAND FREE ENERGY PREDICTED BY IDOCK:   -6.25 KCAL/MOL
REMARK 924 INTRA-LIGAND FREE ENERGY PREDICTED BY IDOCK:    0.11 KCAL/MOL
REMARK 927      BINDING AFFINITY PREDICTED BY RF-SCORE:    0.00 PKD
ROOT
HETATM    1  C   UNL     1      -8.098  10.974  62.912  1.00  0.00     0.095 C  
HETATM    2  O   UNL     1      -7.116   9.937  62.875  1.00  0.00    -0.113 OA 
ENDROOT
BRANCH   2   3
HETATM    3  C   UNL     1      -6.729   9.404  64.079  1.00  0.00    -0.096 A  
HETATM    4  C   UNL     1      -6.193  10.158  65.126  1.00  0.00    -0.121 A  
HETATM    5  C   UNL     1      -5.912   9.568  66.363  1.00  0.00    -0.059 A  
HETATM    6  C   UNL     1      -6.120   8.203  66.580  1.00  0.00    -0.049 A  
HETATM    7  C   UNL     1      -6.600   7.433  65.509  1.00  0.00    -0.045 A  
HETATM    8  C   UNL     1      -7.429   7.106  63.213  1.00  0.00    -0.092 C  
HETATM    9  O   UNL     1      -8.285   7.673  62.339  1.00  0.00    -0.150 OA 
HETATM   10  C   UNL     1      -6.915   8.023  64.269  1.00  0.00    -0.072 A  
HETATM   11  O   UNL     1      -7.148   5.917  63.188  1.00  0.00    -0.046 OA 
BRANCH   6  12
HETATM   12  C   UNL     1      -5.882   7.555  67.929  1.00  0.00    -0.035 C  
BRANCH  12  13
HETATM   13  N   UNL     1      -6.664   8.102  69.053  1.00  0.00    -0.048 N  
HETATM   14  O   UNL     1      -8.667   8.892  69.901  1.00  0.00    -0.126 OA 
HETATM   15  C   UNL     1      -8.066   8.289  69.002  1.00  0.00    -0.117 C  
BRANCH  13  16
HETATM   16  C   UNL     1      -5.912   8.775  70.145  1.00  0.00    -0.030 C  
HETATM   17  C   UNL     1      -6.080  10.305  70.173  1.00  0.00    -0.088 C  
BRANCH  16  18
HETATM   18  C   UNL     1      -6.317   8.241  71.503  1.00  0.00    -0.047 A  
HETATM   19  C   UNL     1      -7.135   8.345  73.566  1.00  0.00    -0.078 A  
HETATM   20  C   UNL     1      -7.333   7.091  73.029  1.00  0.00    -0.073 A  
HETATM   21  N   UNL     1      -6.777   7.033  71.770  1.00  0.00    -0.052 NA 
HETATM   22  H   UNL     1      -6.730   6.215  71.163  1.00  0.00     0.000 HD 
HETATM   23  N   UNL     1      -6.462   9.054  72.602  1.00  0.00    -0.303 NA 
BRANCH  20  24
HETATM   24  C   UNL     1      -8.097   5.989  73.598  1.00  0.00    -0.105 A  
HETATM   25  C   UNL     1      -8.255   3.602  74.080  1.00  0.00    -0.082 A  
HETATM   26  C   UNL     1      -9.555   3.768  74.545  1.00  0.00    -0.142 A  
HETATM   27  C   UNL     1     -10.127   5.041  74.555  1.00  0.00    -0.278 A  
HETATM   28  C   UNL     1      -7.533   4.703  73.613  1.00  0.00    -0.082 A  
HETATM   29  C   UNL     1      -9.401   6.147  74.090  1.00  0.00    -0.154 A  
ENDBRANCH  20  24
ENDBRANCH  16  18
ENDBRANCH  13  16
BRANCH  15  30
HETATM   30  C   UNL     1      -8.848   7.675  67.781  1.00  0.00    -0.125 C  
HETATM   31  H2  UNL     1      -9.166   5.841  68.744  1.00  0.00     0.000 HD 
HETATM   32  N   UNL     1      -8.815   6.189  67.852  1.00  0.00    -0.112 NA 
HETATM   33  H1  UNL     1      -9.321   5.792  67.061  1.00  0.00     0.000 HD 
BRANCH  30  34
HETATM   34  C   UNL     1     -10.340   8.059  67.669  1.00  0.00    -0.312 C  
BRANCH  34  35
HETATM   35  C   UNL     1     -10.770   9.472  68.013  1.00  0.00    -0.266 A  
HETATM   36  C   UNL     1      -9.643  10.340  65.862  1.00  0.00    -0.263 C  
HETATM   37  C   UNL     1     -11.811  11.112  69.498  1.00  0.00    -0.423 A  
HETATM   38  C   UNL     1     -11.659   8.809  70.361  1.00  0.00    -0.105 C  
HETATM   39  C   UNL     1     -10.442  10.534  67.128  1.00  0.00    -0.302 A  
HETATM   40  C   UNL     1     -11.401   9.788  69.243  1.00  0.00    -0.059 A  
HETATM   41  C   UNL     1     -11.564  12.135  68.588  1.00  0.00    -0.372 A  
HETATM   42  C   UNL     1     -10.862  11.841  67.418  1.00  0.00    -0.299 A  
BRANCH  41  43
HETATM   43  C   UNL     1     -11.971  13.550  68.812  1.00  0.00    -0.339 C  
HETATM   44  H2  UNL     1     -12.337  13.281  70.842  1.00  0.00     0.000 HD 
HETATM   45  H1  UNL     1     -12.619  14.916  70.221  1.00  0.00     0.000 HD 
HETATM   46  N   UNL     1     -12.340  13.947  70.068  1.00  0.00    -0.333 N  
HETATM   47  O   UNL     1     -11.983  14.368  67.897  1.00  0.00    -0.353 OA 
ENDBRANCH  41  43
ENDBRANCH  34  35
ENDBRANCH  30  34
ENDBRANCH  15  30
ENDBRANCH  12  13
ENDBRANCH   6  12
ENDBRANCH   2   3
TORSDOF 10
ENDMDL
MODEL      228
REMARK 921   NORMALIZED FREE ENERGY PREDICTED BY IDOCK:   -2.01 KCAL/MOL
REMARK 922        TOTAL FREE ENERGY PREDICTED BY IDOCK:   -6.06 KCAL/MOL
REMARK 923 INTER-LIGAND FREE ENERGY PREDICTED BY IDOCK:   -5.51 KCAL/MOL
REMARK 924 INTRA-LIGAND FREE ENERGY PREDICTED BY IDOCK:   -0.55 KCAL/MOL
REMARK 927      BINDING AFFINITY PREDICTED BY RF-SCORE:    0.00 PKD
ROOT
HETATM    1  C   UNL     1      -9.623   4.337  70.574  1.00  0.00    -0.197 C  
HETATM    2  O   UNL     1     -10.017   5.682  70.298  1.00  0.00    -0.181 OA 
ENDROOT
BRANCH   2   3
HETATM    3  C   UNL     1      -9.058   6.518  69.782  1.00  0.00    -0.142 A  
HETATM    4  C   UNL     1      -7.846   6.073  69.248  1.00  0.00    -0.103 A  
HETATM    5  C   UNL     1      -6.955   6.969  68.648  1.00  0.00    -0.079 A  
HETATM    6  C   UNL     1      -7.230   8.339  68.595  1.00  0.00    -0.087 A  
HETATM    7  C   UNL     1      -8.419   8.794  69.186  1.00  0.00    -0.123 A  
HETATM    8  C   UNL     1     -10.569   8.496  70.350  1.00  0.00    -0.223 C  
HETATM    9  O   UNL     1     -11.658   7.703  70.308  1.00  0.00    -0.195 OA 
HETATM   10  C   UNL     1      -9.336   7.896  69.766  1.00  0.00    -0.153 A  
HETATM   11  O   UNL     1     -10.600   9.644  70.767  1.00  0.00    -0.291 OA 
BRANCH   6  12
HETATM   12  C   UNL     1      -6.310   9.319  67.894  1.00  0.00    -0.058 C  
BRANCH  12  13
HETATM   13  N   UNL     1      -6.867   9.985  66.703  1.00  0.00    -0.080 N  
HETATM   14  O   UNL     1      -8.131  11.682  65.764  1.00  0.00     0.183 OA 
HETATM   15  C   UNL     1      -7.543  11.228  66.754  1.00  0.00    -0.151 C  
BRANCH  13  16
HETATM   16  C   UNL     1      -7.005   9.170  65.467  1.00  0.00    -0.081 C  
HETATM   17  C   UNL     1      -5.666   8.697  64.872  1.00  0.00    -0.048 C  
BRANCH  16  18
HETATM   18  C   UNL     1      -7.862   7.945  65.709  1.00  0.00    -0.103 A  
HETATM   19  C   UNL     1      -9.750   6.784  65.866  1.00  0.00     0.350 A  
HETATM   20  C   UNL     1      -8.707   5.965  65.489  1.00  0.00    -0.129 A  
HETATM   21  N   UNL     1      -7.539   6.692  65.445  1.00  0.00    -0.081 NA 
HETATM   22  H   UNL     1      -6.605   6.333  65.246  1.00  0.00     0.000 HD 
HETATM   23  N   UNL     1      -9.196   8.029  66.033  1.00  0.00    -0.157 NA 
BRANCH  20  24
HETATM   24  C   UNL     1      -8.775   4.568  65.080  1.00  0.00    -0.138 A  
HETATM   25  C   UNL     1     -10.058   2.769  64.043  1.00  0.00    -0.126 A  
HETATM   26  C   UNL     1      -9.065   1.853  64.374  1.00  0.00    -0.117 A  
HETATM   27  C   UNL     1      -7.919   2.288  65.041  1.00  0.00    -0.078 A  
HETATM   28  C   UNL     1      -9.912   4.114  64.392  1.00  0.00    -0.155 A  
HETATM   29  C   UNL     1      -7.771   3.639  65.387  1.00  0.00    -0.085 A  
ENDBRANCH  20  24
ENDBRANCH  16  18
ENDBRANCH  13  16
BRANCH  15  30
HETATM   30  C   UNL     1      -7.495  12.037  68.104  1.00  0.00    -0.112 C  
HETATM   31  H2  UNL     1      -6.171  13.473  67.343  1.00  0.00     0.000 HD 
HETATM   32  N   UNL     1      -6.259  12.865  68.157  1.00  0.00    -0.081 NA 
HETATM   33  H1  UNL     1      -6.228  13.389  69.032  1.00  0.00     0.000 HD 
BRANCH  30  34
HETATM   34  C   UNL     1      -8.666  13.014  68.351  1.00  0.00    -0.115 C  
BRANCH  34  35
HETATM   35  C   UNL     1      -9.573  13.391  67.195  1.00  0.00    -0.241 A  
HETATM   36  C   UNL     1     -11.011  11.297  67.640  1.00  0.00    -0.312 C  
HETATM   37  C   UNL     1     -10.180  14.811  65.300  1.00  0.00    -0.415 A  
HETATM   38  C   UNL     1      -8.050  15.345  66.418  1.00  0.00     0.139 C  
HETATM   39  C   UNL     1     -10.690  12.568  66.891  1.00  0.00    -0.268 A  
HETATM   40  C   UNL     1      -9.286  14.483  66.339  1.00  0.00    -0.264 A  
HETATM   41  C   UNL     1     -11.321  14.052  65.060  1.00  0.00    -0.342 A  
HETATM   42  C   UNL     1     -11.557  12.923  65.846  1.00  0.00    -0.423 A  
BRANCH  41  43
HETATM   43  C   UNL     1     -12.294  14.352  63.973  1.00  0.00    -0.205 C  
HETATM   44  H2  UNL     1     -12.230  16.408  64.278  1.00  0.00     0.000 HD 
HETATM   45  H1  UNL     1     -13.303  15.858  62.981  1.00  0.00     0.000 HD 
HETATM   46  N   UNL     1     -12.636  15.653  63.725  1.00  0.00     0.463 N  
HETATM   47  O   UNL     1     -12.796  13.460  63.296  1.00  0.00    -0.508 OA 
ENDBRANCH  41  43
ENDBRANCH  34  35
ENDBRANCH  30  34
ENDBRANCH  15  30
ENDBRANCH  12  13
ENDBRANCH   6  12
ENDBRANCH   2   3
TORSDOF 10
ENDMDL
MODEL      229
REMARK 921   NORMALIZED FREE ENERGY PREDICTED BY IDOCK:   -2.00 KCAL/MOL
REMARK 922        TOTAL FREE ENERGY PREDICTED BY IDOCK:   -6.04 KCAL/MOL
REMARK 923 INTER-LIGAND FREE ENERGY PREDICTED BY IDOCK:   -6.69 KCAL/MOL
REMARK 924 INTRA-LIGAND FREE ENERGY PREDICTED BY IDOCK:    0.65 KCAL/MOL
REMARK 927      BINDING AFFINITY PREDICTED BY RF-SCORE:    0.00 PKD
ROOT
HETATM    1  C   UNL     1      -9.078  15.649  68.909  1.00  0.00    -0.217 C  
HETATM    2  O   UNL     1      -9.641  14.389  69.276  1.00  0.00    -0.047 OA 
ENDROOT
BRANCH   2   3
HETATM    3  C   UNL     1      -9.028  13.265  68.780  1.00  0.00     0.145 A  
HETATM    4  C   UNL     1      -7.670  13.200  68.457  1.00  0.00    -0.117 A  
HETATM    5  C   UNL     1      -7.087  11.995  68.051  1.00  0.00    -0.086 A  
HETATM    6  C   UNL     1      -7.848  10.830  67.918  1.00  0.00    -0.109 A  
HETATM    7  C   UNL     1      -9.224  10.910  68.183  1.00  0.00    -0.158 A  
HETATM    8  C   UNL     1     -11.281  12.068  68.884  1.00  0.00    -0.261 C  
HETATM    9  O   UNL     1     -11.708  12.912  69.845  1.00  0.00    -0.304 OA 
HETATM   10  C   UNL     1      -9.815  12.110  68.622  1.00  0.00    -0.110 A  
HETATM   11  O   UNL     1     -12.022  11.279  68.318  1.00  0.00    -0.582 OA 
BRANCH   6  12
HETATM   12  C   UNL     1      -7.227   9.500  67.540  1.00  0.00    -0.090 C  
BRANCH  12  13
HETATM   13  N   UNL     1      -8.171   8.395  67.295  1.00  0.00    -0.112 N  
HETATM   14  O   UNL     1     -10.059   7.572  66.239  1.00  0.00    -0.079 OA 
HETATM   15  C   UNL     1      -9.189   8.449  66.313  1.00  0.00    -0.208 C  
BRANCH  13  16
HETATM   16  C   UNL     1      -8.259   7.329  68.327  1.00  0.00    -0.125 C  
HETATM   17  C   UNL     1      -7.319   7.538  69.529  1.00  0.00    -0.084 C  
BRANCH  16  18
HETATM   18  C   UNL     1      -9.669   7.196  68.863  1.00  0.00    -0.146 A  
HETATM   19  C   UNL     1     -11.375   6.186  69.866  1.00  0.00    -0.384 A  
HETATM   20  C   UNL     1     -11.456   7.552  70.030  1.00  0.00    -0.029 A  
HETATM   21  N   UNL     1     -10.418   8.162  69.362  1.00  0.00    -0.222 NA 
HETATM   22  H   UNL     1     -10.259   9.165  69.270  1.00  0.00     0.000 HD 
HETATM   23  N   UNL     1     -10.257   5.975  69.097  1.00  0.00    -0.185 NA 
BRANCH  20  24
HETATM   24  C   UNL     1     -12.396   8.295  70.859  1.00  0.00    -0.046 A  
HETATM   25  C   UNL     1     -12.936  10.356  72.049  1.00  0.00    -0.499 A  
HETATM   26  C   UNL     1     -14.081   9.767  72.578  1.00  0.00     0.107 A  
HETATM   27  C   UNL     1     -14.397   8.451  72.239  1.00  0.00    -0.465 A  
HETATM   28  C   UNL     1     -12.104   9.626  71.196  1.00  0.00    -0.448 A  
HETATM   29  C   UNL     1     -13.564   7.719  71.381  1.00  0.00    -0.334 A  
ENDBRANCH  20  24
ENDBRANCH  16  18
ENDBRANCH  13  16
BRANCH  15  30
HETATM   30  C   UNL     1      -9.163   9.647  65.290  1.00  0.00    -0.237 C  
HETATM   31  H2  UNL     1      -9.019   8.386  63.623  1.00  0.00     0.000 HD 
HETATM   32  N   UNL     1      -8.551   9.206  64.007  1.00  0.00    -0.288 NA 
HETATM   33  H1  UNL     1      -8.534   9.982  63.345  1.00  0.00     0.000 HD 
BRANCH  30  34
HETATM   34  C   UNL     1     -10.535  10.250  64.917  1.00  0.00     0.007 C  
BRANCH  34  35
HETATM   35  C   UNL     1     -10.691  11.758  64.857  1.00  0.00    -0.347 A  
HETATM   36  C   UNL     1     -13.113  11.475  64.018  1.00  0.00     0.581 C  
HETATM   37  C   UNL     1      -9.812  14.030  65.066  1.00  0.00    -0.074 A  
HETATM   38  C   UNL     1      -8.186  12.205  65.375  1.00  0.00     1.430 C  
HETATM   39  C   UNL     1     -11.932  12.313  64.445  1.00  0.00    -0.473 A  
HETATM   40  C   UNL     1      -9.605  12.636  65.101  1.00  0.00     0.098 A  
HETATM   41  C   UNL     1     -11.054  14.570  64.745  1.00  0.00    -0.400 A  
HETATM   42  C   UNL     1     -12.100  13.706  64.417  1.00  0.00    -0.470 A  
BRANCH  41  43
HETATM   43  C   UNL     1     -11.324  16.034  64.689  1.00  0.00    -0.306 C  
HETATM   44  H2  UNL     1      -9.842  16.512  66.067  1.00  0.00     0.000 HD 
HETATM   45  H1  UNL     1     -10.761  17.882  65.421  1.00  0.00     0.000 HD 
HETATM   46  N   UNL     1     -10.576  16.880  65.460  1.00  0.00    -0.286 N  
HETATM   47  O   UNL     1     -12.202  16.498  63.968  1.00  0.00    -0.732 OA 
ENDBRANCH  41  43
ENDBRANCH  34  35
ENDBRANCH  30  34
ENDBRANCH  15  30
ENDBRANCH  12  13
ENDBRANCH   6  12
ENDBRANCH   2   3
TORSDOF 10
ENDMDL
MODEL      230
REMARK 921   NORMALIZED FREE ENERGY PREDICTED BY IDOCK:   -1.94 KCAL/MOL
REMARK 922        TOTAL FREE ENERGY PREDICTED BY IDOCK:   -5.94 KCAL/MOL
REMARK 923 INTER-LIGAND FREE ENERGY PREDICTED BY IDOCK:   -7.91 KCAL/MOL
REMARK 924 INTRA-LIGAND FREE ENERGY PREDICTED BY IDOCK:    1.97 KCAL/MOL
REMARK 927      BINDING AFFINITY PREDICTED BY RF-SCORE:    0.00 PKD
ROOT
HETATM    1  C   UNL     1     -12.224  13.456  66.826  1.00  0.00    -0.312 C  
HETATM    2  O   UNL     1     -11.691  12.456  65.957  1.00  0.00    -0.389 OA 
ENDROOT
BRANCH   2   3
HETATM    3  C   UNL     1     -10.669  11.683  66.450  1.00  0.00    -0.272 A  
HETATM    4  C   UNL     1     -10.420  11.502  67.813  1.00  0.00    -0.216 A  
HETATM    5  C   UNL     1      -9.423  10.623  68.248  1.00  0.00    -0.161 A  
HETATM    6  C   UNL     1      -8.622   9.927  67.338  1.00  0.00    -0.125 A  
HETATM    7  C   UNL     1      -8.831  10.155  65.969  1.00  0.00    -0.160 A  
HETATM    8  C   UNL     1      -9.986  11.167  64.044  1.00  0.00    -0.323 C  
HETATM    9  O   UNL     1     -11.239  11.418  63.613  1.00  0.00    -0.402 OA 
HETATM   10  C   UNL     1      -9.852  11.015  65.520  1.00  0.00    -0.292 A  
HETATM   11  O   UNL     1      -9.044  11.007  63.284  1.00  0.00    -0.225 OA 
BRANCH   6  12
HETATM   12  C   UNL     1      -7.580   8.921  67.786  1.00  0.00    -0.093 C  
BRANCH  12  13
HETATM   13  N   UNL     1      -7.353   7.781  66.879  1.00  0.00    -0.088 N  
HETATM   14  O   UNL     1      -6.957   5.523  66.563  1.00  0.00    -0.061 OA 
HETATM   15  C   UNL     1      -7.303   6.437  67.322  1.00  0.00    -0.087 C  
BRANCH  13  16
HETATM   16  C   UNL     1      -6.837   8.084  65.518  1.00  0.00    -0.059 C  
HETATM   17  C   UNL     1      -5.305   8.000  65.392  1.00  0.00    -0.029 C  
BRANCH  16  18
HETATM   18  C   UNL     1      -7.437   7.155  64.483  1.00  0.00    -0.099 A  
HETATM   19  C   UNL     1      -7.483   5.950  62.617  1.00  0.00    -0.060 A  
HETATM   20  C   UNL     1      -8.303   5.393  63.574  1.00  0.00    -0.097 A  
HETATM   21  N   UNL     1      -8.299   6.179  64.704  1.00  0.00    -0.282 NA 
HETATM   22  H   UNL     1      -8.852   6.035  65.548  1.00  0.00     0.000 HD 
HETATM   23  N   UNL     1      -6.965   7.084  63.194  1.00  0.00    -0.055 NA 
BRANCH  20  24
HETATM   24  C   UNL     1      -9.006   4.118  63.511  1.00  0.00    -0.127 A  
HETATM   25  C   UNL     1      -8.884   1.687  63.317  1.00  0.00    -0.086 A  
HETATM   26  C   UNL     1     -10.271   1.611  63.239  1.00  0.00    -0.125 A  
HETATM   27  C   UNL     1     -11.031   2.779  63.313  1.00  0.00    -0.183 A  
HETATM   28  C   UNL     1      -8.259   2.930  63.454  1.00  0.00    -0.085 A  
HETATM   29  C   UNL     1     -10.404   4.026  63.454  1.00  0.00    -0.133 A  
ENDBRANCH  20  24
ENDBRANCH  16  18
ENDBRANCH  13  16
BRANCH  15  30
HETATM   30  C   UNL     1      -7.738   6.134  68.805  1.00  0.00    -0.096 C  
HETATM   31  H2  UNL     1      -5.768   6.167  69.522  1.00  0.00     0.000 HD 
HETATM   32  N   UNL     1      -6.590   5.565  69.564  1.00  0.00    -0.048 NA 
HETATM   33  H1  UNL     1      -6.872   5.369  70.524  1.00  0.00     0.000 HD 
BRANCH  30  34
HETATM   34  C   UNL     1      -8.229   7.345  69.629  1.00  0.00    -0.130 C  
BRANCH  34  35
HETATM   35  C   UNL     1      -9.656   7.362  70.142  1.00  0.00    -0.165 A  
HETATM   36  C   UNL     1      -8.855   8.466  72.332  1.00  0.00    -0.294 C  
HETATM   37  C   UNL     1     -12.032   6.824  69.937  1.00  0.00    -0.099 A  
HETATM   38  C   UNL     1     -10.568   5.968  68.151  1.00  0.00    -0.328 C  
HETATM   39  C   UNL     1      -9.928   7.917  71.421  1.00  0.00    -0.208 A  
HETATM   40  C   UNL     1     -10.719   6.749  69.432  1.00  0.00    -0.291 A  
HETATM   41  C   UNL     1     -12.307   7.445  71.151  1.00  0.00    -0.349 A  
HETATM   42  C   UNL     1     -11.248   7.970  71.894  1.00  0.00    -0.335 A  
BRANCH  41  43
HETATM   43  C   UNL     1     -13.675   7.547  71.732  1.00  0.00    -0.327 C  
HETATM   44  H2  UNL     1     -13.559   9.602  72.029  1.00  0.00     0.000 HD 
HETATM   45  H1  UNL     1     -15.078   8.839  72.527  1.00  0.00     0.000 HD 
HETATM   46  N   UNL     1     -14.141   8.770  72.129  1.00  0.00    -0.450 N  
HETATM   47  O   UNL     1     -14.393   6.560  71.862  1.00  0.00    -0.162 OA 
ENDBRANCH  41  43
ENDBRANCH  34  35
ENDBRANCH  30  34
ENDBRANCH  15  30
ENDBRANCH  12  13
ENDBRANCH   6  12
ENDBRANCH   2   3
TORSDOF 10
ENDMDL
MODEL      231
REMARK 921   NORMALIZED FREE ENERGY PREDICTED BY IDOCK:   -1.90 KCAL/MOL
REMARK 922        TOTAL FREE ENERGY PREDICTED BY IDOCK:   -5.88 KCAL/MOL
REMARK 923 INTER-LIGAND FREE ENERGY PREDICTED BY IDOCK:   -5.27 KCAL/MOL
REMARK 924 INTRA-LIGAND FREE ENERGY PREDICTED BY IDOCK:   -0.61 KCAL/MOL
REMARK 927      BINDING AFFINITY PREDICTED BY RF-SCORE:    0.00 PKD
ROOT
HETATM    1  C   UNL     1      -8.349  11.182  63.876  1.00  0.00     0.428 C  
HETATM    2  O   UNL     1      -8.844  12.151  64.803  1.00  0.00     0.628 OA 
ENDROOT
BRANCH   2   3
HETATM    3  C   UNL     1      -9.719  11.704  65.761  1.00  0.00    -0.236 A  
HETATM    4  C   UNL     1      -9.320  11.119  66.966  1.00  0.00    -0.182 A  
HETATM    5  C   UNL     1     -10.260  10.777  67.942  1.00  0.00    -0.203 A  
HETATM    6  C   UNL     1     -11.628  10.973  67.733  1.00  0.00    -0.277 A  
HETATM    7  C   UNL     1     -12.034  11.504  66.498  1.00  0.00     0.537 A  
HETATM    8  C   UNL     1     -11.644  12.444  64.256  1.00  0.00    -0.368 C  
HETATM    9  O   UNL     1     -10.847  13.342  63.643  1.00  0.00    -0.047 OA 
HETATM   10  C   UNL     1     -11.093  11.880  65.520  1.00  0.00    -0.356 A  
HETATM   11  O   UNL     1     -12.761  12.164  63.849  1.00  0.00    -0.624 OA 
BRANCH   6  12
HETATM   12  C   UNL     1     -12.660  10.669  68.801  1.00  0.00     1.160 C  
BRANCH  12  13
HETATM   13  N   UNL     1     -12.306  11.077  70.172  1.00  0.00    -0.317 N  
HETATM   14  O   UNL     1     -11.420  10.564  72.248  1.00  0.00     1.674 OA 
HETATM   15  C   UNL     1     -11.565  10.258  71.057  1.00  0.00    -0.343 C  
BRANCH  13  16
HETATM   16  C   UNL     1     -13.030  12.242  70.746  1.00  0.00     0.112 C  
HETATM   17  C   UNL     1     -13.176  12.199  72.278  1.00  0.00    -0.286 C  
BRANCH  16  18
HETATM   18  C   UNL     1     -12.350  13.546  70.384  1.00  0.00    -0.327 A  
HETATM   19  C   UNL     1     -11.095  15.347  70.726  1.00  0.00    -0.336 A  
HETATM   20  C   UNL     1     -11.052  14.971  69.400  1.00  0.00    -0.278 A  
HETATM   21  N   UNL     1     -11.872  13.884  69.200  1.00  0.00    -0.337 NA 
HETATM   22  H   UNL     1     -12.072  13.427  68.310  1.00  0.00     0.000 HD 
HETATM   23  N   UNL     1     -11.946  14.456  71.332  1.00  0.00    -0.325 NA 
BRANCH  20  24
HETATM   24  C   UNL     1     -10.209  15.519  68.347  1.00  0.00    -0.215 A  
HETATM   25  C   UNL     1      -8.374  17.001  67.716  1.00  0.00    -0.199 A  
HETATM   26  C   UNL     1      -8.615  16.747  66.369  1.00  0.00    -0.338 A  
HETATM   27  C   UNL     1      -9.637  15.870  66.005  1.00  0.00    -0.385 A  
HETATM   28  C   UNL     1      -9.163  16.390  68.694  1.00  0.00    -0.231 A  
HETATM   29  C   UNL     1     -10.427  15.255  66.987  1.00  0.00    -0.292 A  
ENDBRANCH  20  24
ENDBRANCH  16  18
ENDBRANCH  13  16
BRANCH  15  30
HETATM   30  C   UNL     1     -10.896   8.958  70.472  1.00  0.00    -0.236 C  
HETATM   31  H2  UNL     1      -9.567   8.764  72.081  1.00  0.00     0.000 HD 
HETATM   32  N   UNL     1      -9.542   8.773  71.062  1.00  0.00    -0.207 NA 
HETATM   33  H1  UNL     1      -9.109   7.931  70.682  1.00  0.00     0.000 HD 
BRANCH  30  34
HETATM   34  C   UNL     1     -11.650   7.634  70.727  1.00  0.00    -0.284 C  
BRANCH  34  35
HETATM   35  C   UNL     1     -10.882   6.326  70.701  1.00  0.00    -0.339 A  
HETATM   36  C   UNL     1     -11.033   6.289  68.126  1.00  0.00    -0.412 C  
HETATM   37  C   UNL     1      -9.791   4.439  71.808  1.00  0.00    -0.253 A  
HETATM   38  C   UNL     1     -10.929   6.051  73.282  1.00  0.00    -0.244 C  
HETATM   39  C   UNL     1     -10.586   5.718  69.451  1.00  0.00    -0.383 A  
HETATM   40  C   UNL     1     -10.536   5.633  71.888  1.00  0.00    -0.279 A  
HETATM   41  C   UNL     1      -9.429   3.892  70.581  1.00  0.00    -0.244 A  
HETATM   42  C   UNL     1      -9.847   4.526  69.410  1.00  0.00    -0.260 A  
BRANCH  41  43
HETATM   43  C   UNL     1      -8.648   2.631  70.441  1.00  0.00    -0.057 C  
HETATM   44  H2  UNL     1      -6.818   3.606  70.277  1.00  0.00     0.000 HD 
HETATM   45  H1  UNL     1      -6.756   1.837  70.197  1.00  0.00     0.000 HD 
HETATM   46  N   UNL     1      -7.290   2.701  70.292  1.00  0.00    -0.037 N  
HETATM   47  O   UNL     1      -9.194   1.532  70.456  1.00  0.00    -0.074 OA 
ENDBRANCH  41  43
ENDBRANCH  34  35
ENDBRANCH  30  34
ENDBRANCH  15  30
ENDBRANCH  12  13
ENDBRANCH   6  12
ENDBRANCH   2   3
TORSDOF 10
ENDMDL
MODEL      232
REMARK 921   NORMALIZED FREE ENERGY PREDICTED BY IDOCK:   -1.87 KCAL/MOL
REMARK 922        TOTAL FREE ENERGY PREDICTED BY IDOCK:   -5.83 KCAL/MOL
REMARK 923 INTER-LIGAND FREE ENERGY PREDICTED BY IDOCK:   -7.36 KCAL/MOL
REMARK 924 INTRA-LIGAND FREE ENERGY PREDICTED BY IDOCK:    1.53 KCAL/MOL
REMARK 927      BINDING AFFINITY PREDICTED BY RF-SCORE:    0.00 PKD
ROOT
HETATM    1  C   UNL     1     -12.627  11.991  63.188  1.00  0.00    -0.220 C  
HETATM    2  O   UNL     1     -11.211  12.121  63.318  1.00  0.00    -0.402 OA 
ENDROOT
BRANCH   2   3
HETATM    3  C   UNL     1     -10.685  11.968  64.576  1.00  0.00    -0.312 A  
HETATM    4  C   UNL     1     -11.195  12.601  65.714  1.00  0.00    -0.347 A  
HETATM    5  C   UNL     1     -10.674  12.323  66.981  1.00  0.00    -0.263 A  
HETATM    6  C   UNL     1      -9.606  11.437  67.149  1.00  0.00    -0.193 A  
HETATM    7  C   UNL     1      -9.054  10.848  66.001  1.00  0.00    -0.208 A  
HETATM    8  C   UNL     1      -8.928  10.405  63.582  1.00  0.00    -0.231 C  
HETATM    9  O   UNL     1      -9.742  10.115  62.547  1.00  0.00    -0.248 OA 
HETATM   10  C   UNL     1      -9.591  11.097  64.723  1.00  0.00    -0.279 A  
HETATM   11  O   UNL     1      -7.755  10.066  63.617  1.00  0.00    -0.137 OA 
BRANCH   6  12
HETATM   12  C   UNL     1      -9.068  11.073  68.519  1.00  0.00    -0.173 C  
BRANCH  12  13
HETATM   13  N   UNL     1      -7.796  10.327  68.533  1.00  0.00    -0.093 N  
HETATM   14  O   UNL     1      -6.575   8.465  69.165  1.00  0.00    -0.045 OA 
HETATM   15  C   UNL     1      -7.680   9.003  69.023  1.00  0.00    -0.089 C  
BRANCH  13  16
HETATM   16  C   UNL     1      -6.546  11.104  68.331  1.00  0.00    -0.058 C  
HETATM   17  C   UNL     1      -5.783  10.745  67.043  1.00  0.00    -0.053 C  
BRANCH  16  18
HETATM   18  C   UNL     1      -6.821  12.594  68.304  1.00  0.00    -0.084 A  
HETATM   19  C   UNL     1      -6.800  14.649  67.461  1.00  0.00    -0.149 A  
HETATM   20  C   UNL     1      -7.888  14.476  68.289  1.00  0.00    -0.131 A  
HETATM   21  N   UNL     1      -7.857  13.214  68.838  1.00  0.00    -0.329 NA 
HETATM   22  H   UNL     1      -8.507  12.832  69.524  1.00  0.00     0.000 HD 
HETATM   23  N   UNL     1      -6.114  13.460  67.504  1.00  0.00    -0.313 NA 
BRANCH  20  24
HETATM   24  C   UNL     1      -8.995  15.398  68.508  1.00  0.00    -0.192 A  
HETATM   25  C   UNL     1     -10.874  16.091  69.903  1.00  0.00    -0.351 A  
HETATM   26  C   UNL     1     -11.246  17.038  68.954  1.00  0.00     0.097 A  
HETATM   27  C   UNL     1     -10.489  17.183  67.790  1.00  0.00    -0.362 A  
HETATM   28  C   UNL     1      -9.758  15.281  69.681  1.00  0.00    -0.208 A  
HETATM   29  C   UNL     1      -9.366  16.371  67.570  1.00  0.00    -0.214 A  
ENDBRANCH  20  24
ENDBRANCH  16  18
ENDBRANCH  13  16
BRANCH  15  30
HETATM   30  C   UNL     1      -9.007   8.220  69.350  1.00  0.00    -0.147 C  
HETATM   31  H2  UNL     1      -9.743   8.398  67.396  1.00  0.00     0.000 HD 
HETATM   32  N   UNL     1     -10.057   8.561  68.352  1.00  0.00    -0.189 NA 
HETATM   33  H1  UNL     1     -10.916   8.053  68.565  1.00  0.00     0.000 HD 
BRANCH  30  34
HETATM   34  C   UNL     1      -8.903   6.679  69.343  1.00  0.00    -0.134 C  
BRANCH  34  35
HETATM   35  C   UNL     1      -8.648   5.959  68.032  1.00  0.00    -0.113 A  
HETATM   36  C   UNL     1     -11.154   6.140  67.446  1.00  0.00    -0.326 C  
HETATM   37  C   UNL     1      -7.190   4.783  66.462  1.00  0.00    -0.077 A  
HETATM   38  C   UNL     1      -6.179   5.411  68.619  1.00  0.00    -0.030 C  
HETATM   39  C   UNL     1      -9.731   5.733  67.141  1.00  0.00    -0.147 A  
HETATM   40  C   UNL     1      -7.381   5.412  67.708  1.00  0.00    -0.073 A  
HETATM   41  C   UNL     1      -8.234   4.640  65.554  1.00  0.00    -0.115 A  
HETATM   42  C   UNL     1      -9.504   5.099  65.910  1.00  0.00    -0.168 A  
BRANCH  41  43
HETATM   43  C   UNL     1      -8.086   3.979  64.227  1.00  0.00    -0.090 C  
HETATM   44  H2  UNL     1     -10.017   4.447  63.612  1.00  0.00     0.000 HD 
HETATM   45  H1  UNL     1      -9.039   3.539  62.448  1.00  0.00     0.000 HD 
HETATM   46  N   UNL     1      -9.140   3.991  63.356  1.00  0.00    -0.119 N  
HETATM   47  O   UNL     1      -7.042   3.425  63.899  1.00  0.00    -0.047 OA 
ENDBRANCH  41  43
ENDBRANCH  34  35
ENDBRANCH  30  34
ENDBRANCH  15  30
ENDBRANCH  12  13
ENDBRANCH   6  12
ENDBRANCH   2   3
TORSDOF 10
ENDMDL
MODEL      233
REMARK 921   NORMALIZED FREE ENERGY PREDICTED BY IDOCK:   -1.74 KCAL/MOL
REMARK 922        TOTAL FREE ENERGY PREDICTED BY IDOCK:   -5.63 KCAL/MOL
REMARK 923 INTER-LIGAND FREE ENERGY PREDICTED BY IDOCK:   -7.16 KCAL/MOL
REMARK 924 INTRA-LIGAND FREE ENERGY PREDICTED BY IDOCK:    1.53 KCAL/MOL
REMARK 927      BINDING AFFINITY PREDICTED BY RF-SCORE:    0.00 PKD
ROOT
HETATM    1  C   UNL     1      -6.648  20.826  64.861  1.00  0.00    -0.188 C  
HETATM    2  O   UNL     1      -7.373  20.144  65.886  1.00  0.00    -0.294 OA 
ENDROOT
BRANCH   2   3
HETATM    3  C   UNL     1      -6.971  18.866  66.186  1.00  0.00    -0.249 A  
HETATM    4  C   UNL     1      -5.654  18.518  66.497  1.00  0.00    -0.173 A  
HETATM    5  C   UNL     1      -5.331  17.216  66.891  1.00  0.00    -0.205 A  
HETATM    6  C   UNL     1      -6.304  16.213  66.950  1.00  0.00     0.044 A  
HETATM    7  C   UNL     1      -7.616  16.547  66.578  1.00  0.00    -0.304 A  
HETATM    8  C   UNL     1      -9.383  18.099  65.848  1.00  0.00     0.161 C  
HETATM    9  O   UNL     1      -9.837  19.339  66.118  1.00  0.00    -0.370 OA 
HETATM   10  C   UNL     1      -7.957  17.863  66.210  1.00  0.00    -0.279 A  
HETATM   11  O   UNL     1     -10.099  17.213  65.407  1.00  0.00    -0.571 OA 
BRANCH   6  12
HETATM   12  C   UNL     1      -5.989  14.812  67.434  1.00  0.00     0.251 C  
BRANCH  12  13
HETATM   13  N   UNL     1      -6.964  14.219  68.368  1.00  0.00    -0.091 N  
HETATM   14  O   UNL     1      -8.820  12.889  68.747  1.00  0.00     0.005 OA 
HETATM   15  C   UNL     1      -7.919  13.249  67.978  1.00  0.00    -0.152 C  
BRANCH  13  16
HETATM   16  C   UNL     1      -7.158  14.899  69.675  1.00  0.00    -0.179 C  
HETATM   17  C   UNL     1      -6.235  16.112  69.897  1.00  0.00    -0.154 C  
BRANCH  16  18
HETATM   18  C   UNL     1      -8.588  15.370  69.844  1.00  0.00     0.166 A  
HETATM   19  C   UNL     1     -10.536  16.224  69.201  1.00  0.00    -0.292 A  
HETATM   20  C   UNL     1     -10.712  15.350  70.253  1.00  0.00    -0.298 A  
HETATM   21  N   UNL     1      -9.491  14.870  70.667  1.00  0.00     0.499 NA 
HETATM   22  H   UNL     1      -9.317  14.249  71.457  1.00  0.00     0.000 HD 
HETATM   23  N   UNL     1      -9.182  16.252  68.972  1.00  0.00    -0.251 NA 
BRANCH  20  24
HETATM   24  C   UNL     1     -11.971  14.878  70.815  1.00  0.00    -0.372 A  
HETATM   25  C   UNL     1     -14.208  15.408  71.635  1.00  0.00    -0.621 A  
HETATM   26  C   UNL     1     -14.389  14.087  72.033  1.00  0.00    -0.548 A  
HETATM   27  C   UNL     1     -13.376  13.154  71.810  1.00  0.00    -0.477 A  
HETATM   28  C   UNL     1     -13.010  15.798  71.030  1.00  0.00    -0.377 A  
HETATM   29  C   UNL     1     -12.175  13.545  71.200  1.00  0.00    -0.283 A  
ENDBRANCH  20  24
ENDBRANCH  16  18
ENDBRANCH  13  16
BRANCH  15  30
HETATM   30  C   UNL     1      -7.781  12.614  66.544  1.00  0.00     0.593 C  
HETATM   31  H2  UNL     1      -6.412  11.161  67.181  1.00  0.00     0.000 HD 
HETATM   32  N   UNL     1      -6.502  11.859  66.443  1.00  0.00    -0.427 NA 
HETATM   33  H1  UNL     1      -6.413  11.448  65.514  1.00  0.00     0.000 HD 
BRANCH  30  34
HETATM   34  C   UNL     1      -8.890  11.620  66.133  1.00  0.00    -0.139 C  
BRANCH  34  35
HETATM   35  C   UNL     1      -8.514  10.367  65.364  1.00  0.00    -0.173 A  
HETATM   36  C   UNL     1      -7.264   9.471  67.435  1.00  0.00    -0.087 C  
HETATM   37  C   UNL     1      -8.464   9.016  63.327  1.00  0.00    -0.180 A  
HETATM   38  C   UNL     1      -9.442  11.267  63.113  1.00  0.00    -0.367 C  
HETATM   39  C   UNL     1      -7.758   9.354  66.012  1.00  0.00    -0.099 A  
HETATM   40  C   UNL     1      -8.805  10.215  63.985  1.00  0.00    -0.247 A  
HETATM   41  C   UNL     1      -7.799   7.990  63.990  1.00  0.00    -0.145 A  
HETATM   42  C   UNL     1      -7.432   8.176  65.324  1.00  0.00    -0.080 A  
BRANCH  41  43
HETATM   43  C   UNL     1      -7.411   6.707  63.340  1.00  0.00    -0.079 C  
HETATM   44  H2  UNL     1      -5.717   6.448  64.518  1.00  0.00     0.000 HD 
HETATM   45  H1  UNL     1      -6.020   5.180  63.320  1.00  0.00     0.000 HD 
HETATM   46  N   UNL     1      -6.285   6.058  63.765  1.00  0.00    -0.025 N  
HETATM   47  O   UNL     1      -8.078   6.220  62.432  1.00  0.00    -0.099 OA 
ENDBRANCH  41  43
ENDBRANCH  34  35
ENDBRANCH  30  34
ENDBRANCH  15  30
ENDBRANCH  12  13
ENDBRANCH   6  12
ENDBRANCH   2   3
TORSDOF 10
ENDMDL
MODEL      234
REMARK 921   NORMALIZED FREE ENERGY PREDICTED BY IDOCK:   -1.74 KCAL/MOL
REMARK 922        TOTAL FREE ENERGY PREDICTED BY IDOCK:   -5.63 KCAL/MOL
REMARK 923 INTER-LIGAND FREE ENERGY PREDICTED BY IDOCK:   -5.63 KCAL/MOL
REMARK 924 INTRA-LIGAND FREE ENERGY PREDICTED BY IDOCK:   -0.00 KCAL/MOL
REMARK 927      BINDING AFFINITY PREDICTED BY RF-SCORE:    0.00 PKD
ROOT
HETATM    1  C   UNL     1     -11.950  12.648  64.424  1.00  0.00    -0.400 C  
HETATM    2  O   UNL     1     -12.459  12.288  65.709  1.00  0.00    -0.564 OA 
ENDROOT
BRANCH   2   3
HETATM    3  C   UNL     1     -11.570  11.739  66.599  1.00  0.00    -0.197 A  
HETATM    4  C   UNL     1     -10.910  10.526  66.389  1.00  0.00    -0.094 A  
HETATM    5  C   UNL     1      -9.941  10.072  67.290  1.00  0.00    -0.245 A  
HETATM    6  C   UNL     1      -9.629  10.796  68.445  1.00  0.00    -0.177 A  
HETATM    7  C   UNL     1     -10.337  11.983  68.687  1.00  0.00    -0.211 A  
HETATM    8  C   UNL     1     -11.968  13.742  68.131  1.00  0.00    -0.358 C  
HETATM    9  O   UNL     1     -12.346  14.497  67.080  1.00  0.00    -0.290 OA 
HETATM   10  C   UNL     1     -11.292  12.464  67.771  1.00  0.00    -0.356 A  
HETATM   11  O   UNL     1     -12.102  14.105  69.290  1.00  0.00    -0.326 OA 
BRANCH   6  12
HETATM   12  C   UNL     1      -8.539  10.356  69.402  1.00  0.00    -0.130 C  
BRANCH  12  13
HETATM   13  N   UNL     1      -7.162  10.411  68.879  1.00  0.00    -0.076 N  
HETATM   14  O   UNL     1      -5.354  11.645  68.126  1.00  0.00    -0.043 OA 
HETATM   15  C   UNL     1      -6.445  11.620  68.711  1.00  0.00    -0.064 C  
BRANCH  13  16
HETATM   16  C   UNL     1      -6.637   9.193  68.208  1.00  0.00    -0.059 C  
HETATM   17  C   UNL     1      -5.229   9.363  67.608  1.00  0.00    -0.037 C  
BRANCH  16  18
HETATM   18  C   UNL     1      -6.595   8.014  69.158  1.00  0.00    -0.040 A  
HETATM   19  C   UNL     1      -6.586   6.995  71.132  1.00  0.00    -0.045 A  
HETATM   20  C   UNL     1      -7.146   6.182  70.169  1.00  0.00    -0.074 A  
HETATM   21  N   UNL     1      -7.098   6.812  68.946  1.00  0.00    -0.086 NA 
HETATM   22  H   UNL     1      -7.394   6.426  68.050  1.00  0.00     0.000 HD 
HETATM   23  N   UNL     1      -6.212   8.140  70.473  1.00  0.00    -0.035 NA 
BRANCH  20  24
HETATM   24  C   UNL     1      -7.804   4.897  70.363  1.00  0.00    -0.066 A  
HETATM   25  C   UNL     1      -9.287   3.506  71.714  1.00  0.00    -0.198 A  
HETATM   26  C   UNL     1      -9.013   2.407  70.906  1.00  0.00    -0.153 A  
HETATM   27  C   UNL     1      -8.151   2.549  69.817  1.00  0.00    -0.057 A  
HETATM   28  C   UNL     1      -8.688   4.739  71.442  1.00  0.00    -0.143 A  
HETATM   29  C   UNL     1      -7.554   3.787  69.543  1.00  0.00    -0.052 A  
ENDBRANCH  20  24
ENDBRANCH  16  18
ENDBRANCH  13  16
BRANCH  15  30
HETATM   30  C   UNL     1      -7.063  12.934  69.322  1.00  0.00     0.104 C  
HETATM   31  H2  UNL     1      -5.579  13.097  70.794  1.00  0.00     0.000 HD 
HETATM   32  N   UNL     1      -6.597  13.109  70.725  1.00  0.00    -0.112 NA 
HETATM   33  H1  UNL     1      -6.997  13.960  71.120  1.00  0.00     0.000 HD 
BRANCH  30  34
HETATM   34  C   UNL     1      -6.711  14.250  68.594  1.00  0.00    -0.092 C  
BRANCH  34  35
HETATM   35  C   UNL     1      -7.726  14.871  67.653  1.00  0.00    -0.197 A  
HETATM   36  C   UNL     1      -7.695  17.039  69.049  1.00  0.00    -0.180 C  
HETATM   37  C   UNL     1      -9.247  14.765  65.742  1.00  0.00     0.048 A  
HETATM   38  C   UNL     1      -8.114  12.662  66.345  1.00  0.00     0.503 C  
HETATM   39  C   UNL     1      -8.163  16.203  67.882  1.00  0.00    -0.159 A  
HETATM   40  C   UNL     1      -8.335  14.130  66.609  1.00  0.00     0.205 A  
HETATM   41  C   UNL     1      -9.607  16.097  65.917  1.00  0.00    -0.359 A  
HETATM   42  C   UNL     1      -9.076  16.801  67.000  1.00  0.00    -0.239 A  
BRANCH  41  43
HETATM   43  C   UNL     1     -10.569  16.813  65.034  1.00  0.00    -0.039 C  
HETATM   44  H2  UNL     1     -11.002  15.130  63.891  1.00  0.00     0.000 HD 
HETATM   45  H1  UNL     1     -11.852  16.613  63.426  1.00  0.00     0.000 HD 
HETATM   46  N   UNL     1     -11.193  16.123  64.031  1.00  0.00     0.131 N  
HETATM   47  O   UNL     1     -10.814  18.006  65.183  1.00  0.00    -0.665 OA 
ENDBRANCH  41  43
ENDBRANCH  34  35
ENDBRANCH  30  34
ENDBRANCH  15  30
ENDBRANCH  12  13
ENDBRANCH   6  12
ENDBRANCH   2   3
TORSDOF 10
ENDMDL
MODEL      235
REMARK 921   NORMALIZED FREE ENERGY PREDICTED BY IDOCK:   -1.62 KCAL/MOL
REMARK 922        TOTAL FREE ENERGY PREDICTED BY IDOCK:   -5.44 KCAL/MOL
REMARK 923 INTER-LIGAND FREE ENERGY PREDICTED BY IDOCK:   -7.56 KCAL/MOL
REMARK 924 INTRA-LIGAND FREE ENERGY PREDICTED BY IDOCK:    2.12 KCAL/MOL
REMARK 927      BINDING AFFINITY PREDICTED BY RF-SCORE:    0.00 PKD
ROOT
HETATM    1  C   UNL     1      -5.872  11.716  70.158  1.00  0.00    -0.153 C  
HETATM    2  O   UNL     1      -7.112  11.038  70.366  1.00  0.00    -0.061 OA 
ENDROOT
BRANCH   2   3
HETATM    3  C   UNL     1      -8.052  11.143  69.372  1.00  0.00     0.152 A  
HETATM    4  C   UNL     1      -7.858  11.865  68.192  1.00  0.00    -0.134 A  
HETATM    5  C   UNL     1      -8.819  11.849  67.176  1.00  0.00    -0.180 A  
HETATM    6  C   UNL     1     -10.017  11.144  67.321  1.00  0.00    -0.211 A  
HETATM    7  C   UNL     1     -10.240  10.469  68.532  1.00  0.00    -0.190 A  
HETATM    8  C   UNL     1      -9.611   9.693  70.783  1.00  0.00    -0.087 C  
HETATM    9  O   UNL     1      -8.557   9.150  71.425  1.00  0.00    -0.314 OA 
HETATM   10  C   UNL     1      -9.265  10.454  69.549  1.00  0.00    -0.143 A  
HETATM   11  O   UNL     1     -10.766   9.520  71.141  1.00  0.00    -0.316 OA 
BRANCH   6  12
HETATM   12  C   UNL     1     -11.044  11.060  66.210  1.00  0.00    -0.037 C  
BRANCH  12  13
HETATM   13  N   UNL     1     -10.847  11.985  65.079  1.00  0.00    -0.294 N  
HETATM   14  O   UNL     1      -9.598  12.687  63.261  1.00  0.00     0.032 OA 
HETATM   15  C   UNL     1      -9.835  11.812  64.104  1.00  0.00    -0.223 C  
BRANCH  13  16
HETATM   16  C   UNL     1     -11.519  13.309  65.154  1.00  0.00    -0.295 C  
HETATM   17  C   UNL     1     -12.907  13.272  65.820  1.00  0.00    -0.135 C  
BRANCH  16  18
HETATM   18  C   UNL     1     -10.673  14.315  65.905  1.00  0.00    -0.303 A  
HETATM   19  C   UNL     1      -8.842  15.484  66.375  1.00  0.00    -0.324 A  
HETATM   20  C   UNL     1      -9.972  16.191  66.725  1.00  0.00    -0.258 A  
HETATM   21  N   UNL     1     -11.092  15.432  66.472  1.00  0.00    -0.276 NA 
HETATM   22  H   UNL     1     -12.058  15.683  66.680  1.00  0.00     0.000 HD 
HETATM   23  N   UNL     1      -9.298  14.284  65.887  1.00  0.00    -0.116 NA 
BRANCH  20  24
HETATM   24  C   UNL     1     -10.050  17.569  67.191  1.00  0.00    -0.321 A  
HETATM   25  C   UNL     1     -10.262  19.938  66.639  1.00  0.00    -0.609 A  
HETATM   26  C   UNL     1     -10.069  20.279  67.974  1.00  0.00    -0.451 A  
HETATM   27  C   UNL     1      -9.883  19.273  68.923  1.00  0.00    -0.512 A  
HETATM   28  C   UNL     1     -10.255  18.595  66.253  1.00  0.00    -0.462 A  
HETATM   29  C   UNL     1      -9.879  17.925  68.536  1.00  0.00    -0.367 A  
ENDBRANCH  20  24
ENDBRANCH  16  18
ENDBRANCH  13  16
BRANCH  15  30
HETATM   30  C   UNL     1      -9.041  10.452  64.101  1.00  0.00    -0.242 C  
HETATM   31  H2  UNL     1      -7.973  10.926  65.841  1.00  0.00     0.000 HD 
HETATM   32  N   UNL     1      -7.789  10.593  64.895  1.00  0.00    -0.340 NA 
HETATM   33  H1  UNL     1      -7.275   9.712  64.892  1.00  0.00     0.000 HD 
BRANCH  30  34
HETATM   34  C   UNL     1      -9.781   9.233  64.694  1.00  0.00     0.436 C  
BRANCH  34  35
HETATM   35  C   UNL     1      -8.993   7.983  65.038  1.00  0.00     0.246 A  
HETATM   36  C   UNL     1      -7.856   8.063  62.724  1.00  0.00    -0.140 C  
HETATM   37  C   UNL     1      -8.435   6.121  66.521  1.00  0.00    -0.119 A  
HETATM   38  C   UNL     1     -10.280   7.579  67.257  1.00  0.00    -0.337 C  
HETATM   39  C   UNL     1      -8.073   7.459  64.092  1.00  0.00    -0.046 A  
HETATM   40  C   UNL     1      -9.219   7.257  66.235  1.00  0.00    -0.175 A  
HETATM   41  C   UNL     1      -7.473   5.661  65.628  1.00  0.00    -0.074 A  
HETATM   42  C   UNL     1      -7.312   6.323  64.410  1.00  0.00    -0.074 A  
BRANCH  41  43
HETATM   43  C   UNL     1      -6.622   4.464  65.880  1.00  0.00    -0.044 C  
HETATM   44  H2  UNL     1      -6.011   5.109  67.761  1.00  0.00     0.000 HD 
HETATM   45  H1  UNL     1      -5.357   3.549  67.233  1.00  0.00     0.000 HD 
HETATM   46  N   UNL     1      -5.939   4.369  67.061  1.00  0.00    -0.023 N  
HETATM   47  O   UNL     1      -6.520   3.563  65.053  1.00  0.00    -0.033 OA 
ENDBRANCH  41  43
ENDBRANCH  34  35
ENDBRANCH  30  34
ENDBRANCH  15  30
ENDBRANCH  12  13
ENDBRANCH   6  12
ENDBRANCH   2   3
TORSDOF 10
ENDMDL
MODEL      236
REMARK 921   NORMALIZED FREE ENERGY PREDICTED BY IDOCK:   -1.55 KCAL/MOL
REMARK 922        TOTAL FREE ENERGY PREDICTED BY IDOCK:   -5.33 KCAL/MOL
REMARK 923 INTER-LIGAND FREE ENERGY PREDICTED BY IDOCK:   -3.94 KCAL/MOL
REMARK 924 INTRA-LIGAND FREE ENERGY PREDICTED BY IDOCK:   -1.38 KCAL/MOL
REMARK 927      BINDING AFFINITY PREDICTED BY RF-SCORE:    0.00 PKD
ROOT
HETATM    1  C   UNL     1      -8.798  16.585  68.822  1.00  0.00    -0.255 C  
HETATM    2  O   UNL     1      -8.938  15.815  67.627  1.00  0.00    -0.184 OA 
ENDROOT
BRANCH   2   3
HETATM    3  C   UNL     1      -8.747  14.460  67.734  1.00  0.00    -0.180 A  
HETATM    4  C   UNL     1      -9.773  13.549  67.996  1.00  0.00    -0.228 A  
HETATM    5  C   UNL     1      -9.527  12.172  67.993  1.00  0.00    -0.201 A  
HETATM    6  C   UNL     1      -8.244  11.665  67.767  1.00  0.00    -0.141 A  
HETATM    7  C   UNL     1      -7.201  12.583  67.565  1.00  0.00    -0.147 A  
HETATM    8  C   UNL     1      -6.260  14.843  67.299  1.00  0.00     0.333 C  
HETATM    9  O   UNL     1      -6.529  15.999  66.659  1.00  0.00    -0.220 OA 
HETATM   10  C   UNL     1      -7.444  13.970  67.535  1.00  0.00    -0.186 A  
HETATM   11  O   UNL     1      -5.127  14.500  67.601  1.00  0.00    -0.305 OA 
BRANCH   6  12
HETATM   12  C   UNL     1      -7.966  10.177  67.696  1.00  0.00    -0.102 C  
BRANCH  12  13
HETATM   13  N   UNL     1      -8.896   9.312  68.445  1.00  0.00    -0.129 N  
HETATM   14  O   UNL     1      -9.301   7.845  70.189  1.00  0.00    -0.156 OA 
HETATM   15  C   UNL     1      -8.556   8.685  69.668  1.00  0.00    -0.131 C  
BRANCH  13  16
HETATM   16  C   UNL     1     -10.104   8.826  67.728  1.00  0.00    -0.207 C  
HETATM   17  C   UNL     1     -10.711   9.851  66.752  1.00  0.00    -0.154 C  
BRANCH  16  18
HETATM   18  C   UNL     1      -9.811   7.562  66.947  1.00  0.00    -0.226 A  
HETATM   19  C   UNL     1      -8.900   6.335  65.334  1.00  0.00     0.016 A  
HETATM   20  C   UNL     1      -9.109   5.573  66.464  1.00  0.00    -0.138 A  
HETATM   21  N   UNL     1      -9.717   6.338  67.434  1.00  0.00    -0.117 NA 
HETATM   22  H   UNL     1     -10.033   6.022  68.350  1.00  0.00     0.000 HD 
HETATM   23  N   UNL     1      -9.379   7.585  65.642  1.00  0.00     0.182 NA 
BRANCH  20  24
HETATM   24  C   UNL     1      -8.679   4.203  66.705  1.00  0.00    -0.114 A  
HETATM   25  C   UNL     1      -6.954   2.493  66.453  1.00  0.00    -0.048 A  
HETATM   26  C   UNL     1      -7.806   1.535  66.995  1.00  0.00    -0.065 A  
HETATM   27  C   UNL     1      -9.086   1.906  67.408  1.00  0.00    -0.166 A  
HETATM   28  C   UNL     1      -7.387   3.814  66.312  1.00  0.00    -0.075 A  
HETATM   29  C   UNL     1      -9.520   3.233  67.270  1.00  0.00    -0.189 A  
ENDBRANCH  20  24
ENDBRANCH  16  18
ENDBRANCH  13  16
BRANCH  15  30
HETATM   30  C   UNL     1      -7.213   9.116  70.369  1.00  0.00    -0.084 C  
HETATM   31  H2  UNL     1      -8.198  10.025  71.980  1.00  0.00     0.000 HD 
HETATM   32  N   UNL     1      -7.467  10.246  71.304  1.00  0.00     0.447 NA 
HETATM   33  H1  UNL     1      -6.597  10.525  71.757  1.00  0.00     0.000 HD 
BRANCH  30  34
HETATM   34  C   UNL     1      -6.506   8.028  71.206  1.00  0.00    -0.038 C  
BRANCH  34  35
HETATM   35  C   UNL     1      -6.989   6.592  71.116  1.00  0.00    -0.071 A  
HETATM   36  C   UNL     1      -8.164   6.845  73.398  1.00  0.00    -0.123 C  
HETATM   37  C   UNL     1      -7.088   4.412  70.015  1.00  0.00    -0.045 A  
HETATM   38  C   UNL     1      -5.598   6.081  68.985  1.00  0.00    -0.011 C  
HETATM   39  C   UNL     1      -7.790   6.062  72.162  1.00  0.00    -0.102 A  
HETATM   40  C   UNL     1      -6.582   5.726  70.071  1.00  0.00    -0.043 A  
HETATM   41  C   UNL     1      -7.943   3.923  70.998  1.00  0.00    -0.063 A  
HETATM   42  C   UNL     1      -8.272   4.747  72.076  1.00  0.00    -0.110 A  
BRANCH  41  43
HETATM   43  C   UNL     1      -8.501   2.542  70.989  1.00  0.00    -0.057 C  
HETATM   44  H2  UNL     1     -10.477   3.178  71.108  1.00  0.00     0.000 HD 
HETATM   45  H1  UNL     1     -10.237   1.424  71.049  1.00  0.00     0.000 HD 
HETATM   46  N   UNL     1      -9.856   2.370  71.055  1.00  0.00    -0.074 N  
HETATM   47  O   UNL     1      -7.773   1.555  70.926  1.00  0.00    -0.033 OA 
ENDBRANCH  41  43
ENDBRANCH  34  35
ENDBRANCH  30  34
ENDBRANCH  15  30
ENDBRANCH  12  13
ENDBRANCH   6  12
ENDBRANCH   2   3
TORSDOF 10
ENDMDL
MODEL      237
REMARK 921   NORMALIZED FREE ENERGY PREDICTED BY IDOCK:   -1.49 KCAL/MOL
REMARK 922        TOTAL FREE ENERGY PREDICTED BY IDOCK:   -5.23 KCAL/MOL
REMARK 923 INTER-LIGAND FREE ENERGY PREDICTED BY IDOCK:   -6.82 KCAL/MOL
REMARK 924 INTRA-LIGAND FREE ENERGY PREDICTED BY IDOCK:    1.59 KCAL/MOL
REMARK 927      BINDING AFFINITY PREDICTED BY RF-SCORE:    0.00 PKD
ROOT
HETATM    1  C   UNL     1     -13.068  13.050  64.037  1.00  0.00     0.481 C  
HETATM    2  O   UNL     1     -11.794  13.573  64.418  1.00  0.00    -0.379 OA 
ENDROOT
BRANCH   2   3
HETATM    3  C   UNL     1     -10.927  12.708  65.037  1.00  0.00    -0.289 A  
HETATM    4  C   UNL     1     -10.110  11.804  64.352  1.00  0.00    -0.319 A  
HETATM    5  C   UNL     1      -9.176  11.021  65.037  1.00  0.00    -0.219 A  
HETATM    6  C   UNL     1      -9.055  11.087  66.428  1.00  0.00    -0.191 A  
HETATM    7  C   UNL     1      -9.918  11.950  67.123  1.00  0.00    -0.209 A  
HETATM    8  C   UNL     1     -11.693  13.649  67.283  1.00  0.00    -0.380 C  
HETATM    9  O   UNL     1     -12.066  14.803  66.696  1.00  0.00    -0.278 OA 
HETATM   10  C   UNL     1     -10.840  12.765  66.439  1.00  0.00    -0.294 A  
HETATM   11  O   UNL     1     -11.970  13.375  68.441  1.00  0.00    -0.348 OA 
BRANCH   6  12
HETATM   12  C   UNL     1      -8.007  10.295  67.185  1.00  0.00    -0.114 C  
BRANCH  12  13
HETATM   13  N   UNL     1      -7.883  10.600  68.622  1.00  0.00    -0.113 N  
HETATM   14  O   UNL     1      -6.826  11.726  70.346  1.00  0.00     0.144 OA 
HETATM   15  C   UNL     1      -7.022  11.602  69.130  1.00  0.00    -0.105 C  
BRANCH  13  16
HETATM   16  C   UNL     1      -8.434   9.606  69.581  1.00  0.00    -0.174 C  
HETATM   17  C   UNL     1      -9.965   9.659  69.733  1.00  0.00    -0.252 C  
BRANCH  16  18
HETATM   18  C   UNL     1      -8.058   8.193  69.187  1.00  0.00    -0.121 A  
HETATM   19  C   UNL     1      -6.706   6.560  68.521  1.00  0.00    -0.068 A  
HETATM   20  C   UNL     1      -7.727   6.058  69.300  1.00  0.00    -0.095 A  
HETATM   21  N   UNL     1      -8.579   7.077  69.661  1.00  0.00    -0.134 NA 
HETATM   22  H   UNL     1      -9.444   6.987  70.193  1.00  0.00     0.000 HD 
HETATM   23  N   UNL     1      -6.945   7.909  68.430  1.00  0.00    -0.073 NA 
BRANCH  20  24
HETATM   24  C   UNL     1      -7.881   4.696  69.795  1.00  0.00    -0.061 A  
HETATM   25  C   UNL     1      -6.857   2.532  70.273  1.00  0.00    -0.033 A  
HETATM   26  C   UNL     1      -8.101   2.002  70.601  1.00  0.00    -0.053 A  
HETATM   27  C   UNL     1      -9.234   2.815  70.546  1.00  0.00    -0.208 A  
HETATM   28  C   UNL     1      -6.749   3.868  69.876  1.00  0.00    -0.034 A  
HETATM   29  C   UNL     1      -9.125   4.156  70.150  1.00  0.00    -0.181 A  
ENDBRANCH  20  24
ENDBRANCH  16  18
ENDBRANCH  13  16
BRANCH  15  30
HETATM   30  C   UNL     1      -6.345  12.582  68.100  1.00  0.00    -0.076 C  
HETATM   31  H2  UNL     1      -6.456  11.205  66.524  1.00  0.00     0.000 HD 
HETATM   32  N   UNL     1      -5.765  11.809  66.968  1.00  0.00    -0.123 NA 
HETATM   33  H1  UNL     1      -5.326  12.444  66.302  1.00  0.00     0.000 HD 
BRANCH  30  34
HETATM   34  C   UNL     1      -7.273  13.637  67.457  1.00  0.00    -0.169 C  
BRANCH  34  35
HETATM   35  C   UNL     1      -7.167  15.085  67.897  1.00  0.00    -0.162 A  
HETATM   36  C   UNL     1      -5.753  14.363  69.930  1.00  0.00    -0.110 C  
HETATM   37  C   UNL     1      -7.709  17.458  67.667  1.00  0.00    -0.203 A  
HETATM   38  C   UNL     1      -8.838  15.930  66.098  1.00  0.00    -0.363 C  
HETATM   39  C   UNL     1      -6.423  15.404  69.064  1.00  0.00    -0.113 A  
HETATM   40  C   UNL     1      -7.871  16.124  67.239  1.00  0.00    -0.207 A  
HETATM   41  C   UNL     1      -6.909  17.776  68.760  1.00  0.00    -0.247 A  
HETATM   42  C   UNL     1      -6.288  16.742  69.464  1.00  0.00    -0.229 A  
BRANCH  41  43
HETATM   43  C   UNL     1      -6.710  19.166  69.256  1.00  0.00    -0.305 C  
HETATM   44  H2  UNL     1      -5.980  18.560  71.107  1.00  0.00     0.000 HD 
HETATM   45  H1  UNL     1      -6.076  20.311  70.855  1.00  0.00     0.000 HD 
HETATM   46  N   UNL     1      -6.212  19.359  70.515  1.00  0.00    -0.112 N  
HETATM   47  O   UNL     1      -6.982  20.141  68.563  1.00  0.00    -0.299 OA 
ENDBRANCH  41  43
ENDBRANCH  34  35
ENDBRANCH  30  34
ENDBRANCH  15  30
ENDBRANCH  12  13
ENDBRANCH   6  12
ENDBRANCH   2   3
TORSDOF 10
ENDMDL
MODEL      238
REMARK 921   NORMALIZED FREE ENERGY PREDICTED BY IDOCK:   -1.47 KCAL/MOL
REMARK 922        TOTAL FREE ENERGY PREDICTED BY IDOCK:   -5.20 KCAL/MOL
REMARK 923 INTER-LIGAND FREE ENERGY PREDICTED BY IDOCK:   -6.61 KCAL/MOL
REMARK 924 INTRA-LIGAND FREE ENERGY PREDICTED BY IDOCK:    1.41 KCAL/MOL
REMARK 927      BINDING AFFINITY PREDICTED BY RF-SCORE:    0.00 PKD
ROOT
HETATM    1  C   UNL     1     -13.444  12.603  64.560  1.00  0.00     0.950 C  
HETATM    2  O   UNL     1     -12.072  12.868  64.265  1.00  0.00    -0.373 OA 
ENDROOT
BRANCH   2   3
HETATM    3  C   UNL     1     -11.139  12.056  64.860  1.00  0.00    -0.316 A  
HETATM    4  C   UNL     1     -10.414  11.076  64.177  1.00  0.00    -0.434 A  
HETATM    5  C   UNL     1      -9.407  10.350  64.821  1.00  0.00    -0.301 A  
HETATM    6  C   UNL     1      -9.118  10.554  66.173  1.00  0.00    -0.184 A  
HETATM    7  C   UNL     1      -9.888  11.494  66.876  1.00  0.00    -0.220 A  
HETATM    8  C   UNL     1     -11.625  13.229  67.075  1.00  0.00    -0.359 C  
HETATM    9  O   UNL     1     -12.062  14.324  66.423  1.00  0.00    -0.422 OA 
HETATM   10  C   UNL     1     -10.884  12.252  66.229  1.00  0.00    -0.313 A  
HETATM   11  O   UNL     1     -11.761  13.076  68.279  1.00  0.00    -0.314 OA 
BRANCH   6  12
HETATM   12  C   UNL     1      -7.990   9.824  66.876  1.00  0.00    -0.105 C  
BRANCH  12  13
HETATM   13  N   UNL     1      -8.132   9.671  68.335  1.00  0.00    -0.104 N  
HETATM   14  O   UNL     1      -7.404  10.152  70.479  1.00  0.00    -0.292 OA 
HETATM   15  C   UNL     1      -7.373  10.415  69.270  1.00  0.00    -0.106 C  
BRANCH  13  16
HETATM   16  C   UNL     1      -8.858   8.472  68.828  1.00  0.00    -0.139 C  
HETATM   17  C   UNL     1     -10.383   8.529  68.620  1.00  0.00    -0.224 C  
BRANCH  16  18
HETATM   18  C   UNL     1      -8.349   7.208  68.166  1.00  0.00    -0.124 A  
HETATM   19  C   UNL     1      -8.285   5.033  67.716  1.00  0.00    -0.098 A  
HETATM   20  C   UNL     1      -7.834   5.765  66.639  1.00  0.00    -0.101 A  
HETATM   21  N   UNL     1      -7.836   7.105  66.954  1.00  0.00    -0.106 NA 
HETATM   22  H   UNL     1      -7.505   7.869  66.366  1.00  0.00     0.000 HD 
HETATM   23  N   UNL     1      -8.578   5.957  68.689  1.00  0.00    -0.111 NA 
BRANCH  20  24
HETATM   24  C   UNL     1      -7.498   5.275  65.309  1.00  0.00    -0.077 A  
HETATM   25  C   UNL     1      -7.246   3.373  63.799  1.00  0.00    -0.050 A  
HETATM   26  C   UNL     1      -6.735   4.209  62.811  1.00  0.00    -0.031 A  
HETATM   27  C   UNL     1      -6.618   5.577  63.057  1.00  0.00    -0.025 A  
HETATM   28  C   UNL     1      -7.626   3.903  65.035  1.00  0.00    -0.077 A  
HETATM   29  C   UNL     1      -7.003   6.110  64.297  1.00  0.00    -0.051 A  
ENDBRANCH  20  24
ENDBRANCH  16  18
ENDBRANCH  13  16
BRANCH  15  30
HETATM   30  C   UNL     1      -6.509  11.615  68.728  1.00  0.00    -0.064 C  
HETATM   31  H2  UNL     1      -6.268  10.751  66.834  1.00  0.00     0.000 HD 
HETATM   32  N   UNL     1      -5.693  11.170  67.565  1.00  0.00    -0.045 NA 
HETATM   33  H1  UNL     1      -5.134  11.948  67.214  1.00  0.00     0.000 HD 
BRANCH  30  34
HETATM   34  C   UNL     1      -7.297  12.852  68.241  1.00  0.00    -0.118 C  
BRANCH  34  35
HETATM   35  C   UNL     1      -6.887  14.230  68.726  1.00  0.00    -0.099 A  
HETATM   36  C   UNL     1      -5.598  13.157  70.686  1.00  0.00    -0.179 C  
HETATM   37  C   UNL     1      -6.943  16.670  68.597  1.00  0.00    -0.172 A  
HETATM   38  C   UNL     1      -8.397  15.466  67.014  1.00  0.00    -0.268 C  
HETATM   39  C   UNL     1      -6.065  14.345  69.879  1.00  0.00    -0.141 A  
HETATM   40  C   UNL     1      -7.382  15.416  68.128  1.00  0.00    -0.122 A  
HETATM   41  C   UNL     1      -6.068  16.776  69.673  1.00  0.00    -0.223 A  
HETATM   42  C   UNL     1      -5.651  15.611  70.320  1.00  0.00    -0.158 A  
BRANCH  41  43
HETATM   43  C   UNL     1      -5.578  18.077  70.210  1.00  0.00    -0.237 C  
HETATM   44  H2  UNL     1      -5.986  19.124  68.460  1.00  0.00     0.000 HD 
HETATM   45  H1  UNL     1      -5.287  20.076  69.779  1.00  0.00     0.000 HD 
HETATM   46  N   UNL     1      -5.622  19.186  69.411  1.00  0.00    -0.204 N  
HETATM   47  O   UNL     1      -5.135  18.175  71.350  1.00  0.00    -0.469 OA 
ENDBRANCH  41  43
ENDBRANCH  34  35
ENDBRANCH  30  34
ENDBRANCH  15  30
ENDBRANCH  12  13
ENDBRANCH   6  12
ENDBRANCH   2   3
TORSDOF 10
ENDMDL
MODEL      239
REMARK 921   NORMALIZED FREE ENERGY PREDICTED BY IDOCK:   -1.36 KCAL/MOL
REMARK 922        TOTAL FREE ENERGY PREDICTED BY IDOCK:   -5.03 KCAL/MOL
REMARK 923 INTER-LIGAND FREE ENERGY PREDICTED BY IDOCK:   -5.19 KCAL/MOL
REMARK 924 INTRA-LIGAND FREE ENERGY PREDICTED BY IDOCK:    0.15 KCAL/MOL
REMARK 927      BINDING AFFINITY PREDICTED BY RF-SCORE:    0.00 PKD
ROOT
HETATM    1  C   UNL     1     -10.930  11.893  65.313  1.00  0.00    -0.302 C  
HETATM    2  O   UNL     1     -10.025  12.369  66.311  1.00  0.00    -0.235 OA 
ENDROOT
BRANCH   2   3
HETATM    3  C   UNL     1      -9.801  11.550  67.389  1.00  0.00    -0.186 A  
HETATM    4  C   UNL     1      -8.861  10.515  67.397  1.00  0.00    -0.132 A  
HETATM    5  C   UNL     1      -8.613   9.782  68.561  1.00  0.00    -0.120 A  
HETATM    6  C   UNL     1      -9.319  10.032  69.741  1.00  0.00    -0.233 A  
HETATM    7  C   UNL     1     -10.306  11.030  69.717  1.00  0.00     0.112 A  
HETATM    8  C   UNL     1     -11.607  12.833  68.659  1.00  0.00    -0.314 C  
HETATM    9  O   UNL     1     -11.415  13.915  67.877  1.00  0.00    -0.283 OA 
HETATM   10  C   UNL     1     -10.543  11.795  68.558  1.00  0.00    -0.242 A  
HETATM   11  O   UNL     1     -12.539  12.738  69.441  1.00  0.00     0.154 OA 
BRANCH   6  12
HETATM   12  C   UNL     1      -9.022   9.294  71.031  1.00  0.00    -0.156 C  
BRANCH  12  13
HETATM   13  N   UNL     1      -9.245   7.837  71.005  1.00  0.00    -0.150 N  
HETATM   14  O   UNL     1      -8.421   5.690  70.741  1.00  0.00    -0.120 OA 
HETATM   15  C   UNL     1      -8.193   6.893  70.918  1.00  0.00    -0.118 C  
BRANCH  13  16
HETATM   16  C   UNL     1     -10.627   7.362  70.734  1.00  0.00    -0.223 C  
HETATM   17  C   UNL     1     -11.712   8.438  70.929  1.00  0.00    -0.269 C  
BRANCH  16  18
HETATM   18  C   UNL     1     -10.759   6.825  69.323  1.00  0.00    -0.253 A  
HETATM   19  C   UNL     1     -10.634   6.886  67.106  1.00  0.00    -0.338 A  
HETATM   20  C   UNL     1     -10.461   5.598  67.566  1.00  0.00    -0.229 A  
HETATM   21  N   UNL     1     -10.589   5.575  68.937  1.00  0.00    -0.217 NA 
HETATM   22  H   UNL     1     -10.559   4.750  69.537  1.00  0.00     0.000 HD 
HETATM   23  N   UNL     1     -10.854   7.649  68.226  1.00  0.00    -0.039 NA 
BRANCH  20  24
HETATM   24  C   UNL     1     -10.087   4.421  66.795  1.00  0.00    -0.177 A  
HETATM   25  C   UNL     1      -9.033   2.219  66.746  1.00  0.00    -0.136 A  
HETATM   26  C   UNL     1      -9.194   2.158  65.365  1.00  0.00    -0.051 A  
HETATM   27  C   UNL     1      -9.815   3.214  64.696  1.00  0.00    -0.094 A  
HETATM   28  C   UNL     1      -9.477   3.339  67.453  1.00  0.00    -0.198 A  
HETATM   29  C   UNL     1     -10.264   4.337  65.406  1.00  0.00    -0.235 A  
ENDBRANCH  20  24
ENDBRANCH  16  18
ENDBRANCH  13  16
BRANCH  15  30
HETATM   30  C   UNL     1      -6.718   7.418  71.088  1.00  0.00    -0.047 C  
HETATM   31  H2  UNL     1      -5.985   5.544  71.674  1.00  0.00     0.000 HD 
HETATM   32  N   UNL     1      -5.957   6.512  71.992  1.00  0.00    -0.037 NA 
HETATM   33  H1  UNL     1      -5.002   6.852  72.102  1.00  0.00     0.000 HD 
BRANCH  30  34
HETATM   34  C   UNL     1      -5.881   7.519  69.793  1.00  0.00    -0.024 C  
BRANCH  34  35
HETATM   35  C   UNL     1      -5.904   6.369  68.804  1.00  0.00    -0.020 A  
HETATM   36  C   UNL     1      -6.972   7.913  67.035  1.00  0.00    -0.074 C  
HETATM   37  C   UNL     1      -5.539   4.027  68.205  1.00  0.00    -0.020 A  
HETATM   38  C   UNL     1      -5.142   4.619  70.563  1.00  0.00     0.000 C  
HETATM   39  C   UNL     1      -6.410   6.589  67.495  1.00  0.00    -0.043 A  
HETATM   40  C   UNL     1      -5.532   5.052  69.173  1.00  0.00    -0.008 A  
HETATM   41  C   UNL     1      -5.954   4.267  66.899  1.00  0.00    -0.024 A  
HETATM   42  C   UNL     1      -6.406   5.543  66.559  1.00  0.00    -0.039 A  
BRANCH  41  43
HETATM   43  C   UNL     1      -5.986   3.219  65.841  1.00  0.00    -0.023 C  
HETATM   44  H2  UNL     1      -6.579   4.535  64.344  1.00  0.00     0.000 HD 
HETATM   45  H1  UNL     1      -6.362   2.851  63.843  1.00  0.00     0.000 HD 
HETATM   46  N   UNL     1      -6.340   3.569  64.567  1.00  0.00    -0.023 N  
HETATM   47  O   UNL     1      -5.703   2.050  66.086  1.00  0.00    -0.019 OA 
ENDBRANCH  41  43
ENDBRANCH  34  35
ENDBRANCH  30  34
ENDBRANCH  15  30
ENDBRANCH  12  13
ENDBRANCH   6  12
ENDBRANCH   2   3
TORSDOF 10
ENDMDL
MODEL      240
REMARK 921   NORMALIZED FREE ENERGY PREDICTED BY IDOCK:   -1.32 KCAL/MOL
REMARK 922        TOTAL FREE ENERGY PREDICTED BY IDOCK:   -4.97 KCAL/MOL
REMARK 923 INTER-LIGAND FREE ENERGY PREDICTED BY IDOCK:   -5.74 KCAL/MOL
REMARK 924 INTRA-LIGAND FREE ENERGY PREDICTED BY IDOCK:    0.77 KCAL/MOL
REMARK 927      BINDING AFFINITY PREDICTED BY RF-SCORE:    0.00 PKD
ROOT
HETATM    1  C   UNL     1      -8.086  11.008  62.953  1.00  0.00     0.095 C  
HETATM    2  O   UNL     1      -6.983  10.100  62.950  1.00  0.00    -0.126 OA 
ENDROOT
BRANCH   2   3
HETATM    3  C   UNL     1      -6.538   9.658  64.171  1.00  0.00    -0.112 A  
HETATM    4  C   UNL     1      -6.202  10.507  65.229  1.00  0.00    -0.095 A  
HETATM    5  C   UNL     1      -5.850   9.989  66.479  1.00  0.00    -0.059 A  
HETATM    6  C   UNL     1      -5.786   8.610  66.701  1.00  0.00    -0.052 A  
HETATM    7  C   UNL     1      -6.063   7.757  65.621  1.00  0.00    -0.038 A  
HETATM    8  C   UNL     1      -6.729   7.265  63.302  1.00  0.00    -0.053 C  
HETATM    9  O   UNL     1      -7.651   7.646  62.396  1.00  0.00    -0.092 OA 
HETATM   10  C   UNL     1      -6.448   8.269  64.367  1.00  0.00    -0.066 A  
HETATM   11  O   UNL     1      -6.213   6.158  63.298  1.00  0.00    -0.022 OA 
BRANCH   6  12
HETATM   12  C   UNL     1      -5.469   8.026  68.064  1.00  0.00    -0.033 C  
BRANCH  12  13
HETATM   13  N   UNL     1      -6.328   8.477  69.174  1.00  0.00    -0.042 N  
HETATM   14  O   UNL     1      -8.412   9.096  69.969  1.00  0.00    -0.127 OA 
HETATM   15  C   UNL     1      -7.737   8.568  69.075  1.00  0.00    -0.096 C  
BRANCH  13  16
HETATM   16  C   UNL     1      -5.666   9.163  70.314  1.00  0.00    -0.034 C  
HETATM   17  C   UNL     1      -5.997  10.663  70.425  1.00  0.00    -0.119 C  
BRANCH  16  18
HETATM   18  C   UNL     1      -6.026   8.512  71.633  1.00  0.00    -0.048 A  
HETATM   19  C   UNL     1      -6.925   8.391  73.662  1.00  0.00    -0.092 A  
HETATM   20  C   UNL     1      -6.894   7.147  73.070  1.00  0.00    -0.068 A  
HETATM   21  N   UNL     1      -6.290   7.235  71.836  1.00  0.00    -0.040 NA 
HETATM   22  H   UNL     1      -6.087   6.463  71.201  1.00  0.00     0.000 HD 
HETATM   23  N   UNL     1      -6.343   9.242  72.755  1.00  0.00    -0.297 NA 
BRANCH  20  24
HETATM   24  C   UNL     1      -7.486   5.911  73.565  1.00  0.00    -0.093 A  
HETATM   25  C   UNL     1      -7.212   3.546  74.101  1.00  0.00    -0.052 A  
HETATM   26  C   UNL     1      -8.572   3.437  74.376  1.00  0.00    -0.087 A  
HETATM   27  C   UNL     1      -9.390   4.562  74.264  1.00  0.00    -0.127 A  
HETATM   28  C   UNL     1      -6.676   4.772  73.702  1.00  0.00    -0.068 A  
HETATM   29  C   UNL     1      -8.851   5.794  73.866  1.00  0.00    -0.126 A  
ENDBRANCH  20  24
ENDBRANCH  16  18
ENDBRANCH  13  16
BRANCH  15  30
HETATM   30  C   UNL     1      -8.428   7.944  67.806  1.00  0.00    -0.125 C  
HETATM   31  H2  UNL     1      -9.077   6.240  68.840  1.00  0.00     0.000 HD 
HETATM   32  N   UNL     1      -8.580   6.473  67.981  1.00  0.00    -0.118 NA 
HETATM   33  H1  UNL     1      -9.028   6.069  67.158  1.00  0.00     0.000 HD 
BRANCH  30  34
HETATM   34  C   UNL     1      -9.840   8.475  67.472  1.00  0.00    -0.231 C  
BRANCH  34  35
HETATM   35  C   UNL     1     -10.706   9.030  68.587  1.00  0.00    -0.137 A  
HETATM   36  C   UNL     1     -10.962   6.659  69.569  1.00  0.00    -0.367 C  
HETATM   37  C   UNL     1     -11.892  10.859  69.695  1.00  0.00    -0.416 A  
HETATM   38  C   UNL     1     -10.815  11.407  67.548  1.00  0.00    -0.291 C  
HETATM   39  C   UNL     1     -11.210   8.149  69.580  1.00  0.00     0.085 A  
HETATM   40  C   UNL     1     -11.116  10.387  68.617  1.00  0.00    -0.313 A  
HETATM   41  C   UNL     1     -12.311  10.009  70.713  1.00  0.00    -0.396 A  
HETATM   42  C   UNL     1     -11.983   8.654  70.637  1.00  0.00    -0.056 A  
BRANCH  41  43
HETATM   43  C   UNL     1     -13.136  10.455  71.870  1.00  0.00    -0.458 C  
HETATM   44  H2  UNL     1     -12.828  12.479  71.500  1.00  0.00     0.000 HD 
HETATM   45  H1  UNL     1     -13.845  12.100  72.900  1.00  0.00     0.000 HD 
HETATM   46  N   UNL     1     -13.280  11.794  72.108  1.00  0.00    -0.414 N  
HETATM   47  O   UNL     1     -13.688   9.651  72.614  1.00  0.00    -0.328 OA 
ENDBRANCH  41  43
ENDBRANCH  34  35
ENDBRANCH  30  34
ENDBRANCH  15  30
ENDBRANCH  12  13
ENDBRANCH   6  12
ENDBRANCH   2   3
TORSDOF 10
ENDMDL
MODEL      241
REMARK 921   NORMALIZED FREE ENERGY PREDICTED BY IDOCK:   -1.16 KCAL/MOL
REMARK 922        TOTAL FREE ENERGY PREDICTED BY IDOCK:   -4.71 KCAL/MOL
REMARK 923 INTER-LIGAND FREE ENERGY PREDICTED BY IDOCK:   -6.22 KCAL/MOL
REMARK 924 INTRA-LIGAND FREE ENERGY PREDICTED BY IDOCK:    1.51 KCAL/MOL
REMARK 927      BINDING AFFINITY PREDICTED BY RF-SCORE:    0.00 PKD
ROOT
HETATM    1  C   UNL     1      -5.991  21.379  65.444  1.00  0.00    -0.005 C  
HETATM    2  O   UNL     1      -6.607  20.902  66.641  1.00  0.00    -0.265 OA 
ENDROOT
BRANCH   2   3
HETATM    3  C   UNL     1      -6.622  19.544  66.835  1.00  0.00    -0.193 A  
HETATM    4  C   UNL     1      -7.054  18.626  65.873  1.00  0.00    -0.290 A  
HETATM    5  C   UNL     1      -6.949  17.250  66.098  1.00  0.00    -0.251 A  
HETATM    6  C   UNL     1      -6.447  16.748  67.302  1.00  0.00    -0.208 A  
HETATM    7  C   UNL     1      -6.071  17.669  68.293  1.00  0.00    -0.165 A  
HETATM    8  C   UNL     1      -5.704  19.934  69.186  1.00  0.00    -0.237 C  
HETATM    9  O   UNL     1      -5.176  21.115  68.805  1.00  0.00    -0.309 OA 
HETATM   10  C   UNL     1      -6.143  19.057  68.064  1.00  0.00    -0.228 A  
HETATM   11  O   UNL     1      -5.756  19.576  70.352  1.00  0.00    -0.236 OA 
BRANCH   6  12
HETATM   12  C   UNL     1      -6.266  15.262  67.543  1.00  0.00    -0.072 C  
BRANCH  12  13
HETATM   13  N   UNL     1      -6.488  14.802  68.926  1.00  0.00    -0.086 N  
HETATM   14  O   UNL     1      -7.845  14.664  70.796  1.00  0.00     1.150 OA 
HETATM   15  C   UNL     1      -7.734  14.915  69.589  1.00  0.00    -0.072 C  
BRANCH  13  16
HETATM   16  C   UNL     1      -5.286  14.512  69.751  1.00  0.00    -0.092 C  
HETATM   17  C   UNL     1      -5.143  15.412  70.993  1.00  0.00    -0.149 C  
BRANCH  16  18
HETATM   18  C   UNL     1      -5.273  13.072  70.220  1.00  0.00    -0.106 A  
HETATM   19  C   UNL     1      -5.508  11.405  71.669  1.00  0.00     0.280 A  
HETATM   20  C   UNL     1      -5.764  10.971  70.386  1.00  0.00    -0.130 A  
HETATM   21  N   UNL     1      -5.566  12.006  69.499  1.00  0.00    -0.072 NA 
HETATM   22  H   UNL     1      -5.634  11.957  68.482  1.00  0.00     0.000 HD 
HETATM   23  N   UNL     1      -5.167  12.729  71.547  1.00  0.00    -0.310 NA 
BRANCH  20  24
HETATM   24  C   UNL     1      -6.275   9.672  69.971  1.00  0.00    -0.055 A  
HETATM   25  C   UNL     1      -7.619   7.704  70.499  1.00  0.00    -0.081 A  
HETATM   26  C   UNL     1      -7.202   7.087  69.324  1.00  0.00    -0.086 A  
HETATM   27  C   UNL     1      -6.338   7.762  68.460  1.00  0.00    -0.044 A  
HETATM   28  C   UNL     1      -7.160   8.984  70.817  1.00  0.00    -0.092 A  
HETATM   29  C   UNL     1      -5.880   9.049  68.778  1.00  0.00    -0.041 A  
ENDBRANCH  20  24
ENDBRANCH  16  18
ENDBRANCH  13  16
BRANCH  15  30
HETATM   30  C   UNL     1      -8.987  15.339  68.735  1.00  0.00    -0.200 C  
HETATM   31  H2  UNL     1      -8.661  17.387  69.040  1.00  0.00     0.000 HD 
HETATM   32  N   UNL     1      -9.421  16.711  69.115  1.00  0.00    -0.229 NA 
HETATM   33  H1  UNL     1     -10.233  16.985  68.562  1.00  0.00     0.000 HD 
BRANCH  30  34
HETATM   34  C   UNL     1      -8.784  15.371  67.204  1.00  0.00    -0.243 C  
BRANCH  34  35
HETATM   35  C   UNL     1      -9.631  14.470  66.325  1.00  0.00    -0.328 A  
HETATM   36  C   UNL     1     -10.610  16.543  65.143  1.00  0.00    -0.237 C  
HETATM   37  C   UNL     1     -10.463  12.272  65.652  1.00  0.00    -0.293 A  
HETATM   38  C   UNL     1      -8.991  12.317  67.626  1.00  0.00    -0.181 C  
HETATM   39  C   UNL     1     -10.475  15.052  65.342  1.00  0.00    -0.406 A  
HETATM   40  C   UNL     1      -9.687  13.067  66.519  1.00  0.00    -0.266 A  
HETATM   41  C   UNL     1     -11.223  12.840  64.634  1.00  0.00    -0.356 A  
HETATM   42  C   UNL     1     -11.238  14.229  64.499  1.00  0.00    -0.331 A  
BRANCH  41  43
HETATM   43  C   UNL     1     -12.064  12.046  63.695  1.00  0.00    -0.527 C  
HETATM   44  H2  UNL     1     -10.464  10.934  62.965  1.00  0.00     0.000 HD 
HETATM   45  H1  UNL     1     -12.046  10.554  62.266  1.00  0.00     0.000 HD 
HETATM   46  N   UNL     1     -11.470  11.097  62.909  1.00  0.00     0.583 N  
HETATM   47  O   UNL     1     -13.275  12.224  63.609  1.00  0.00    -0.758 OA 
ENDBRANCH  41  43
ENDBRANCH  34  35
ENDBRANCH  30  34
ENDBRANCH  15  30
ENDBRANCH  12  13
ENDBRANCH   6  12
ENDBRANCH   2   3
TORSDOF 10
ENDMDL
MODEL      242
REMARK 921   NORMALIZED FREE ENERGY PREDICTED BY IDOCK:   -1.15 KCAL/MOL
REMARK 922        TOTAL FREE ENERGY PREDICTED BY IDOCK:   -4.70 KCAL/MOL
REMARK 923 INTER-LIGAND FREE ENERGY PREDICTED BY IDOCK:   -5.33 KCAL/MOL
REMARK 924 INTRA-LIGAND FREE ENERGY PREDICTED BY IDOCK:    0.63 KCAL/MOL
REMARK 927      BINDING AFFINITY PREDICTED BY RF-SCORE:    0.00 PKD
ROOT
HETATM    1  C   UNL     1     -11.210  11.886  65.856  1.00  0.00    -0.322 C  
HETATM    2  O   UNL     1     -10.344  11.032  65.106  1.00  0.00    -0.269 OA 
ENDROOT
BRANCH   2   3
HETATM    3  C   UNL     1      -9.376  10.358  65.807  1.00  0.00    -0.186 A  
HETATM    4  C   UNL     1      -9.432  10.128  67.184  1.00  0.00    -0.185 A  
HETATM    5  C   UNL     1      -8.461   9.348  67.820  1.00  0.00    -0.116 A  
HETATM    6  C   UNL     1      -7.386   8.806  67.110  1.00  0.00    -0.080 A  
HETATM    7  C   UNL     1      -7.296   9.088  65.737  1.00  0.00    -0.089 A  
HETATM    8  C   UNL     1      -8.087  10.068  63.622  1.00  0.00    -0.157 C  
HETATM    9  O   UNL     1      -9.226  10.194  62.910  1.00  0.00    -0.255 OA 
HETATM   10  C   UNL     1      -8.285   9.847  65.082  1.00  0.00    -0.144 A  
HETATM   11  O   UNL     1      -6.980  10.065  63.106  1.00  0.00    -0.125 OA 
BRANCH   6  12
HETATM   12  C   UNL     1      -6.358   7.906  67.765  1.00  0.00    -0.052 C  
BRANCH  12  13
HETATM   13  N   UNL     1      -6.513   6.461  67.516  1.00  0.00    -0.047 N  
HETATM   14  O   UNL     1      -6.959   4.330  68.301  1.00  0.00    -0.050 OA 
HETATM   15  C   UNL     1      -6.988   5.553  68.492  1.00  0.00    -0.064 C  
BRANCH  13  16
HETATM   16  C   UNL     1      -5.844   5.900  66.313  1.00  0.00    -0.017 C  
HETATM   17  C   UNL     1      -5.135   4.555  66.557  1.00  0.00    -0.008 C  
BRANCH  16  18
HETATM   18  C   UNL     1      -6.826   5.705  65.176  1.00  0.00    -0.052 A  
HETATM   19  C   UNL     1      -7.523   5.725  63.066  1.00  0.00    -0.065 A  
HETATM   20  C   UNL     1      -8.181   4.751  63.786  1.00  0.00    -0.115 A  
HETATM   21  N   UNL     1      -7.771   4.787  65.099  1.00  0.00    -0.084 NA 
HETATM   22  H   UNL     1      -8.128   4.215  65.865  1.00  0.00     0.000 HD 
HETATM   23  N   UNL     1      -6.690   6.344  63.966  1.00  0.00    -0.037 NA 
BRANCH  20  24
HETATM   24  C   UNL     1      -9.095   3.735  63.279  1.00  0.00    -0.106 A  
HETATM   25  C   UNL     1     -11.394   3.045  62.838  1.00  0.00     0.242 A  
HETATM   26  C   UNL     1     -10.955   1.782  62.453  1.00  0.00    -0.159 A  
HETATM   27  C   UNL     1      -9.590   1.494  62.462  1.00  0.00    -0.088 A  
HETATM   28  C   UNL     1     -10.471   4.012  63.245  1.00  0.00    -0.132 A  
HETATM   29  C   UNL     1      -8.663   2.466  62.867  1.00  0.00    -0.085 A  
ENDBRANCH  20  24
ENDBRANCH  16  18
ENDBRANCH  13  16
BRANCH  15  30
HETATM   30  C   UNL     1      -7.590   6.148  69.820  1.00  0.00    -0.085 C  
HETATM   31  H2  UNL     1      -5.784   7.051  70.383  1.00  0.00     0.000 HD 
HETATM   32  N   UNL     1      -6.496   6.443  70.786  1.00  0.00    -0.047 NA 
HETATM   33  H1  UNL     1      -6.887   6.828  71.646  1.00  0.00     0.000 HD 
BRANCH  30  34
HETATM   34  C   UNL     1      -8.387   7.463  69.673  1.00  0.00    -0.132 C  
BRANCH  34  35
HETATM   35  C   UNL     1      -9.742   7.587  70.345  1.00  0.00    -0.179 A  
HETATM   36  C   UNL     1     -10.858   6.480  68.300  1.00  0.00    -0.359 C  
HETATM   37  C   UNL     1     -11.187   8.327  72.173  1.00  0.00    -0.413 A  
HETATM   38  C   UNL     1      -8.822   8.999  72.319  1.00  0.00     0.306 C  
HETATM   39  C   UNL     1     -10.896   7.095  69.678  1.00  0.00    -0.254 A  
HETATM   40  C   UNL     1      -9.912   8.271  71.575  1.00  0.00    -0.260 A  
HETATM   41  C   UNL     1     -12.302   7.767  71.556  1.00  0.00    -0.345 A  
HETATM   42  C   UNL     1     -12.151   7.172  70.302  1.00  0.00    -0.061 A  
BRANCH  41  43
HETATM   43  C   UNL     1     -13.671   7.804  72.142  1.00  0.00    -0.093 C  
HETATM   44  H2  UNL     1     -13.629   9.854  72.491  1.00  0.00     0.000 HD 
HETATM   45  H1  UNL     1     -15.117   9.023  72.973  1.00  0.00     0.000 HD 
HETATM   46  N   UNL     1     -14.180   8.999  72.571  1.00  0.00    -0.408 N  
HETATM   47  O   UNL     1     -14.351   6.788  72.250  1.00  0.00    -0.151 OA 
ENDBRANCH  41  43
ENDBRANCH  34  35
ENDBRANCH  30  34
ENDBRANCH  15  30
ENDBRANCH  12  13
ENDBRANCH   6  12
ENDBRANCH   2   3
TORSDOF 10
ENDMDL
MODEL      243
REMARK 921   NORMALIZED FREE ENERGY PREDICTED BY IDOCK:   -1.11 KCAL/MOL
REMARK 922        TOTAL FREE ENERGY PREDICTED BY IDOCK:   -4.63 KCAL/MOL
REMARK 923 INTER-LIGAND FREE ENERGY PREDICTED BY IDOCK:   -3.28 KCAL/MOL
REMARK 924 INTRA-LIGAND FREE ENERGY PREDICTED BY IDOCK:   -1.35 KCAL/MOL
REMARK 927      BINDING AFFINITY PREDICTED BY RF-SCORE:    0.00 PKD
ROOT
HETATM    1  C   UNL     1      -8.669  15.449  68.787  1.00  0.00    -0.195 C  
HETATM    2  O   UNL     1      -9.605  14.471  69.241  1.00  0.00    -0.094 OA 
ENDROOT
BRANCH   2   3
HETATM    3  C   UNL     1      -9.286  13.154  69.020  1.00  0.00     0.445 A  
HETATM    4  C   UNL     1      -7.983  12.653  69.063  1.00  0.00     0.301 A  
HETATM    5  C   UNL     1      -7.737  11.283  68.926  1.00  0.00    -0.125 A  
HETATM    6  C   UNL     1      -8.779  10.377  68.706  1.00  0.00    -0.146 A  
HETATM    7  C   UNL     1     -10.083  10.888  68.601  1.00  0.00    -0.200 A  
HETATM    8  C   UNL     1     -11.768  12.683  68.647  1.00  0.00    -0.325 C  
HETATM    9  O   UNL     1     -12.104  13.757  69.389  1.00  0.00    -0.326 OA 
HETATM   10  C   UNL     1     -10.344  12.262  68.767  1.00  0.00    -0.156 A  
HETATM   11  O   UNL     1     -12.579  12.057  67.982  1.00  0.00     0.178 OA 
BRANCH   6  12
HETATM   12  C   UNL     1      -8.544   8.882  68.618  1.00  0.00    -0.133 C  
BRANCH  12  13
HETATM   13  N   UNL     1      -9.615   8.098  67.977  1.00  0.00    -0.153 N  
HETATM   14  O   UNL     1     -11.094   7.787  66.223  1.00  0.00     1.059 OA 
HETATM   15  C   UNL     1     -10.092   8.361  66.670  1.00  0.00    -0.288 C  
BRANCH  13  16
HETATM   16  C   UNL     1     -10.436   7.221  68.852  1.00  0.00    -0.206 C  
HETATM   17  C   UNL     1     -10.438   5.739  68.433  1.00  0.00    -0.283 C  
BRANCH  16  18
HETATM   18  C   UNL     1      -9.976   7.293  70.293  1.00  0.00    -0.187 A  
HETATM   19  C   UNL     1     -10.194   7.214  72.503  1.00  0.00    -0.194 A  
HETATM   20  C   UNL     1      -8.920   6.844  72.127  1.00  0.00    -0.132 A  
HETATM   21  N   UNL     1      -8.791   6.945  70.761  1.00  0.00    -0.149 NA 
HETATM   22  H   UNL     1      -7.945   6.783  70.215  1.00  0.00     0.000 HD 
HETATM   23  N   UNL     1     -10.843   7.528  71.334  1.00  0.00    -0.228 NA 
BRANCH  20  24
HETATM   24  C   UNL     1      -7.862   6.310  72.975  1.00  0.00    -0.103 A  
HETATM   25  C   UNL     1      -6.043   6.742  74.545  1.00  0.00    -0.072 A  
HETATM   26  C   UNL     1      -5.700   5.394  74.539  1.00  0.00    -0.047 A  
HETATM   27  C   UNL     1      -6.443   4.497  73.769  1.00  0.00    -0.052 A  
HETATM   28  C   UNL     1      -7.116   7.194  73.771  1.00  0.00    -0.084 A  
HETATM   29  C   UNL     1      -7.521   4.950  72.995  1.00  0.00    -0.091 A  
ENDBRANCH  20  24
ENDBRANCH  16  18
ENDBRANCH  13  16
BRANCH  15  30
HETATM   30  C   UNL     1      -9.286   9.383  65.784  1.00  0.00    -0.219 C  
HETATM   31  H2  UNL     1      -8.648   7.908  64.438  1.00  0.00     0.000 HD 
HETATM   32  N   UNL     1      -8.249   8.664  64.994  1.00  0.00    -0.149 NA 
HETATM   33  H1  UNL     1      -7.727   9.327  64.421  1.00  0.00     0.000 HD 
BRANCH  30  34
HETATM   34  C   UNL     1     -10.112  10.189  64.757  1.00  0.00    -0.250 C  
BRANCH  34  35
HETATM   35  C   UNL     1     -10.297  11.681  64.962  1.00  0.00    -0.329 A  
HETATM   36  C   UNL     1     -12.682  11.519  63.993  1.00  0.00     0.167 C  
HETATM   37  C   UNL     1      -9.474  13.891  65.606  1.00  0.00     0.049 A  
HETATM   38  C   UNL     1      -7.822  12.064  65.647  1.00  0.00     1.296 C  
HETATM   39  C   UNL     1     -11.534  12.284  64.607  1.00  0.00    -0.392 A  
HETATM   40  C   UNL     1      -9.239  12.517  65.400  1.00  0.00     0.341 A  
HETATM   41  C   UNL     1     -10.714  14.462  65.340  1.00  0.00    -0.359 A  
HETATM   42  C   UNL     1     -11.730  13.656  64.823  1.00  0.00    -0.399 A  
BRANCH  41  43
HETATM   43  C   UNL     1     -11.013  15.909  65.536  1.00  0.00    -0.241 C  
HETATM   44  H2  UNL     1     -10.795  15.827  67.602  1.00  0.00     0.000 HD 
HETATM   45  H1  UNL     1     -11.208  17.415  66.936  1.00  0.00     0.000 HD 
HETATM   46  N   UNL     1     -11.004  16.425  66.802  1.00  0.00    -0.083 N  
HETATM   47  O   UNL     1     -11.267  16.646  64.589  1.00  0.00    -0.727 OA 
ENDBRANCH  41  43
ENDBRANCH  34  35
ENDBRANCH  30  34
ENDBRANCH  15  30
ENDBRANCH  12  13
ENDBRANCH   6  12
ENDBRANCH   2   3
TORSDOF 10
ENDMDL
MODEL      244
REMARK 921   NORMALIZED FREE ENERGY PREDICTED BY IDOCK:   -0.99 KCAL/MOL
REMARK 922        TOTAL FREE ENERGY PREDICTED BY IDOCK:   -4.44 KCAL/MOL
REMARK 923 INTER-LIGAND FREE ENERGY PREDICTED BY IDOCK:   -3.84 KCAL/MOL
REMARK 924 INTRA-LIGAND FREE ENERGY PREDICTED BY IDOCK:   -0.60 KCAL/MOL
REMARK 927      BINDING AFFINITY PREDICTED BY RF-SCORE:    0.00 PKD
ROOT
HETATM    1  C   UNL     1      -9.834  19.066  69.324  1.00  0.00    -0.154 C  
HETATM    2  O   UNL     1      -8.988  18.317  68.450  1.00  0.00    -0.297 OA 
ENDROOT
BRANCH   2   3
HETATM    3  C   UNL     1      -8.479  17.138  68.936  1.00  0.00    -0.187 A  
HETATM    4  C   UNL     1      -9.251  15.998  69.173  1.00  0.00    -0.247 A  
HETATM    5  C   UNL     1      -8.653  14.799  69.575  1.00  0.00     0.101 A  
HETATM    6  C   UNL     1      -7.274  14.711  69.787  1.00  0.00    -0.058 A  
HETATM    7  C   UNL     1      -6.506  15.873  69.609  1.00  0.00    -0.186 A  
HETATM    8  C   UNL     1      -6.176  18.238  69.010  1.00  0.00    -0.234 C  
HETATM    9  O   UNL     1      -6.542  19.117  68.055  1.00  0.00    -0.230 OA 
HETATM   10  C   UNL     1      -7.094  17.077  69.176  1.00  0.00    -0.221 A  
HETATM   11  O   UNL     1      -5.137  18.343  69.643  1.00  0.00    -0.177 OA 
BRANCH   6  12
HETATM   12  C   UNL     1      -6.597  13.408  70.161  1.00  0.00     0.204 C  
BRANCH  12  13
HETATM   13  N   UNL     1      -6.609  12.356  69.128  1.00  0.00    -0.098 N  
HETATM   14  O   UNL     1      -6.256  10.154  68.508  1.00  0.00    -0.045 OA 
HETATM   15  C   UNL     1      -6.394  10.986  69.414  1.00  0.00    -0.083 C  
BRANCH  13  16
HETATM   16  C   UNL     1      -6.521  12.791  67.710  1.00  0.00    -0.136 C  
HETATM   17  C   UNL     1      -5.447  12.051  66.890  1.00  0.00    -0.058 C  
BRANCH  16  18
HETATM   18  C   UNL     1      -7.846  12.619  66.997  1.00  0.00    -0.038 A  
HETATM   19  C   UNL     1      -9.916  11.865  66.709  1.00  0.00    -0.195 A  
HETATM   20  C   UNL     1      -9.751  13.082  66.083  1.00  0.00    -0.251 A  
HETATM   21  N   UNL     1      -8.451  13.508  66.231  1.00  0.00    -0.071 NA 
HETATM   22  H   UNL     1      -8.036  14.349  65.829  1.00  0.00     0.000 HD 
HETATM   23  N   UNL     1      -8.693  11.567  67.257  1.00  0.00    -0.147 NA 
BRANCH  20  24
HETATM   24  C   UNL     1     -10.774  13.899  65.443  1.00  0.00    -0.330 A  
HETATM   25  C   UNL     1     -11.393  16.027  64.420  1.00  0.00    -0.253 A  
HETATM   26  C   UNL     1     -12.717  15.611  64.323  1.00  0.00     0.620 A  
HETATM   27  C   UNL     1     -13.073  14.337  64.767  1.00  0.00     0.363 A  
HETATM   28  C   UNL     1     -10.431  15.177  64.973  1.00  0.00    -0.418 A  
HETATM   29  C   UNL     1     -12.108  13.482  65.319  1.00  0.00    -0.439 A  
ENDBRANCH  20  24
ENDBRANCH  16  18
ENDBRANCH  13  16
BRANCH  15  30
HETATM   30  C   UNL     1      -6.370  10.545  70.926  1.00  0.00     0.130 C  
HETATM   31  H2  UNL     1      -7.926   9.163  70.678  1.00  0.00     0.000 HD 
HETATM   32  N   UNL     1      -7.675   9.933  71.297  1.00  0.00    -0.023 NA 
HETATM   33  H1  UNL     1      -7.659   9.647  72.276  1.00  0.00     0.000 HD 
BRANCH  30  34
HETATM   34  C   UNL     1      -5.293   9.505  71.311  1.00  0.00    -0.059 C  
BRANCH  34  35
HETATM   35  C   UNL     1      -5.725   8.165  71.874  1.00  0.00    -0.037 A  
HETATM   36  C   UNL     1      -5.357   9.052  74.268  1.00  0.00    -0.117 C  
HETATM   37  C   UNL     1      -6.426   5.837  71.614  1.00  0.00    -0.049 A  
HETATM   38  C   UNL     1      -5.828   7.028  69.542  1.00  0.00    -0.023 C  
HETATM   39  C   UNL     1      -5.764   7.983  73.283  1.00  0.00    -0.053 A  
HETATM   40  C   UNL     1      -5.994   7.050  71.041  1.00  0.00    -0.036 A  
HETATM   41  C   UNL     1      -6.546   5.689  72.992  1.00  0.00    -0.072 A  
HETATM   42  C   UNL     1      -6.195   6.759  73.818  1.00  0.00    -0.064 A  
BRANCH  41  43
HETATM   43  C   UNL     1      -6.992   4.428  73.648  1.00  0.00    -0.065 C  
HETATM   44  H2  UNL     1      -8.563   5.336  74.664  1.00  0.00     0.000 HD 
HETATM   45  H1  UNL     1      -8.375   3.597  74.938  1.00  0.00     0.000 HD 
HETATM   46  N   UNL     1      -8.070   4.460  74.489  1.00  0.00    -0.087 N  
HETATM   47  O   UNL     1      -6.414   3.363  73.453  1.00  0.00    -0.026 OA 
ENDBRANCH  41  43
ENDBRANCH  34  35
ENDBRANCH  30  34
ENDBRANCH  15  30
ENDBRANCH  12  13
ENDBRANCH   6  12
ENDBRANCH   2   3
TORSDOF 10
ENDMDL
MODEL      245
REMARK 921   NORMALIZED FREE ENERGY PREDICTED BY IDOCK:   -0.92 KCAL/MOL
REMARK 922        TOTAL FREE ENERGY PREDICTED BY IDOCK:   -4.33 KCAL/MOL
REMARK 923 INTER-LIGAND FREE ENERGY PREDICTED BY IDOCK:   -5.83 KCAL/MOL
REMARK 924 INTRA-LIGAND FREE ENERGY PREDICTED BY IDOCK:    1.50 KCAL/MOL
REMARK 927      BINDING AFFINITY PREDICTED BY RF-SCORE:    0.00 PKD
ROOT
HETATM    1  C   UNL     1      -6.527  18.301  68.559  1.00  0.00    -0.221 C  
HETATM    2  O   UNL     1      -5.832  17.054  68.496  1.00  0.00    -0.136 OA 
ENDROOT
BRANCH   2   3
HETATM    3  C   UNL     1      -6.563  15.953  68.124  1.00  0.00    -0.125 A  
HETATM    4  C   UNL     1      -7.073  15.758  66.838  1.00  0.00    -0.074 A  
HETATM    5  C   UNL     1      -7.723  14.567  66.498  1.00  0.00     1.041 A  
HETATM    6  C   UNL     1      -7.917  13.553  67.440  1.00  0.00    -0.165 A  
HETATM    7  C   UNL     1      -7.460  13.774  68.749  1.00  0.00    -0.098 A  
HETATM    8  C   UNL     1      -6.328  15.072  70.509  1.00  0.00    -0.012 C  
HETATM    9  O   UNL     1      -5.207  15.799  70.689  1.00  0.00    -0.156 OA 
HETATM   10  C   UNL     1      -6.777  14.957  69.093  1.00  0.00    -0.126 A  
HETATM   11  O   UNL     1      -6.896  14.492  71.422  1.00  0.00     0.645 OA 
BRANCH   6  12
HETATM   12  C   UNL     1      -8.563  12.229  67.079  1.00  0.00    -0.191 C  
BRANCH  12  13
HETATM   13  N   UNL     1      -9.813  11.907  67.791  1.00  0.00    -0.180 N  
HETATM   14  O   UNL     1     -11.035  10.482  69.145  1.00  0.00    -0.209 OA 
HETATM   15  C   UNL     1      -9.935  10.817  68.686  1.00  0.00    -0.182 C  
BRANCH  13  16
HETATM   16  C   UNL     1     -11.062  12.548  67.303  1.00  0.00    -0.274 C  
HETATM   17  C   UNL     1     -12.129  12.758  68.393  1.00  0.00    -0.145 C  
BRANCH  16  18
HETATM   18  C   UNL     1     -10.779  13.895  66.669  1.00  0.00    -0.281 A  
HETATM   19  C   UNL     1     -10.997  15.523  65.174  1.00  0.00    -0.409 A  
HETATM   20  C   UNL     1     -10.627  16.036  66.399  1.00  0.00    -0.284 A  
HETATM   21  N   UNL     1     -10.450  15.008  67.297  1.00  0.00    -0.261 NA 
HETATM   22  H   UNL     1     -10.129  15.091  68.262  1.00  0.00     0.000 HD 
HETATM   23  N   UNL     1     -11.058  14.163  65.350  1.00  0.00    -0.309 NA 
BRANCH  20  24
HETATM   24  C   UNL     1     -10.530  17.438  66.784  1.00  0.00    -0.257 A  
HETATM   25  C   UNL     1     -10.004  19.734  66.145  1.00  0.00    -0.573 A  
HETATM   26  C   UNL     1     -10.173  20.153  67.462  1.00  0.00    -0.520 A  
HETATM   27  C   UNL     1     -10.536  19.225  68.439  1.00  0.00    -0.331 A  
HETATM   28  C   UNL     1     -10.183  18.390  65.811  1.00  0.00    -0.111 A  
HETATM   29  C   UNL     1     -10.719  17.876  68.102  1.00  0.00    -0.287 A  
ENDBRANCH  20  24
ENDBRANCH  16  18
ENDBRANCH  13  16
BRANCH  15  30
HETATM   30  C   UNL     1      -8.620  10.061  69.110  1.00  0.00    -0.158 C  
HETATM   31  H2  UNL     1      -9.589   8.210  69.283  1.00  0.00     0.000 HD 
HETATM   32  N   UNL     1      -8.966   8.805  69.830  1.00  0.00    -0.143 NA 
HETATM   33  H1  UNL     1      -8.114   8.316  70.104  1.00  0.00     0.000 HD 
BRANCH  30  34
HETATM   34  C   UNL     1      -7.678   9.642  67.960  1.00  0.00    -0.086 C  
BRANCH  34  35
HETATM   35  C   UNL     1      -7.840   8.270  67.332  1.00  0.00    -0.106 A  
HETATM   36  C   UNL     1      -5.424   7.674  68.012  1.00  0.00    -0.031 C  
HETATM   37  C   UNL     1      -9.112   6.610  66.066  1.00  0.00    -0.104 A  
HETATM   38  C   UNL     1     -10.154   8.830  66.298  1.00  0.00    -0.254 C  
HETATM   39  C   UNL     1      -6.760   7.349  67.388  1.00  0.00    -0.069 A  
HETATM   40  C   UNL     1      -8.998   7.910  66.599  1.00  0.00    -0.179 A  
HETATM   41  C   UNL     1      -8.085   5.681  66.198  1.00  0.00    -0.108 A  
HETATM   42  C   UNL     1      -6.907   6.065  66.841  1.00  0.00    -0.063 A  
BRANCH  41  43
HETATM   43  C   UNL     1      -8.152   4.298  65.648  1.00  0.00    -0.105 C  
HETATM   44  H2  UNL     1      -6.580   4.589  64.319  1.00  0.00     0.000 HD 
HETATM   45  H1  UNL     1      -7.320   2.980  64.293  1.00  0.00     0.000 HD 
HETATM   46  N   UNL     1      -7.273   3.927  64.669  1.00  0.00    -0.065 N  
HETATM   47  O   UNL     1      -8.978   3.485  66.053  1.00  0.00    -0.127 OA 
ENDBRANCH  41  43
ENDBRANCH  34  35
ENDBRANCH  30  34
ENDBRANCH  15  30
ENDBRANCH  12  13
ENDBRANCH   6  12
ENDBRANCH   2   3
TORSDOF 10
ENDMDL
MODEL      246
REMARK 921   NORMALIZED FREE ENERGY PREDICTED BY IDOCK:   -0.92 KCAL/MOL
REMARK 922        TOTAL FREE ENERGY PREDICTED BY IDOCK:   -4.33 KCAL/MOL
REMARK 923 INTER-LIGAND FREE ENERGY PREDICTED BY IDOCK:   -4.77 KCAL/MOL
REMARK 924 INTRA-LIGAND FREE ENERGY PREDICTED BY IDOCK:    0.44 KCAL/MOL
REMARK 927      BINDING AFFINITY PREDICTED BY RF-SCORE:    0.00 PKD
ROOT
HETATM    1  C   UNL     1      -6.950  12.994  69.814  1.00  0.00     0.375 C  
HETATM    2  O   UNL     1      -5.746  12.300  69.482  1.00  0.00    -0.073 OA 
ENDROOT
BRANCH   2   3
HETATM    3  C   UNL     1      -5.768  10.931  69.586  1.00  0.00    -0.046 A  
HETATM    4  C   UNL     1      -5.777  10.245  70.804  1.00  0.00    -0.094 A  
HETATM    5  C   UNL     1      -5.900   8.853  70.840  1.00  0.00    -0.039 A  
HETATM    6  C   UNL     1      -5.981   8.100  69.665  1.00  0.00    -0.029 A  
HETATM    7  C   UNL     1      -5.909   8.784  68.441  1.00  0.00    -0.042 A  
HETATM    8  C   UNL     1      -5.762  10.801  67.036  1.00  0.00    -0.053 C  
HETATM    9  O   UNL     1      -6.297  12.035  66.952  1.00  0.00    -0.147 OA 
HETATM   10  C   UNL     1      -5.816  10.188  68.394  1.00  0.00    -0.041 A  
HETATM   11  O   UNL     1      -5.328  10.199  66.066  1.00  0.00    -0.042 OA 
BRANCH   6  12
HETATM   12  C   UNL     1      -6.178   6.597  69.681  1.00  0.00    -0.041 C  
BRANCH  12  13
HETATM   13  N   UNL     1      -7.541   6.123  69.383  1.00  0.00    -0.095 N  
HETATM   14  O   UNL     1      -9.341   4.758  69.885  1.00  0.00    -0.117 OA 
HETATM   15  C   UNL     1      -8.266   5.259  70.238  1.00  0.00    -0.095 C  
BRANCH  13  16
HETATM   16  C   UNL     1      -8.035   6.298  67.992  1.00  0.00    -0.108 C  
HETATM   17  C   UNL     1      -8.563   5.004  67.344  1.00  0.00    -0.104 C  
BRANCH  16  18
HETATM   18  C   UNL     1      -9.141   7.331  67.925  1.00  0.00    -0.132 A  
HETATM   19  C   UNL     1     -11.238   8.062  67.855  1.00  0.00     0.604 A  
HETATM   20  C   UNL     1     -10.419   8.995  68.453  1.00  0.00    -0.192 A  
HETATM   21  N   UNL     1      -9.118   8.545  68.443  1.00  0.00    -0.139 NA 
HETATM   22  H   UNL     1      -8.296   9.051  68.773  1.00  0.00     0.000 HD 
HETATM   23  N   UNL     1     -10.411   7.026  67.496  1.00  0.00    -0.220 NA 
BRANCH  20  24
HETATM   24  C   UNL     1     -10.814  10.233  69.113  1.00  0.00    -0.270 A  
HETATM   25  C   UNL     1     -11.967  11.319  70.970  1.00  0.00    -0.218 A  
HETATM   26  C   UNL     1     -11.748  12.566  70.393  1.00  0.00    -0.100 A  
HETATM   27  C   UNL     1     -11.050  12.656  69.188  1.00  0.00    -0.252 A  
HETATM   28  C   UNL     1     -11.502  10.164  70.335  1.00  0.00    -0.400 A  
HETATM   29  C   UNL     1     -10.580  11.497  68.553  1.00  0.00    -0.236 A  
ENDBRANCH  20  24
ENDBRANCH  16  18
ENDBRANCH  13  16
BRANCH  15  30
HETATM   30  C   UNL     1      -7.679   4.981  71.673  1.00  0.00    -0.106 C  
HETATM   31  H2  UNL     1      -6.144   6.392  71.456  1.00  0.00     0.000 HD 
HETATM   32  N   UNL     1      -6.257   5.417  71.733  1.00  0.00    -0.036 NA 
HETATM   33  H1  UNL     1      -5.877   5.236  72.662  1.00  0.00     0.000 HD 
BRANCH  30  34
HETATM   34  C   UNL     1      -8.388   5.694  72.846  1.00  0.00    -0.119 C  
BRANCH  34  35
HETATM   35  C   UNL     1      -9.795   6.224  72.648  1.00  0.00    -0.175 A  
HETATM   36  C   UNL     1      -8.841   8.563  72.128  1.00  0.00    -0.286 C  
HETATM   37  C   UNL     1     -12.226   5.963  72.678  1.00  0.00     0.036 A  
HETATM   38  C   UNL     1     -10.917   4.030  73.464  1.00  0.00    -0.354 C  
HETATM   39  C   UNL     1      -9.981   7.586  72.290  1.00  0.00    -0.226 A  
HETATM   40  C   UNL     1     -10.941   5.432  72.910  1.00  0.00    -0.338 A  
HETATM   41  C   UNL     1     -12.401   7.273  72.243  1.00  0.00    -0.149 A  
HETATM   42  C   UNL     1     -11.276   8.082  72.071  1.00  0.00    -0.356 A  
BRANCH  41  43
HETATM   43  C   UNL     1     -13.735   7.883  71.987  1.00  0.00    -0.228 C  
HETATM   44  H2  UNL     1     -13.724   7.424  69.959  1.00  0.00     0.000 HD 
HETATM   45  H1  UNL     1     -15.162   8.275  70.546  1.00  0.00     0.000 HD 
HETATM   46  N   UNL     1     -14.248   7.857  70.720  1.00  0.00     0.228 N  
HETATM   47  O   UNL     1     -14.383   8.410  72.887  1.00  0.00    -0.315 OA 
ENDBRANCH  41  43
ENDBRANCH  34  35
ENDBRANCH  30  34
ENDBRANCH  15  30
ENDBRANCH  12  13
ENDBRANCH   6  12
ENDBRANCH   2   3
TORSDOF 10
ENDMDL
MODEL      247
REMARK 921   NORMALIZED FREE ENERGY PREDICTED BY IDOCK:   -0.90 KCAL/MOL
REMARK 922        TOTAL FREE ENERGY PREDICTED BY IDOCK:   -4.29 KCAL/MOL
REMARK 923 INTER-LIGAND FREE ENERGY PREDICTED BY IDOCK:   -5.20 KCAL/MOL
REMARK 924 INTRA-LIGAND FREE ENERGY PREDICTED BY IDOCK:    0.90 KCAL/MOL
REMARK 927      BINDING AFFINITY PREDICTED BY RF-SCORE:    0.00 PKD
ROOT
HETATM    1  C   UNL     1     -11.387  12.862  63.308  1.00  0.00    -0.093 C  
HETATM    2  O   UNL     1     -11.997  12.112  64.360  1.00  0.00    -0.377 OA 
ENDROOT
BRANCH   2   3
HETATM    3  C   UNL     1     -11.212  11.811  65.445  1.00  0.00    -0.251 A  
HETATM    4  C   UNL     1     -10.334  10.725  65.492  1.00  0.00    -0.308 A  
HETATM    5  C   UNL     1      -9.490  10.534  66.591  1.00  0.00    -0.199 A  
HETATM    6  C   UNL     1      -9.523  11.396  67.690  1.00  0.00    -0.165 A  
HETATM    7  C   UNL     1     -10.448  12.452  67.670  1.00  0.00    -0.229 A  
HETATM    8  C   UNL     1     -12.213  13.831  66.646  1.00  0.00    -0.409 C  
HETATM    9  O   UNL     1     -12.506  14.412  65.465  1.00  0.00    -0.408 OA 
HETATM   10  C   UNL     1     -11.281  12.671  66.555  1.00  0.00    -0.342 A  
HETATM   11  O   UNL     1     -12.619  14.259  67.715  1.00  0.00     0.054 OA 
BRANCH   6  12
HETATM   12  C   UNL     1      -8.574  11.245  68.863  1.00  0.00    -0.051 C  
BRANCH  12  13
HETATM   13  N   UNL     1      -7.143  11.148  68.525  1.00  0.00    -0.074 N  
HETATM   14  O   UNL     1      -5.170  12.159  67.858  1.00  0.00    -0.052 OA 
HETATM   15  C   UNL     1      -6.323  12.279  68.290  1.00  0.00    -0.055 C  
BRANCH  13  16
HETATM   16  C   UNL     1      -6.630   9.819  68.101  1.00  0.00    -0.060 C  
HETATM   17  C   UNL     1      -5.133   9.809  67.737  1.00  0.00    -0.036 C  
BRANCH  16  18
HETATM   18  C   UNL     1      -6.851   8.774  69.175  1.00  0.00    -0.055 A  
HETATM   19  C   UNL     1      -8.016   7.597  70.656  1.00  0.00    -0.099 A  
HETATM   20  C   UNL     1      -6.959   6.857  70.171  1.00  0.00    -0.066 A  
HETATM   21  N   UNL     1      -6.222   7.619  69.293  1.00  0.00    -0.034 NA 
HETATM   22  H   UNL     1      -5.359   7.345  68.824  1.00  0.00     0.000 HD 
HETATM   23  N   UNL     1      -7.917   8.821  70.041  1.00  0.00    -0.101 NA 
BRANCH  20  24
HETATM   24  C   UNL     1      -6.670   5.450  70.418  1.00  0.00    -0.043 A  
HETATM   25  C   UNL     1      -5.138   3.770  71.306  1.00  0.00     0.000 A  
HETATM   26  C   UNL     1      -5.951   2.752  70.817  1.00  0.00    -0.018 A  
HETATM   27  C   UNL     1      -7.130   3.074  70.144  1.00  0.00    -0.034 A  
HETATM   28  C   UNL     1      -5.497   5.106  71.109  1.00  0.00    -0.005 A  
HETATM   29  C   UNL     1      -7.492   4.415  69.950  1.00  0.00    -0.050 A  
ENDBRANCH  20  24
ENDBRANCH  16  18
ENDBRANCH  13  16
BRANCH  15  30
HETATM   30  C   UNL     1      -6.913  13.699  68.630  1.00  0.00    -0.103 C  
HETATM   31  H2  UNL     1      -5.021  14.569  68.865  1.00  0.00     0.000 HD 
HETATM   32  N   UNL     1      -5.904  14.505  69.370  1.00  0.00    -0.094 NA 
HETATM   33  H1  UNL     1      -6.287  15.424  69.590  1.00  0.00     0.000 HD 
BRANCH  30  34
HETATM   34  C   UNL     1      -7.338  14.563  67.422  1.00  0.00    -0.183 C  
BRANCH  34  35
HETATM   35  C   UNL     1      -8.064  15.873  67.666  1.00  0.00    -0.160 A  
HETATM   36  C   UNL     1      -6.724  16.972  65.756  1.00  0.00     0.608 C  
HETATM   37  C   UNL     1      -9.634  17.272  68.913  1.00  0.00    -0.229 A  
HETATM   38  C   UNL     1      -9.247  15.011  69.810  1.00  0.00     0.089 C  
HETATM   39  C   UNL     1      -7.766  16.996  66.848  1.00  0.00    -0.251 A  
HETATM   40  C   UNL     1      -8.959  16.045  68.752  1.00  0.00    -0.226 A  
HETATM   41  C   UNL     1      -9.403  18.344  68.056  1.00  0.00    -0.304 A  
HETATM   42  C   UNL     1      -8.455  18.203  67.041  1.00  0.00    -0.254 A  
BRANCH  41  43
HETATM   43  C   UNL     1     -10.085  19.662  68.186  1.00  0.00    -0.441 C  
HETATM   44  H2  UNL     1      -9.155  20.134  69.985  1.00  0.00     0.000 HD 
HETATM   45  H1  UNL     1     -10.282  21.350  69.361  1.00  0.00     0.000 HD 
HETATM   46  N   UNL     1      -9.815  20.447  69.273  1.00  0.00     0.213 N  
HETATM   47  O   UNL     1     -10.882  20.059  67.342  1.00  0.00    -0.304 OA 
ENDBRANCH  41  43
ENDBRANCH  34  35
ENDBRANCH  30  34
ENDBRANCH  15  30
ENDBRANCH  12  13
ENDBRANCH   6  12
ENDBRANCH   2   3
TORSDOF 10
ENDMDL
MODEL      248
REMARK 921   NORMALIZED FREE ENERGY PREDICTED BY IDOCK:   -0.83 KCAL/MOL
REMARK 922        TOTAL FREE ENERGY PREDICTED BY IDOCK:   -4.19 KCAL/MOL
REMARK 923 INTER-LIGAND FREE ENERGY PREDICTED BY IDOCK:   -4.18 KCAL/MOL
REMARK 924 INTRA-LIGAND FREE ENERGY PREDICTED BY IDOCK:   -0.01 KCAL/MOL
REMARK 927      BINDING AFFINITY PREDICTED BY RF-SCORE:    0.00 PKD
ROOT
HETATM    1  C   UNL     1     -10.432   5.384  69.725  1.00  0.00    -0.307 C  
HETATM    2  O   UNL     1     -11.614   6.091  69.343  1.00  0.00    -0.275 OA 
ENDROOT
BRANCH   2   3
HETATM    3  C   UNL     1     -11.458   7.397  68.953  1.00  0.00     0.567 A  
HETATM    4  C   UNL     1     -11.055   7.783  67.672  1.00  0.00     0.167 A  
HETATM    5  C   UNL     1     -11.012   9.133  67.310  1.00  0.00     0.040 A  
HETATM    6  C   UNL     1     -11.334  10.140  68.225  1.00  0.00    -0.183 A  
HETATM    7  C   UNL     1     -11.679   9.756  69.530  1.00  0.00     0.106 A  
HETATM    8  C   UNL     1     -12.145   8.114  71.305  1.00  0.00    -0.288 C  
HETATM    9  O   UNL     1     -12.813   6.956  71.485  1.00  0.00    -0.374 OA 
HETATM   10  C   UNL     1     -11.755   8.397  69.896  1.00  0.00     0.422 A  
HETATM   11  O   UNL     1     -11.935   8.905  72.212  1.00  0.00    -0.355 OA 
BRANCH   6  12
HETATM   12  C   UNL     1     -11.356  11.605  67.838  1.00  0.00    -0.299 C  
BRANCH  12  13
HETATM   13  N   UNL     1     -10.066  12.313  67.921  1.00  0.00    -0.194 N  
HETATM   14  O   UNL     1      -8.875  14.283  68.163  1.00  0.00    -0.169 OA 
HETATM   15  C   UNL     1      -9.955  13.685  68.254  1.00  0.00    -0.236 C  
BRANCH  13  16
HETATM   16  C   UNL     1      -8.881  11.646  67.321  1.00  0.00    -0.164 C  
HETATM   17  C   UNL     1      -8.714  11.898  65.812  1.00  0.00     0.210 C  
BRANCH  16  18
HETATM   18  C   UNL     1      -7.600  12.078  68.006  1.00  0.00    -0.120 A  
HETATM   19  C   UNL     1      -5.634  13.098  68.182  1.00  0.00    -0.097 A  
HETATM   20  C   UNL     1      -6.249  13.012  69.414  1.00  0.00    -0.113 A  
HETATM   21  N   UNL     1      -7.441  12.335  69.291  1.00  0.00    -0.328 NA 
HETATM   22  H   UNL     1      -8.078  12.081  70.046  1.00  0.00     0.000 HD 
HETATM   23  N   UNL     1      -6.486  12.474  67.304  1.00  0.00    -0.151 NA 
BRANCH  20  24
HETATM   24  C   UNL     1      -5.817  13.616  70.667  1.00  0.00    -0.179 A  
HETATM   25  C   UNL     1      -5.309  13.339  73.039  1.00  0.00     0.182 A  
HETATM   26  C   UNL     1      -5.127  14.712  73.173  1.00  0.00    -0.233 A  
HETATM   27  C   UNL     1      -5.272  15.539  72.059  1.00  0.00     0.091 A  
HETATM   28  C   UNL     1      -5.649  12.797  71.796  1.00  0.00     0.324 A  
HETATM   29  C   UNL     1      -5.609  14.995  70.811  1.00  0.00    -0.120 A  
ENDBRANCH  20  24
ENDBRANCH  16  18
ENDBRANCH  13  16
BRANCH  15  30
HETATM   30  C   UNL     1     -11.244  14.422  68.779  1.00  0.00    -0.260 C  
HETATM   31  H2  UNL     1     -10.213  15.393  70.324  1.00  0.00     0.000 HD 
HETATM   32  N   UNL     1     -11.054  14.830  70.197  1.00  0.00    -0.400 NA 
HETATM   33  H1  UNL     1     -11.889  15.307  70.537  1.00  0.00     0.000 HD 
BRANCH  30  34
HETATM   34  C   UNL     1     -11.645  15.707  68.021  1.00  0.00    -0.245 C  
BRANCH  34  35
HETATM   35  C   UNL     1     -10.560  16.600  67.450  1.00  0.00    -0.295 A  
HETATM   36  C   UNL     1     -10.614  18.037  69.592  1.00  0.00     0.742 C  
HETATM   37  C   UNL     1      -9.047  17.284  65.655  1.00  0.00     0.414 A  
HETATM   38  C   UNL     1     -10.615  15.461  65.118  1.00  0.00    -0.458 C  
HETATM   39  C   UNL     1     -10.075  17.688  68.225  1.00  0.00    -0.362 A  
HETATM   40  C   UNL     1     -10.081  16.449  66.124  1.00  0.00    -0.364 A  
HETATM   41  C   UNL     1      -8.515  18.295  66.450  1.00  0.00    -0.266 A  
HETATM   42  C   UNL     1      -9.048  18.502  67.723  1.00  0.00    -0.292 A  
BRANCH  41  43
HETATM   43  C   UNL     1      -7.426  19.207  66.000  1.00  0.00    -0.265 C  
HETATM   44  H2  UNL     1      -8.728  20.571  65.122  1.00  0.00     0.000 HD 
HETATM   45  H1  UNL     1      -7.006  20.972  65.012  1.00  0.00     0.000 HD 
HETATM   46  N   UNL     1      -7.752  20.347  65.319  1.00  0.00     0.118 N  
HETATM   47  O   UNL     1      -6.246  18.958  66.225  1.00  0.00    -0.174 OA 
ENDBRANCH  41  43
ENDBRANCH  34  35
ENDBRANCH  30  34
ENDBRANCH  15  30
ENDBRANCH  12  13
ENDBRANCH   6  12
ENDBRANCH   2   3
TORSDOF 10
ENDMDL
MODEL      249
REMARK 921   NORMALIZED FREE ENERGY PREDICTED BY IDOCK:   -0.65 KCAL/MOL
REMARK 922        TOTAL FREE ENERGY PREDICTED BY IDOCK:   -3.90 KCAL/MOL
REMARK 923 INTER-LIGAND FREE ENERGY PREDICTED BY IDOCK:   -4.88 KCAL/MOL
REMARK 924 INTRA-LIGAND FREE ENERGY PREDICTED BY IDOCK:    0.98 KCAL/MOL
REMARK 927      BINDING AFFINITY PREDICTED BY RF-SCORE:    0.00 PKD
ROOT
HETATM    1  C   UNL     1     -11.573   4.102  65.248  1.00  0.00     1.847 C  
HETATM    2  O   UNL     1     -10.150   4.225  65.193  1.00  0.00    -0.203 OA 
ENDROOT
BRANCH   2   3
HETATM    3  C   UNL     1      -9.622   5.463  65.466  1.00  0.00     0.063 A  
HETATM    4  C   UNL     1     -10.389   6.570  65.838  1.00  0.00     0.783 A  
HETATM    5  C   UNL     1      -9.779   7.775  66.199  1.00  0.00    -0.057 A  
HETATM    6  C   UNL     1      -8.390   7.924  66.163  1.00  0.00    -0.127 A  
HETATM    7  C   UNL     1      -7.622   6.832  65.730  1.00  0.00    -0.088 A  
HETATM    8  C   UNL     1      -7.306   4.514  64.961  1.00  0.00    -0.072 C  
HETATM    9  O   UNL     1      -7.731   3.268  65.253  1.00  0.00    -0.079 OA 
HETATM   10  C   UNL     1      -8.225   5.604  65.394  1.00  0.00    -0.132 A  
HETATM   11  O   UNL     1      -6.222   4.741  64.446  1.00  0.00    -0.028 OA 
BRANCH   6  12
HETATM   12  C   UNL     1      -7.704   9.200  66.609  1.00  0.00    -0.097 C  
BRANCH  12  13
HETATM   13  N   UNL     1      -7.547   9.373  68.065  1.00  0.00    -0.083 N  
HETATM   14  O   UNL     1      -7.888  10.626  69.981  1.00  0.00     0.013 OA 
HETATM   15  C   UNL     1      -8.164  10.420  68.792  1.00  0.00    -0.128 C  
BRANCH  13  16
HETATM   16  C   UNL     1      -6.452   8.618  68.728  1.00  0.00    -0.053 C  
HETATM   17  C   UNL     1      -5.139   9.410  68.871  1.00  0.00    -0.037 C  
BRANCH  16  18
HETATM   18  C   UNL     1      -6.862   8.152  70.110  1.00  0.00    -0.040 A  
HETATM   19  C   UNL     1      -7.236   8.343  72.292  1.00  0.00    -0.092 A  
HETATM   20  C   UNL     1      -8.069   7.394  71.738  1.00  0.00    -0.102 A  
HETATM   21  N   UNL     1      -7.789   7.257  70.397  1.00  0.00    -0.098 NA 
HETATM   22  H   UNL     1      -8.215   6.592  69.751  1.00  0.00     0.000 HD 
HETATM   23  N   UNL     1      -6.454   8.792  71.256  1.00  0.00    -0.065 NA 
BRANCH  20  24
HETATM   24  C   UNL     1      -9.169   6.691  72.383  1.00  0.00    -0.140 A  
HETATM   25  C   UNL     1      -9.935   5.266  74.211  1.00  0.00    -0.234 A  
HETATM   26  C   UNL     1     -11.197   5.180  73.633  1.00  0.00    -0.198 A  
HETATM   27  C   UNL     1     -11.458   5.859  72.442  1.00  0.00    -0.358 A  
HETATM   28  C   UNL     1      -8.932   6.016  73.592  1.00  0.00    -0.127 A  
HETATM   29  C   UNL     1     -10.452   6.615  71.822  1.00  0.00    -0.233 A  
ENDBRANCH  20  24
ENDBRANCH  16  18
ENDBRANCH  13  16
BRANCH  15  30
HETATM   30  C   UNL     1      -9.242  11.296  68.050  1.00  0.00    -0.160 C  
HETATM   31  H2  UNL     1      -9.114  10.181  66.280  1.00  0.00     0.000 HD 
HETATM   32  N   UNL     1      -9.084  11.156  66.577  1.00  0.00    -0.176 NA 
HETATM   33  H1  UNL     1      -9.782  11.724  66.097  1.00  0.00     0.000 HD 
BRANCH  30  34
HETATM   34  C   UNL     1     -10.718  10.951  68.350  1.00  0.00    -0.240 C  
BRANCH  34  35
HETATM   35  C   UNL     1     -11.498  11.816  69.323  1.00  0.00    -0.369 A  
HETATM   36  C   UNL     1     -10.790  13.924  68.017  1.00  0.00    -0.259 C  
HETATM   37  C   UNL     1     -12.855  12.119  71.333  1.00  0.00    -0.378 A  
HETATM   38  C   UNL     1     -12.021   9.838  70.921  1.00  0.00    -0.413 C  
HETATM   39  C   UNL     1     -11.531  13.223  69.130  1.00  0.00    -0.357 A  
HETATM   40  C   UNL     1     -12.113  11.277  70.481  1.00  0.00    -0.481 A  
HETATM   41  C   UNL     1     -12.956  13.486  71.093  1.00  0.00    -0.338 A  
HETATM   42  C   UNL     1     -12.276  14.031  70.003  1.00  0.00    -0.414 A  
BRANCH  41  43
HETATM   43  C   UNL     1     -13.722  14.419  71.965  1.00  0.00    -0.442 C  
HETATM   44  H2  UNL     1     -13.195  16.109  70.875  1.00  0.00     0.000 HD 
HETATM   45  H1  UNL     1     -14.241  16.395  72.275  1.00  0.00     0.000 HD 
HETATM   46  N   UNL     1     -13.717  15.756  71.677  1.00  0.00    -0.339 N  
HETATM   47  O   UNL     1     -14.356  14.017  72.936  1.00  0.00    -0.354 OA 
ENDBRANCH  41  43
ENDBRANCH  34  35
ENDBRANCH  30  34
ENDBRANCH  15  30
ENDBRANCH  12  13
ENDBRANCH   6  12
ENDBRANCH   2   3
TORSDOF 10
ENDMDL
MODEL      250
REMARK 921   NORMALIZED FREE ENERGY PREDICTED BY IDOCK:   -0.20 KCAL/MOL
REMARK 922        TOTAL FREE ENERGY PREDICTED BY IDOCK:   -3.19 KCAL/MOL
REMARK 923 INTER-LIGAND FREE ENERGY PREDICTED BY IDOCK:   -4.61 KCAL/MOL
REMARK 924 INTRA-LIGAND FREE ENERGY PREDICTED BY IDOCK:    1.42 KCAL/MOL
REMARK 927      BINDING AFFINITY PREDICTED BY RF-SCORE:    0.00 PKD
ROOT
HETATM    1  C   UNL     1      -6.789  20.154  65.125  1.00  0.00    -0.274 C  
HETATM    2  O   UNL     1      -7.769  19.311  65.733  1.00  0.00    -0.427 OA 
ENDROOT
BRANCH   2   3
HETATM    3  C   UNL     1      -7.365  18.050  66.097  1.00  0.00    -0.282 A  
HETATM    4  C   UNL     1      -6.067  17.738  66.507  1.00  0.00    -0.222 A  
HETATM    5  C   UNL     1      -5.747  16.454  66.960  1.00  0.00    -0.068 A  
HETATM    6  C   UNL     1      -6.703  15.435  66.983  1.00  0.00     0.216 A  
HETATM    7  C   UNL     1      -7.992  15.731  66.513  1.00  0.00    -0.172 A  
HETATM    8  C   UNL     1      -9.734  17.225  65.619  1.00  0.00     0.160 C  
HETATM    9  O   UNL     1     -10.228  18.463  65.821  1.00  0.00    -0.571 OA 
HETATM   10  C   UNL     1      -8.332  17.029  66.084  1.00  0.00    -0.276 A  
HETATM   11  O   UNL     1     -10.402  16.312  65.158  1.00  0.00    -0.587 OA 
BRANCH   6  12
HETATM   12  C   UNL     1      -6.397  14.054  67.529  1.00  0.00    -0.016 C  
BRANCH  12  13
HETATM   13  N   UNL     1      -7.122  13.670  68.753  1.00  0.00    -0.101 N  
HETATM   14  O   UNL     1      -8.743  12.394  69.804  1.00  0.00     1.719 OA 
HETATM   15  C   UNL     1      -8.038  12.591  68.805  1.00  0.00     0.087 C  
BRANCH  13  16
HETATM   16  C   UNL     1      -7.134  14.646  69.874  1.00  0.00    -0.056 C  
HETATM   17  C   UNL     1      -6.055  15.739  69.769  1.00  0.00    -0.165 C  
BRANCH  16  18
HETATM   18  C   UNL     1      -8.479  15.334  69.991  1.00  0.00     0.367 A  
HETATM   19  C   UNL     1     -10.301  16.373  69.256  1.00  0.00    -0.292 A  
HETATM   20  C   UNL     1     -10.575  15.670  70.410  1.00  0.00    -0.268 A  
HETATM   21  N   UNL     1      -9.424  15.074  70.875  1.00  0.00     0.830 NA 
HETATM   22  H   UNL     1      -9.322  14.536  71.735  1.00  0.00     0.000 HD 
HETATM   23  N   UNL     1      -8.962  16.178  69.019  1.00  0.00    -0.239 NA 
BRANCH  20  24
HETATM   24  C   UNL     1     -11.874  15.455  71.034  1.00  0.00    -0.406 A  
HETATM   25  C   UNL     1     -13.325  15.771  72.971  1.00  0.00    -0.679 A  
HETATM   26  C   UNL     1     -14.302  14.973  72.385  1.00  0.00    -0.430 A  
HETATM   27  C   UNL     1     -14.081  14.428  71.120  1.00  0.00    -0.155 A  
HETATM   28  C   UNL     1     -12.123  16.011  72.299  1.00  0.00    -0.617 A  
HETATM   29  C   UNL     1     -12.876  14.671  70.445  1.00  0.00    -0.321 A  
ENDBRANCH  20  24
ENDBRANCH  16  18
ENDBRANCH  13  16
BRANCH  15  30
HETATM   30  C   UNL     1      -8.108  11.624  67.565  1.00  0.00    -0.144 C  
HETATM   31  H2  UNL     1      -6.471  10.481  68.203  1.00  0.00     0.000 HD 
HETATM   32  N   UNL     1      -6.790  10.961  67.362  1.00  0.00    -0.076 NA 
HETATM   33  H1  UNL     1      -6.836  10.335  66.558  1.00  0.00     0.000 HD 
BRANCH  30  34
HETATM   34  C   UNL     1      -9.145  10.482  67.653  1.00  0.00    -0.146 C  
BRANCH  34  35
HETATM   35  C   UNL     1      -8.681   9.047  67.493  1.00  0.00    -0.121 A  
HETATM   36  C   UNL     1      -7.684   9.103  69.871  1.00  0.00    -0.087 C  
HETATM   37  C   UNL     1      -8.392   7.004  66.181  1.00  0.00    -0.130 A  
HETATM   38  C   UNL     1      -9.337   8.938  64.983  1.00  0.00     0.071 C  
HETATM   39  C   UNL     1      -8.007   8.410  68.568  1.00  0.00    -0.121 A  
HETATM   40  C   UNL     1      -8.807   8.348  66.266  1.00  0.00    -0.190 A  
HETATM   41  C   UNL     1      -7.809   6.356  67.265  1.00  0.00    -0.105 A  
HETATM   42  C   UNL     1      -7.603   7.071  68.446  1.00  0.00    -0.111 A  
BRANCH  41  43
HETATM   43  C   UNL     1      -7.348   4.940  67.226  1.00  0.00    -0.082 C  
HETATM   44  H2  UNL     1      -8.680   4.309  68.694  1.00  0.00     0.000 HD 
HETATM   45  H1  UNL     1      -7.619   3.056  68.030  1.00  0.00     0.000 HD 
HETATM   46  N   UNL     1      -7.935   4.025  68.057  1.00  0.00    -0.084 N  
HETATM   47  O   UNL     1      -6.454   4.576  66.469  1.00  0.00    -0.039 OA 
ENDBRANCH  41  43
ENDBRANCH  34  35
ENDBRANCH  30  34
ENDBRANCH  15  30
ENDBRANCH  12  13
ENDBRANCH   6  12
ENDBRANCH   2   3
TORSDOF 10
ENDMDL
MODEL      251
REMARK 921   NORMALIZED FREE ENERGY PREDICTED BY IDOCK:   -0.15 KCAL/MOL
REMARK 922        TOTAL FREE ENERGY PREDICTED BY IDOCK:   -3.11 KCAL/MOL
REMARK 923 INTER-LIGAND FREE ENERGY PREDICTED BY IDOCK:   -7.24 KCAL/MOL
REMARK 924 INTRA-LIGAND FREE ENERGY PREDICTED BY IDOCK:    4.13 KCAL/MOL
REMARK 927      BINDING AFFINITY PREDICTED BY RF-SCORE:    0.00 PKD
ROOT
HETATM    1  C   UNL     1      -9.820   5.701  69.487  1.00  0.00    -0.180 C  
HETATM    2  O   UNL     1     -11.049   6.362  69.183  1.00  0.00    -0.322 OA 
ENDROOT
BRANCH   2   3
HETATM    3  C   UNL     1     -10.987   7.713  68.946  1.00  0.00     0.089 A  
HETATM    4  C   UNL     1     -10.837   8.272  67.674  1.00  0.00    -0.083 A  
HETATM    5  C   UNL     1     -10.881   9.658  67.491  1.00  0.00    -0.265 A  
HETATM    6  C   UNL     1     -11.038  10.528  68.574  1.00  0.00    -0.329 A  
HETATM    7  C   UNL     1     -11.126   9.969  69.859  1.00  0.00    -0.336 A  
HETATM    8  C   UNL     1     -11.228   8.100  71.458  1.00  0.00    -0.259 C  
HETATM    9  O   UNL     1     -11.835   6.905  71.604  1.00  0.00    -0.287 OA 
HETATM   10  C   UNL     1     -11.114   8.574  70.050  1.00  0.00    -0.152 A  
HETATM   11  O   UNL     1     -10.861   8.777  72.406  1.00  0.00    -0.320 OA 
BRANCH   6  12
HETATM   12  C   UNL     1     -11.152  12.029  68.393  1.00  0.00    -0.245 C  
BRANCH  12  13
HETATM   13  N   UNL     1      -9.896  12.790  68.514  1.00  0.00    -0.187 N  
HETATM   14  O   UNL     1      -8.794  14.810  68.768  1.00  0.00    -0.175 OA 
HETATM   15  C   UNL     1      -9.852  14.170  68.827  1.00  0.00    -0.167 C  
BRANCH  13  16
HETATM   16  C   UNL     1      -8.662  12.162  67.973  1.00  0.00    -0.180 C  
HETATM   17  C   UNL     1      -8.738  11.815  66.474  1.00  0.00    -0.173 C  
BRANCH  16  18
HETATM   18  C   UNL     1      -7.454  13.052  68.180  1.00  0.00    -0.130 A  
HETATM   19  C   UNL     1      -5.692  14.260  67.570  1.00  0.00     0.164 A  
HETATM   20  C   UNL     1      -6.239  14.753  68.735  1.00  0.00    -0.083 A  
HETATM   21  N   UNL     1      -7.298  13.964  69.121  1.00  0.00    -0.269 NA 
HETATM   22  H   UNL     1      -7.855  14.064  69.970  1.00  0.00     0.000 HD 
HETATM   23  N   UNL     1      -6.451  13.163  67.246  1.00  0.00    -0.241 NA 
BRANCH  20  24
HETATM   24  C   UNL     1      -5.877  15.976  69.440  1.00  0.00    -0.131 A  
HETATM   25  C   UNL     1      -5.239  17.054  71.536  1.00  0.00     0.179 A  
HETATM   26  C   UNL     1      -5.303  18.304  70.928  1.00  0.00    -0.244 A  
HETATM   27  C   UNL     1      -5.636  18.396  69.575  1.00  0.00    -0.222 A  
HETATM   28  C   UNL     1      -5.522  15.902  70.797  1.00  0.00    -0.073 A  
HETATM   29  C   UNL     1      -5.916  17.240  68.833  1.00  0.00    -0.176 A  
ENDBRANCH  20  24
ENDBRANCH  16  18
ENDBRANCH  13  16
BRANCH  15  30
HETATM   30  C   UNL     1     -11.189  14.862  69.288  1.00  0.00    -0.284 C  
HETATM   31  H2  UNL     1     -10.241  15.983  70.785  1.00  0.00     0.000 HD 
HETATM   32  N   UNL     1     -11.046  15.366  70.682  1.00  0.00    -0.324 NA 
HETATM   33  H1  UNL     1     -11.912  15.814  70.980  1.00  0.00     0.000 HD 
BRANCH  30  34
HETATM   34  C   UNL     1     -11.650  16.075  68.448  1.00  0.00    -0.279 C  
BRANCH  34  35
HETATM   35  C   UNL     1     -10.607  16.991  67.837  1.00  0.00    -0.365 A  
HETATM   36  C   UNL     1     -10.663  15.604  65.663  1.00  0.00    -0.376 C  
HETATM   37  C   UNL     1      -9.038  18.862  67.957  1.00  0.00    -0.340 A  
HETATM   38  C   UNL     1     -10.197  18.281  70.052  1.00  0.00     1.053 C  
HETATM   39  C   UNL     1     -10.169  16.756  66.506  1.00  0.00    -0.319 A  
HETATM   40  C   UNL     1      -9.975  18.017  68.584  1.00  0.00    -0.396 A  
HETATM   41  C   UNL     1      -8.676  18.682  66.626  1.00  0.00    -0.307 A  
HETATM   42  C   UNL     1      -9.231  17.616  65.915  1.00  0.00     0.073 A  
BRANCH  41  43
HETATM   43  C   UNL     1      -7.687  19.543  65.919  1.00  0.00    -0.275 C  
HETATM   44  H2  UNL     1      -8.103  21.224  67.071  1.00  0.00     0.000 HD 
HETATM   45  H1  UNL     1      -6.864  21.436  65.822  1.00  0.00     0.000 HD 
HETATM   46  N   UNL     1      -7.541  20.846  66.307  1.00  0.00     0.143 N  
HETATM   47  O   UNL     1      -7.002  19.111  64.997  1.00  0.00    -0.443 OA 
ENDBRANCH  41  43
ENDBRANCH  34  35
ENDBRANCH  30  34
ENDBRANCH  15  30
ENDBRANCH  12  13
ENDBRANCH   6  12
ENDBRANCH   2   3
TORSDOF 10
ENDMDL
MODEL      252
REMARK 921   NORMALIZED FREE ENERGY PREDICTED BY IDOCK:    0.28 KCAL/MOL
REMARK 922        TOTAL FREE ENERGY PREDICTED BY IDOCK:   -2.43 KCAL/MOL
REMARK 923 INTER-LIGAND FREE ENERGY PREDICTED BY IDOCK:   -0.62 KCAL/MOL
REMARK 924 INTRA-LIGAND FREE ENERGY PREDICTED BY IDOCK:   -1.81 KCAL/MOL
REMARK 927      BINDING AFFINITY PREDICTED BY RF-SCORE:    0.00 PKD
ROOT
HETATM    1  C   UNL     1      -6.247  11.055  65.403  1.00  0.00     0.188 C  
HETATM    2  O   UNL     1      -6.888   9.815  65.705  1.00  0.00    -0.087 OA 
ENDROOT
BRANCH   2   3
HETATM    3  C   UNL     1      -8.111   9.881  66.324  1.00  0.00    -0.114 A  
HETATM    4  C   UNL     1      -9.204  10.584  65.812  1.00  0.00    -0.215 A  
HETATM    5  C   UNL     1     -10.451  10.529  66.442  1.00  0.00    -0.258 A  
HETATM    6  C   UNL     1     -10.636   9.802  67.621  1.00  0.00    -0.333 A  
HETATM    7  C   UNL     1      -9.523   9.145  68.170  1.00  0.00    -0.155 A  
HETATM    8  C   UNL     1      -7.168   8.425  68.198  1.00  0.00    -0.091 C  
HETATM    9  O   UNL     1      -6.240   7.916  67.363  1.00  0.00    -0.051 OA 
HETATM   10  C   UNL     1      -8.270   9.170  67.527  1.00  0.00    -0.108 A  
HETATM   11  O   UNL     1      -7.151   8.233  69.404  1.00  0.00    -0.053 OA 
BRANCH   6  12
HETATM   12  C   UNL     1     -11.992   9.676  68.287  1.00  0.00     1.924 C  
BRANCH  12  13
HETATM   13  N   UNL     1     -12.034   9.987  69.727  1.00  0.00    -0.040 N  
HETATM   14  O   UNL     1     -11.417  11.338  71.503  1.00  0.00     0.972 OA 
HETATM   15  C   UNL     1     -11.505  11.179  70.278  1.00  0.00    -0.237 C  
BRANCH  13  16
HETATM   16  C   UNL     1     -12.347   8.871  70.658  1.00  0.00     0.116 C  
HETATM   17  C   UNL     1     -13.609   8.073  70.283  1.00  0.00     1.788 C  
BRANCH  16  18
HETATM   18  C   UNL     1     -11.194   7.894  70.754  1.00  0.00    -0.266 A  
HETATM   19  C   UNL     1      -9.639   6.678  71.776  1.00  0.00    -0.158 A  
HETATM   20  C   UNL     1     -10.046   6.065  70.610  1.00  0.00    -0.194 A  
HETATM   21  N   UNL     1     -10.972   6.856  69.968  1.00  0.00    -0.264 NA 
HETATM   22  H   UNL     1     -11.404   6.675  69.062  1.00  0.00     0.000 HD 
HETATM   23  N   UNL     1     -10.350   7.851  71.839  1.00  0.00    -0.205 NA 
BRANCH  20  24
HETATM   24  C   UNL     1      -9.680   4.740  70.127  1.00  0.00    -0.288 A  
HETATM   25  C   UNL     1      -9.401   2.362  70.600  1.00  0.00    -0.209 A  
HETATM   26  C   UNL     1      -8.860   2.160  69.334  1.00  0.00    -0.140 A  
HETATM   27  C   UNL     1      -8.741   3.238  68.455  1.00  0.00    -0.139 A  
HETATM   28  C   UNL     1      -9.808   3.640  70.990  1.00  0.00    -0.186 A  
HETATM   29  C   UNL     1      -9.153   4.520  68.846  1.00  0.00    -0.171 A  
ENDBRANCH  20  24
ENDBRANCH  16  18
ENDBRANCH  13  16
BRANCH  15  30
HETATM   30  C   UNL     1     -11.062  12.317  69.283  1.00  0.00    -0.158 C  
HETATM   31  H2  UNL     1     -12.974  13.175  69.215  1.00  0.00     0.000 HD 
HETATM   32  N   UNL     1     -12.251  12.858  68.569  1.00  0.00    -0.100 NA 
HETATM   33  H1  UNL     1     -11.964  13.595  67.925  1.00  0.00     0.000 HD 
BRANCH  30  34
HETATM   34  C   UNL     1     -10.361  13.538  69.919  1.00  0.00     1.088 C  
BRANCH  34  35
HETATM   35  C   UNL     1      -9.571  14.483  69.033  1.00  0.00    -0.105 A  
HETATM   36  C   UNL     1     -11.490  16.202  69.154  1.00  0.00    -0.311 C  
HETATM   37  C   UNL     1      -7.631  15.033  67.652  1.00  0.00    -0.198 A  
HETATM   38  C   UNL     1      -7.709  12.740  68.547  1.00  0.00    -0.113 C  
HETATM   39  C   UNL     1     -10.123  15.749  68.701  1.00  0.00    -0.211 A  
HETATM   40  C   UNL     1      -8.341  14.105  68.438  1.00  0.00    -0.161 A  
HETATM   41  C   UNL     1      -8.135  16.305  67.399  1.00  0.00    -0.178 A  
HETATM   42  C   UNL     1      -9.389  16.647  67.910  1.00  0.00    -0.221 A  
BRANCH  41  43
HETATM   43  C   UNL     1      -7.428  17.321  66.571  1.00  0.00    -0.280 C  
HETATM   44  H2  UNL     1      -5.533  16.711  67.172  1.00  0.00     0.000 HD 
HETATM   45  H1  UNL     1      -5.577  18.061  66.027  1.00  0.00     0.000 HD 
HETATM   46  N   UNL     1      -6.061  17.365  66.594  1.00  0.00    -0.185 N  
HETATM   47  O   UNL     1      -8.042  18.119  65.869  1.00  0.00    -0.514 OA 
ENDBRANCH  41  43
ENDBRANCH  34  35
ENDBRANCH  30  34
ENDBRANCH  15  30
ENDBRANCH  12  13
ENDBRANCH   6  12
ENDBRANCH   2   3
TORSDOF 10
ENDMDL
MODEL      253
REMARK 921   NORMALIZED FREE ENERGY PREDICTED BY IDOCK:    0.29 KCAL/MOL
REMARK 922        TOTAL FREE ENERGY PREDICTED BY IDOCK:   -2.41 KCAL/MOL
REMARK 923 INTER-LIGAND FREE ENERGY PREDICTED BY IDOCK:   -5.73 KCAL/MOL
REMARK 924 INTRA-LIGAND FREE ENERGY PREDICTED BY IDOCK:    3.31 KCAL/MOL
REMARK 927      BINDING AFFINITY PREDICTED BY RF-SCORE:    0.00 PKD
ROOT
HETATM    1  C   UNL     1      -7.127  14.703  70.448  1.00  0.00     0.327 C  
HETATM    2  O   UNL     1      -5.808  14.176  70.603  1.00  0.00    -0.157 OA 
ENDROOT
BRANCH   2   3
HETATM    3  C   UNL     1      -5.638  12.840  70.342  1.00  0.00    -0.165 A  
HETATM    4  C   UNL     1      -5.412  11.878  71.330  1.00  0.00     0.115 A  
HETATM    5  C   UNL     1      -5.346  10.519  71.005  1.00  0.00    -0.093 A  
HETATM    6  C   UNL     1      -5.465  10.083  69.683  1.00  0.00    -0.037 A  
HETATM    7  C   UNL     1      -5.630  11.054  68.682  1.00  0.00    -0.043 A  
HETATM    8  C   UNL     1      -5.915  13.356  67.857  1.00  0.00    -0.140 C  
HETATM    9  O   UNL     1      -6.615  14.471  68.146  1.00  0.00    -0.108 OA 
HETATM   10  C   UNL     1      -5.728  12.422  69.002  1.00  0.00    -0.067 A  
HETATM   11  O   UNL     1      -5.523  13.093  66.730  1.00  0.00     0.137 OA 
BRANCH   6  12
HETATM   12  C   UNL     1      -5.460   8.612  69.315  1.00  0.00    -0.035 C  
BRANCH  12  13
HETATM   13  N   UNL     1      -6.240   8.244  68.119  1.00  0.00    -0.050 N  
HETATM   14  O   UNL     1      -7.295   6.633  66.835  1.00  0.00    -0.078 OA 
HETATM   15  C   UNL     1      -6.782   6.952  67.915  1.00  0.00    -0.064 C  
BRANCH  13  16
HETATM   16  C   UNL     1      -6.173   9.162  66.952  1.00  0.00    -0.062 C  
HETATM   17  C   UNL     1      -5.530   8.540  65.698  1.00  0.00    -0.035 C  
BRANCH  16  18
HETATM   18  C   UNL     1      -7.550   9.661  66.565  1.00  0.00    -0.098 A  
HETATM   19  C   UNL     1      -9.766   9.602  66.417  1.00  0.00    -0.224 A  
HETATM   20  C   UNL     1      -9.317  10.905  66.452  1.00  0.00    -0.176 A  
HETATM   21  N   UNL     1      -7.941  10.920  66.495  1.00  0.00    -0.147 NA 
HETATM   22  H   UNL     1      -7.340  11.744  66.476  1.00  0.00     0.000 HD 
HETATM   23  N   UNL     1      -8.635   8.824  66.456  1.00  0.00    -0.115 NA 
BRANCH  20  24
HETATM   24  C   UNL     1     -10.116  12.119  66.545  1.00  0.00    -0.229 A  
HETATM   25  C   UNL     1     -10.306  14.517  66.128  1.00  0.00    -0.305 A  
HETATM   26  C   UNL     1     -11.522  14.551  66.803  1.00  0.00    -0.376 A  
HETATM   27  C   UNL     1     -12.049  13.373  67.335  1.00  0.00    -0.338 A  
HETATM   28  C   UNL     1      -9.612  13.311  65.999  1.00  0.00    -0.174 A  
HETATM   29  C   UNL     1     -11.354  12.163  67.203  1.00  0.00    -0.393 A  
ENDBRANCH  20  24
ENDBRANCH  16  18
ENDBRANCH  13  16
BRANCH  15  30
HETATM   30  C   UNL     1      -6.744   5.939  69.120  1.00  0.00    -0.060 C  
HETATM   31  H2  UNL     1      -4.714   6.285  69.512  1.00  0.00     0.000 HD 
HETATM   32  N   UNL     1      -5.345   5.496  69.369  1.00  0.00    -0.004 NA 
HETATM   33  H1  UNL     1      -5.321   4.840  70.149  1.00  0.00     0.000 HD 
BRANCH  30  34
HETATM   34  C   UNL     1      -7.262   6.475  70.473  1.00  0.00    -0.074 C  
BRANCH  34  35
HETATM   35  C   UNL     1      -8.555   7.268  70.510  1.00  0.00    -0.143 A  
HETATM   36  C   UNL     1      -7.660   8.636  72.505  1.00  0.00    -0.005 C  
HETATM   37  C   UNL     1     -10.825   7.735  69.732  1.00  0.00    -0.211 A  
HETATM   38  C   UNL     1      -9.719   5.772  68.736  1.00  0.00    -0.168 C  
HETATM   39  C   UNL     1      -8.710   8.301  71.473  1.00  0.00    -0.208 A  
HETATM   40  C   UNL     1      -9.659   6.945  69.682  1.00  0.00    -0.146 A  
HETATM   41  C   UNL     1     -10.940   8.802  70.618  1.00  0.00    -0.278 A  
HETATM   42  C   UNL     1      -9.888   9.064  71.497  1.00  0.00    -0.381 A  
BRANCH  41  43
HETATM   43  C   UNL     1     -12.151   9.663  70.714  1.00  0.00    -0.248 C  
HETATM   44  H2  UNL     1     -13.041   8.505  72.195  1.00  0.00     0.000 HD 
HETATM   45  H1  UNL     1     -13.965   9.922  71.670  1.00  0.00     0.000 HD 
HETATM   46  N   UNL     1     -13.135   9.332  71.604  1.00  0.00    -0.359 N  
HETATM   47  O   UNL     1     -12.287  10.662  70.014  1.00  0.00    -0.311 OA 
ENDBRANCH  41  43
ENDBRANCH  34  35
ENDBRANCH  30  34
ENDBRANCH  15  30
ENDBRANCH  12  13
ENDBRANCH   6  12
ENDBRANCH   2   3
TORSDOF 10
ENDMDL
MODEL      254
REMARK 921   NORMALIZED FREE ENERGY PREDICTED BY IDOCK:    0.39 KCAL/MOL
REMARK 922        TOTAL FREE ENERGY PREDICTED BY IDOCK:   -2.25 KCAL/MOL
REMARK 923 INTER-LIGAND FREE ENERGY PREDICTED BY IDOCK:   -1.57 KCAL/MOL
REMARK 924 INTRA-LIGAND FREE ENERGY PREDICTED BY IDOCK:   -0.68 KCAL/MOL
REMARK 927      BINDING AFFINITY PREDICTED BY RF-SCORE:    0.00 PKD
ROOT
HETATM    1  C   UNL     1      -8.818  16.746  69.253  1.00  0.00     0.010 C  
HETATM    2  O   UNL     1      -9.707  15.701  69.651  1.00  0.00    -0.274 OA 
ENDROOT
BRANCH   2   3
HETATM    3  C   UNL     1      -9.336  14.417  69.341  1.00  0.00     0.286 A  
HETATM    4  C   UNL     1      -8.012  13.971  69.333  1.00  0.00     0.364 A  
HETATM    5  C   UNL     1      -7.710  12.624  69.105  1.00  0.00     0.316 A  
HETATM    6  C   UNL     1      -8.717  11.690  68.843  1.00  0.00     0.078 A  
HETATM    7  C   UNL     1     -10.042  12.149  68.790  1.00  0.00    -0.098 A  
HETATM    8  C   UNL     1     -11.801  13.862  68.975  1.00  0.00    -0.358 C  
HETATM    9  O   UNL     1     -12.170  14.872  69.789  1.00  0.00    -0.309 OA 
HETATM   10  C   UNL     1     -10.359  13.497  69.048  1.00  0.00    -0.025 A  
HETATM   11  O   UNL     1     -12.596  13.245  68.283  1.00  0.00     0.222 OA 
BRANCH   6  12
HETATM   12  C   UNL     1      -8.420  10.215  68.656  1.00  0.00    -0.122 C  
BRANCH  12  13
HETATM   13  N   UNL     1      -9.444   9.438  67.935  1.00  0.00    -0.132 N  
HETATM   14  O   UNL     1     -10.885   9.205  66.139  1.00  0.00     0.333 OA 
HETATM   15  C   UNL     1      -9.917   9.786  66.647  1.00  0.00    -0.229 C  
BRANCH  13  16
HETATM   16  C   UNL     1     -10.232   8.453  68.722  1.00  0.00    -0.207 C  
HETATM   17  C   UNL     1     -10.165   7.014  68.176  1.00  0.00    -0.211 C  
BRANCH  16  18
HETATM   18  C   UNL     1      -9.786   8.419  70.169  1.00  0.00    -0.173 A  
HETATM   19  C   UNL     1     -10.015   8.133  72.360  1.00  0.00    -0.275 A  
HETATM   20  C   UNL     1      -8.722   7.860  71.968  1.00  0.00    -0.137 A  
HETATM   21  N   UNL     1      -8.589   8.089  70.617  1.00  0.00    -0.127 NA 
HETATM   22  H   UNL     1      -7.732   8.018  70.069  1.00  0.00     0.000 HD 
HETATM   23  N   UNL     1     -10.671   8.517  71.216  1.00  0.00    -0.227 NA 
BRANCH  20  24
HETATM   24  C   UNL     1      -7.645   7.306  72.778  1.00  0.00    -0.091 A  
HETATM   25  C   UNL     1      -6.954   5.759  74.535  1.00  0.00    -0.084 A  
HETATM   26  C   UNL     1      -5.660   6.269  74.492  1.00  0.00    -0.054 A  
HETATM   27  C   UNL     1      -5.347   7.282  73.585  1.00  0.00    -0.046 A  
HETATM   28  C   UNL     1      -7.936   6.273  73.684  1.00  0.00    -0.100 A  
HETATM   29  C   UNL     1      -6.332   7.795  72.728  1.00  0.00    -0.064 A  
ENDBRANCH  20  24
ENDBRANCH  16  18
ENDBRANCH  13  16
BRANCH  15  30
HETATM   30  C   UNL     1      -9.151  10.916  65.862  1.00  0.00    -0.193 C  
HETATM   31  H2  UNL     1      -8.459   9.597  64.388  1.00  0.00     0.000 HD 
HETATM   32  N   UNL     1      -8.088  10.313  65.012  1.00  0.00    -0.146 NA 
HETATM   33  H1  UNL     1      -7.593  11.045  64.504  1.00  0.00     0.000 HD 
BRANCH  30  34
HETATM   34  C   UNL     1     -10.009  11.782  64.912  1.00  0.00    -0.280 C  
BRANCH  34  35
HETATM   35  C   UNL     1     -10.220  13.249  65.235  1.00  0.00    -0.303 A  
HETATM   36  C   UNL     1      -7.763  13.436  65.997  1.00  0.00     2.785 C  
HETATM   37  C   UNL     1     -11.632  15.235  65.435  1.00  0.00    -0.102 A  
HETATM   38  C   UNL     1     -12.781  13.145  64.819  1.00  0.00    -0.373 C  
HETATM   39  C   UNL     1      -9.132  14.016  65.732  1.00  0.00     0.442 A  
HETATM   40  C   UNL     1     -11.497  13.860  65.156  1.00  0.00    -0.324 A  
HETATM   41  C   UNL     1     -10.544  16.003  65.838  1.00  0.00    -0.338 A  
HETATM   42  C   UNL     1      -9.305  15.382  66.003  1.00  0.00    -0.364 A  
BRANCH  41  43
HETATM   43  C   UNL     1     -10.634  17.457  66.149  1.00  0.00    -0.208 C  
HETATM   44  H2  UNL     1     -11.304  17.152  68.094  1.00  0.00     0.000 HD 
HETATM   45  H1  UNL     1     -11.116  18.843  67.603  1.00  0.00     0.000 HD 
HETATM   46  N   UNL     1     -11.055  17.848  67.390  1.00  0.00    -0.051 N  
HETATM   47  O   UNL     1     -10.341  18.311  65.318  1.00  0.00    -0.383 OA 
ENDBRANCH  41  43
ENDBRANCH  34  35
ENDBRANCH  30  34
ENDBRANCH  15  30
ENDBRANCH  12  13
ENDBRANCH   6  12
ENDBRANCH   2   3
TORSDOF 10
ENDMDL
MODEL      255
REMARK 921   NORMALIZED FREE ENERGY PREDICTED BY IDOCK:    0.40 KCAL/MOL
REMARK 922        TOTAL FREE ENERGY PREDICTED BY IDOCK:   -2.23 KCAL/MOL
REMARK 923 INTER-LIGAND FREE ENERGY PREDICTED BY IDOCK:   -6.35 KCAL/MOL
REMARK 924 INTRA-LIGAND FREE ENERGY PREDICTED BY IDOCK:    4.11 KCAL/MOL
REMARK 927      BINDING AFFINITY PREDICTED BY RF-SCORE:    0.00 PKD
ROOT
HETATM    1  C   UNL     1      -8.846   5.242  67.588  1.00  0.00    -0.105 C  
HETATM    2  O   UNL     1      -9.259   6.155  66.570  1.00  0.00    -0.142 OA 
ENDROOT
BRANCH   2   3
HETATM    3  C   UNL     1      -8.768   7.434  66.645  1.00  0.00    -0.135 A  
HETATM    4  C   UNL     1      -8.950   8.273  67.747  1.00  0.00    -0.139 A  
HETATM    5  C   UNL     1      -8.339   9.529  67.801  1.00  0.00    -0.118 A  
HETATM    6  C   UNL     1      -7.558  10.002  66.741  1.00  0.00    -0.103 A  
HETATM    7  C   UNL     1      -7.425   9.185  65.608  1.00  0.00    -0.093 A  
HETATM    8  C   UNL     1      -7.790   7.126  64.306  1.00  0.00    -0.111 C  
HETATM    9  O   UNL     1      -7.763   5.788  64.471  1.00  0.00    -0.082 OA 
HETATM   10  C   UNL     1      -8.012   7.905  65.557  1.00  0.00    -0.119 A  
HETATM   11  O   UNL     1      -7.579   7.665  63.231  1.00  0.00    -0.104 OA 
BRANCH   6  12
HETATM   12  C   UNL     1      -6.834  11.332  66.803  1.00  0.00    -0.140 C  
BRANCH  12  13
HETATM   13  N   UNL     1      -7.286  12.263  67.853  1.00  0.00    -0.095 N  
HETATM   14  O   UNL     1      -8.636  14.018  68.528  1.00  0.00    -0.169 OA 
HETATM   15  C   UNL     1      -8.382  13.144  67.689  1.00  0.00    -0.174 C  
BRANCH  13  16
HETATM   16  C   UNL     1      -6.362  12.510  68.991  1.00  0.00    -0.092 C  
HETATM   17  C   UNL     1      -6.838  13.606  69.962  1.00  0.00     0.277 C  
BRANCH  16  18
HETATM   18  C   UNL     1      -6.130  11.248  69.797  1.00  0.00    -0.112 A  
HETATM   19  C   UNL     1      -6.400   9.845  71.499  1.00  0.00     0.277 A  
HETATM   20  C   UNL     1      -6.071   9.157  70.350  1.00  0.00    -0.043 A  
HETATM   21  N   UNL     1      -5.862  10.046  69.320  1.00  0.00    -0.038 NA 
HETATM   22  H   UNL     1      -5.558   9.821  68.373  1.00  0.00     0.000 HD 
HETATM   23  N   UNL     1      -6.402  11.171  71.142  1.00  0.00     0.082 NA 
BRANCH  20  24
HETATM   24  C   UNL     1      -6.042   7.714  70.155  1.00  0.00    -0.026 A  
HETATM   25  C   UNL     1      -6.831   5.509  70.846  1.00  0.00    -0.049 A  
HETATM   26  C   UNL     1      -5.952   4.901  69.955  1.00  0.00    -0.021 A  
HETATM   27  C   UNL     1      -5.130   5.691  69.151  1.00  0.00    -0.004 A  
HETATM   28  C   UNL     1      -6.876   6.902  70.943  1.00  0.00    -0.055 A  
HETATM   29  C   UNL     1      -5.177   7.089  69.245  1.00  0.00    -0.014 A  
ENDBRANCH  20  24
ENDBRANCH  16  18
ENDBRANCH  13  16
BRANCH  15  30
HETATM   30  C   UNL     1      -9.293  12.956  66.418  1.00  0.00    -0.187 C  
HETATM   31  H2  UNL     1      -8.679  10.976  66.114  1.00  0.00     0.000 HD 
HETATM   32  N   UNL     1      -8.775  11.840  65.581  1.00  0.00    -0.397 NA 
HETATM   33  H1  UNL     1      -9.365  11.719  64.759  1.00  0.00     0.000 HD 
BRANCH  30  34
HETATM   34  C   UNL     1     -10.777  12.624  66.691  1.00  0.00    -0.275 C  
BRANCH  34  35
HETATM   35  C   UNL     1     -11.391  13.013  68.023  1.00  0.00    -0.327 A  
HETATM   36  C   UNL     1     -11.061  15.505  67.447  1.00  0.00    -0.285 C  
HETATM   37  C   UNL     1     -12.336  12.462  70.209  1.00  0.00    -0.264 A  
HETATM   38  C   UNL     1     -11.489  10.566  68.884  1.00  0.00    -0.292 C  
HETATM   39  C   UNL     1     -11.530  14.389  68.349  1.00  0.00    -0.329 A  
HETATM   40  C   UNL     1     -11.737  12.048  69.002  1.00  0.00    -0.382 A  
HETATM   41  C   UNL     1     -12.551  13.808  70.488  1.00  0.00    -0.361 A  
HETATM   42  C   UNL     1     -12.127  14.763  69.562  1.00  0.00    -0.328 A  
BRANCH  41  43
HETATM   43  C   UNL     1     -13.174  14.297  71.749  1.00  0.00    -0.367 C  
HETATM   44  H2  UNL     1     -11.984  16.000  71.852  1.00  0.00     0.000 HD 
HETATM   45  H1  UNL     1     -13.158  15.803  73.163  1.00  0.00     0.000 HD 
HETATM   46  N   UNL     1     -12.731  15.468  72.300  1.00  0.00    -0.368 N  
HETATM   47  O   UNL     1     -14.073  13.674  72.305  1.00  0.00    -0.535 OA 
ENDBRANCH  41  43
ENDBRANCH  34  35
ENDBRANCH  30  34
ENDBRANCH  15  30
ENDBRANCH  12  13
ENDBRANCH   6  12
ENDBRANCH   2   3
TORSDOF 10
ENDMDL
MODEL      256
REMARK 921   NORMALIZED FREE ENERGY PREDICTED BY IDOCK:    0.41 KCAL/MOL
REMARK 922        TOTAL FREE ENERGY PREDICTED BY IDOCK:   -2.22 KCAL/MOL
REMARK 923 INTER-LIGAND FREE ENERGY PREDICTED BY IDOCK:   -6.50 KCAL/MOL
REMARK 924 INTRA-LIGAND FREE ENERGY PREDICTED BY IDOCK:    4.28 KCAL/MOL
REMARK 927      BINDING AFFINITY PREDICTED BY RF-SCORE:    0.00 PKD
ROOT
HETATM    1  C   UNL     1     -11.395  13.107  68.109  1.00  0.00    -0.292 C  
HETATM    2  O   UNL     1     -10.172  12.749  67.463  1.00  0.00    -0.213 OA 
ENDROOT
BRANCH   2   3
HETATM    3  C   UNL     1      -9.239  12.087  68.221  1.00  0.00    -0.192 A  
HETATM    4  C   UNL     1      -7.991  12.621  68.557  1.00  0.00    -0.093 A  
HETATM    5  C   UNL     1      -7.127  11.935  69.416  1.00  0.00     0.055 A  
HETATM    6  C   UNL     1      -7.463  10.682  69.935  1.00  0.00    -0.024 A  
HETATM    7  C   UNL     1      -8.689  10.118  69.549  1.00  0.00    -0.189 A  
HETATM    8  C   UNL     1     -10.857  10.119  68.380  1.00  0.00    -0.242 C  
HETATM    9  O   UNL     1     -11.906  10.937  68.162  1.00  0.00    -0.564 OA 
HETATM   10  C   UNL     1      -9.581  10.814  68.709  1.00  0.00    -0.194 A  
HETATM   11  O   UNL     1     -10.955   8.901  68.379  1.00  0.00    -0.046 OA 
BRANCH   6  12
HETATM   12  C   UNL     1      -6.570   9.949  70.917  1.00  0.00    -0.012 C  
BRANCH  12  13
HETATM   13  N   UNL     1      -6.653   8.478  70.889  1.00  0.00    -0.040 N  
HETATM   14  O   UNL     1      -7.113   6.520  69.744  1.00  0.00    -0.067 OA 
HETATM   15  C   UNL     1      -6.895   7.738  69.707  1.00  0.00    -0.046 C  
BRANCH  13  16
HETATM   16  C   UNL     1      -6.812   7.778  72.191  1.00  0.00    -0.060 C  
HETATM   17  C   UNL     1      -6.093   8.465  73.367  1.00  0.00    -0.108 C  
BRANCH  16  18
HETATM   18  C   UNL     1      -8.273   7.634  72.564  1.00  0.00    -0.118 A  
HETATM   19  C   UNL     1     -10.035   7.640  73.918  1.00  0.00     0.027 A  
HETATM   20  C   UNL     1     -10.409   7.972  72.633  1.00  0.00    -0.329 A  
HETATM   21  N   UNL     1      -9.314   7.916  71.802  1.00  0.00    -0.143 NA 
HETATM   22  H   UNL     1      -9.307   8.064  70.793  1.00  0.00     0.000 HD 
HETATM   23  N   UNL     1      -8.685   7.396  73.854  1.00  0.00    -0.194 NA 
BRANCH  20  24
HETATM   24  C   UNL     1     -11.715   8.431  72.177  1.00  0.00    -0.442 A  
HETATM   25  C   UNL     1     -13.125  10.283  71.442  1.00  0.00    -0.512 A  
HETATM   26  C   UNL     1     -14.236   9.446  71.422  1.00  0.00    -0.003 A  
HETATM   27  C   UNL     1     -14.092   8.100  71.761  1.00  0.00    -0.516 A  
HETATM   28  C   UNL     1     -11.876   9.778  71.814  1.00  0.00    -0.335 A  
HETATM   29  C   UNL     1     -12.838   7.593  72.132  1.00  0.00    -0.161 A  
ENDBRANCH  20  24
ENDBRANCH  16  18
ENDBRANCH  13  16
BRANCH  15  30
HETATM   30  C   UNL     1      -6.842   8.506  68.333  1.00  0.00    -0.065 C  
HETATM   31  H2  UNL     1      -5.816   6.958  67.362  1.00  0.00     0.000 HD 
HETATM   32  N   UNL     1      -5.740   7.967  67.490  1.00  0.00    -0.036 NA 
HETATM   33  H1  UNL     1      -5.707   8.465  66.601  1.00  0.00     0.000 HD 
BRANCH  30  34
HETATM   34  C   UNL     1      -8.116   8.425  67.462  1.00  0.00    -0.110 C  
BRANCH  34  35
HETATM   35  C   UNL     1      -8.225   7.339  66.409  1.00  0.00    -0.120 A  
HETATM   36  C   UNL     1      -9.449   5.823  68.099  1.00  0.00    -0.120 C  
HETATM   37  C   UNL     1      -7.768   6.432  64.185  1.00  0.00    -0.105 A  
HETATM   38  C   UNL     1      -6.730   8.605  64.706  1.00  0.00    -0.069 C  
HETATM   39  C   UNL     1      -8.880   6.120  66.732  1.00  0.00    -0.122 A  
HETATM   40  C   UNL     1      -7.606   7.457  65.140  1.00  0.00    -0.104 A  
HETATM   41  C   UNL     1      -8.484   5.276  64.477  1.00  0.00    -0.133 A  
HETATM   42  C   UNL     1      -9.018   5.120  65.758  1.00  0.00    -0.152 A  
BRANCH  41  43
HETATM   43  C   UNL     1      -8.679   4.163  63.507  1.00  0.00    -0.113 C  
HETATM   44  H2  UNL     1      -7.560   2.803  64.613  1.00  0.00     0.000 HD 
HETATM   45  H1  UNL     1      -8.245   2.184  63.102  1.00  0.00     0.000 HD 
HETATM   46  N   UNL     1      -8.111   2.946  63.766  1.00  0.00    -0.081 N  
HETATM   47  O   UNL     1      -9.337   4.312  62.482  1.00  0.00    -0.117 OA 
ENDBRANCH  41  43
ENDBRANCH  34  35
ENDBRANCH  30  34
ENDBRANCH  15  30
ENDBRANCH  12  13
ENDBRANCH   6  12
ENDBRANCH   2   3
TORSDOF 10
ENDMDL
MODEL      257
REMARK 921   NORMALIZED FREE ENERGY PREDICTED BY IDOCK:    0.42 KCAL/MOL
REMARK 922        TOTAL FREE ENERGY PREDICTED BY IDOCK:   -2.20 KCAL/MOL
REMARK 923 INTER-LIGAND FREE ENERGY PREDICTED BY IDOCK:   -6.62 KCAL/MOL
REMARK 924 INTRA-LIGAND FREE ENERGY PREDICTED BY IDOCK:    4.43 KCAL/MOL
REMARK 927      BINDING AFFINITY PREDICTED BY RF-SCORE:    0.00 PKD
ROOT
HETATM    1  C   UNL     1     -12.362  13.679  62.973  1.00  0.00     0.472 C  
HETATM    2  O   UNL     1     -12.693  14.205  64.259  1.00  0.00    -0.660 OA 
ENDROOT
BRANCH   2   3
HETATM    3  C   UNL     1     -12.039  13.668  65.339  1.00  0.00    -0.403 A  
HETATM    4  C   UNL     1     -12.411  12.470  65.956  1.00  0.00    -0.083 A  
HETATM    5  C   UNL     1     -11.641  11.928  66.989  1.00  0.00    -0.365 A  
HETATM    6  C   UNL     1     -10.499  12.580  67.463  1.00  0.00    -0.231 A  
HETATM    7  C   UNL     1     -10.159  13.814  66.886  1.00  0.00    -0.260 A  
HETATM    8  C   UNL     1     -10.445  15.662  65.284  1.00  0.00    -0.412 C  
HETATM    9  O   UNL     1     -10.701  15.857  63.975  1.00  0.00     0.129 OA 
HETATM   10  C   UNL     1     -10.911  14.354  65.824  1.00  0.00    -0.308 A  
HETATM   11  O   UNL     1      -9.819  16.462  65.963  1.00  0.00    -0.307 OA 
BRANCH   6  12
HETATM   12  C   UNL     1      -9.614  11.980  68.538  1.00  0.00    -0.143 C  
BRANCH  12  13
HETATM   13  N   UNL     1      -8.191  12.360  68.488  1.00  0.00    -0.127 N  
HETATM   14  O   UNL     1      -6.560  13.985  68.253  1.00  0.00    -0.088 OA 
HETATM   15  C   UNL     1      -7.749  13.704  68.451  1.00  0.00    -0.138 C  
BRANCH  13  16
HETATM   16  C   UNL     1      -7.213  11.298  68.136  1.00  0.00    -0.081 C  
HETATM   17  C   UNL     1      -7.119  10.161  69.170  1.00  0.00    -0.073 C  
BRANCH  16  18
HETATM   18  C   UNL     1      -7.535  10.674  66.793  1.00  0.00    -0.120 A  
HETATM   19  C   UNL     1      -7.311  10.319  64.611  1.00  0.00    -0.085 A  
HETATM   20  C   UNL     1      -7.805   9.195  65.238  1.00  0.00    -0.105 A  
HETATM   21  N   UNL     1      -7.982   9.451  66.579  1.00  0.00    -0.107 NA 
HETATM   22  H   UNL     1      -8.380   8.818  67.272  1.00  0.00     0.000 HD 
HETATM   23  N   UNL     1      -7.175  11.260  65.602  1.00  0.00     0.275 NA 
BRANCH  20  24
HETATM   24  C   UNL     1      -8.023   7.877  64.657  1.00  0.00    -0.143 A  
HETATM   25  C   UNL     1      -8.073   5.455  64.964  1.00  0.00    -0.120 A  
HETATM   26  C   UNL     1      -8.284   5.274  63.600  1.00  0.00    -0.126 A  
HETATM   27  C   UNL     1      -8.383   6.387  62.764  1.00  0.00     0.043 A  
HETATM   28  C   UNL     1      -7.945   6.745  65.486  1.00  0.00    -0.119 A  
HETATM   29  C   UNL     1      -8.259   7.682  63.289  1.00  0.00     0.027 A  
ENDBRANCH  20  24
ENDBRANCH  16  18
ENDBRANCH  13  16
BRANCH  15  30
HETATM   30  C   UNL     1      -8.813  14.837  68.708  1.00  0.00    -0.179 C  
HETATM   31  H2  UNL     1      -9.486  13.975  70.496  1.00  0.00     0.000 HD 
HETATM   32  N   UNL     1      -9.873  14.339  69.626  1.00  0.00    -0.230 NA 
HETATM   33  H1  UNL     1     -10.562  15.073  69.792  1.00  0.00     0.000 HD 
BRANCH  30  34
HETATM   34  C   UNL     1      -8.278  16.137  69.348  1.00  0.00    -0.091 C  
BRANCH  34  35
HETATM   35  C   UNL     1      -7.867  17.290  68.451  1.00  0.00    -0.254 A  
HETATM   36  C   UNL     1      -5.593  16.148  68.026  1.00  0.00    -0.124 C  
HETATM   37  C   UNL     1      -8.256  19.476  67.428  1.00  0.00    -0.321 A  
HETATM   38  C   UNL     1      -9.959  18.712  69.036  1.00  0.00    -0.335 C  
HETATM   39  C   UNL     1      -6.594  17.260  67.821  1.00  0.00    -0.168 A  
HETATM   40  C   UNL     1      -8.669  18.449  68.301  1.00  0.00    -0.321 A  
HETATM   41  C   UNL     1      -7.046  19.403  66.745  1.00  0.00    -0.213 A  
HETATM   42  C   UNL     1      -6.214  18.303  66.963  1.00  0.00    -0.188 A  
BRANCH  41  43
HETATM   43  C   UNL     1      -6.561  20.463  65.817  1.00  0.00    -0.241 C  
HETATM   44  H2  UNL     1      -7.615  19.724  64.183  1.00  0.00     0.000 HD 
HETATM   45  H1  UNL     1      -6.646  21.175  63.879  1.00  0.00     0.000 HD 
HETATM   46  N   UNL     1      -6.979  20.449  64.515  1.00  0.00    -0.037 N  
HETATM   47  O   UNL     1      -5.795  21.345  66.193  1.00  0.00    -0.265 OA 
ENDBRANCH  41  43
ENDBRANCH  34  35
ENDBRANCH  30  34
ENDBRANCH  15  30
ENDBRANCH  12  13
ENDBRANCH   6  12
ENDBRANCH   2   3
TORSDOF 10
ENDMDL
MODEL      258
REMARK 921   NORMALIZED FREE ENERGY PREDICTED BY IDOCK:    0.60 KCAL/MOL
REMARK 922        TOTAL FREE ENERGY PREDICTED BY IDOCK:   -1.92 KCAL/MOL
REMARK 923 INTER-LIGAND FREE ENERGY PREDICTED BY IDOCK:   -3.70 KCAL/MOL
REMARK 924 INTRA-LIGAND FREE ENERGY PREDICTED BY IDOCK:    1.79 KCAL/MOL
REMARK 927      BINDING AFFINITY PREDICTED BY RF-SCORE:    0.00 PKD
ROOT
HETATM    1  C   UNL     1      -7.471   9.738  71.237  1.00  0.00     0.663 C  
HETATM    2  O   UNL     1      -8.200  10.674  70.442  1.00  0.00     0.438 OA 
ENDROOT
BRANCH   2   3
HETATM    3  C   UNL     1      -8.591  10.259  69.194  1.00  0.00    -0.164 A  
HETATM    4  C   UNL     1      -9.622   9.344  68.967  1.00  0.00    -0.164 A  
HETATM    5  C   UNL     1     -10.036   9.039  67.666  1.00  0.00    -0.252 A  
HETATM    6  C   UNL     1      -9.411   9.610  66.554  1.00  0.00    -0.233 A  
HETATM    7  C   UNL     1      -8.335  10.482  66.779  1.00  0.00    -0.128 A  
HETATM    8  C   UNL     1      -6.785  11.765  68.199  1.00  0.00    -0.064 C  
HETATM    9  O   UNL     1      -6.806  12.550  69.295  1.00  0.00    -0.091 OA 
HETATM   10  C   UNL     1      -7.930  10.819  68.086  1.00  0.00    -0.114 A  
HETATM   11  O   UNL     1      -5.934  11.867  67.328  1.00  0.00    -0.103 OA 
BRANCH   6  12
HETATM   12  C   UNL     1      -9.884   9.344  65.138  1.00  0.00     0.091 C  
BRANCH  12  13
HETATM   13  N   UNL     1      -9.133  10.025  64.069  1.00  0.00    -0.240 N  
HETATM   14  O   UNL     1      -7.157  10.358  62.910  1.00  0.00    -0.136 OA 
HETATM   15  C   UNL     1      -7.813   9.668  63.701  1.00  0.00    -0.138 C  
BRANCH  13  16
HETATM   16  C   UNL     1      -9.657  11.331  63.592  1.00  0.00    -0.274 C  
HETATM   17  C   UNL     1     -10.708  11.217  62.471  1.00  0.00     0.850 C  
BRANCH  16  18
HETATM   18  C   UNL     1     -10.275  12.124  64.725  1.00  0.00    -0.281 A  
HETATM   19  C   UNL     1     -11.530  12.451  66.529  1.00  0.00    -0.371 A  
HETATM   20  C   UNL     1     -10.466  13.326  66.514  1.00  0.00    -0.281 A  
HETATM   21  N   UNL     1      -9.729  13.141  65.366  1.00  0.00    -0.497 NA 
HETATM   22  H   UNL     1      -8.917  13.683  65.069  1.00  0.00     0.000 HD 
HETATM   23  N   UNL     1     -11.417  11.717  65.374  1.00  0.00    -0.175 NA 
BRANCH  20  24
HETATM   24  C   UNL     1     -10.059  14.250  67.564  1.00  0.00    -0.236 A  
HETATM   25  C   UNL     1     -10.522  15.253  69.741  1.00  0.00    -0.287 A  
HETATM   26  C   UNL     1      -9.436  16.111  69.591  1.00  0.00    -0.009 A  
HETATM   27  C   UNL     1      -8.649  16.032  68.441  1.00  0.00    -0.185 A  
HETATM   28  C   UNL     1     -10.828  14.331  68.737  1.00  0.00    -0.265 A  
HETATM   29  C   UNL     1      -8.954  15.104  67.435  1.00  0.00    -0.193 A  
ENDBRANCH  20  24
ENDBRANCH  16  18
ENDBRANCH  13  16
BRANCH  15  30
HETATM   30  C   UNL     1      -7.215   8.341  64.302  1.00  0.00    -0.089 C  
HETATM   31  H2  UNL     1      -5.443   9.273  64.923  1.00  0.00     0.000 HD 
HETATM   32  N   UNL     1      -5.733   8.450  64.397  1.00  0.00    -0.059 NA 
HETATM   33  H1  UNL     1      -5.346   7.590  64.786  1.00  0.00     0.000 HD 
BRANCH  30  34
HETATM   34  C   UNL     1      -7.700   7.960  65.719  1.00  0.00    -0.090 C  
BRANCH  34  35
HETATM   35  C   UNL     1      -7.361   6.589  66.274  1.00  0.00    -0.073 A  
HETATM   36  C   UNL     1      -5.938   7.690  68.122  1.00  0.00    -0.039 C  
HETATM   37  C   UNL     1      -7.443   4.147  66.198  1.00  0.00    -0.084 A  
HETATM   38  C   UNL     1      -8.477   5.328  64.298  1.00  0.00    -0.115 C  
HETATM   39  C   UNL     1      -6.537   6.491  67.427  1.00  0.00    -0.061 A  
HETATM   40  C   UNL     1      -7.754   5.395  65.620  1.00  0.00    -0.091 A  
HETATM   41  C   UNL     1      -6.709   4.057  67.376  1.00  0.00    -0.047 A  
HETATM   42  C   UNL     1      -6.244   5.231  67.972  1.00  0.00    -0.034 A  
BRANCH  41  43
HETATM   43  C   UNL     1      -6.349   2.765  68.023  1.00  0.00    -0.032 C  
HETATM   44  H2  UNL     1      -4.534   3.467  68.757  1.00  0.00     0.000 HD 
HETATM   45  H1  UNL     1      -4.917   1.781  69.141  1.00  0.00     0.000 HD 
HETATM   46  N   UNL     1      -5.163   2.666  68.698  1.00  0.00    -0.012 N  
HETATM   47  O   UNL     1      -7.089   1.788  67.965  1.00  0.00    -0.039 OA 
ENDBRANCH  41  43
ENDBRANCH  34  35
ENDBRANCH  30  34
ENDBRANCH  15  30
ENDBRANCH  12  13
ENDBRANCH   6  12
ENDBRANCH   2   3
TORSDOF 10
ENDMDL
MODEL      259
REMARK 921   NORMALIZED FREE ENERGY PREDICTED BY IDOCK:    0.62 KCAL/MOL
REMARK 922        TOTAL FREE ENERGY PREDICTED BY IDOCK:   -1.89 KCAL/MOL
REMARK 923 INTER-LIGAND FREE ENERGY PREDICTED BY IDOCK:   -6.07 KCAL/MOL
REMARK 924 INTRA-LIGAND FREE ENERGY PREDICTED BY IDOCK:    4.17 KCAL/MOL
REMARK 927      BINDING AFFINITY PREDICTED BY RF-SCORE:    0.00 PKD
ROOT
HETATM    1  C   UNL     1     -12.085  13.664  62.983  1.00  0.00     0.457 C  
HETATM    2  O   UNL     1     -12.476  14.177  64.257  1.00  0.00    -0.650 OA 
ENDROOT
BRANCH   2   3
HETATM    3  C   UNL     1     -11.893  13.608  65.362  1.00  0.00    -0.353 A  
HETATM    4  C   UNL     1     -12.330  12.415  65.944  1.00  0.00    -0.028 A  
HETATM    5  C   UNL     1     -11.630  11.839  67.008  1.00  0.00    -0.321 A  
HETATM    6  C   UNL     1     -10.496  12.453  67.548  1.00  0.00    -0.229 A  
HETATM    7  C   UNL     1     -10.093  13.683  67.004  1.00  0.00    -0.248 A  
HETATM    8  C   UNL     1     -10.243  15.557  65.414  1.00  0.00    -0.377 C  
HETATM    9  O   UNL     1     -10.426  15.773  64.096  1.00  0.00     0.300 OA 
HETATM   10  C   UNL     1     -10.773  14.256  65.912  1.00  0.00    -0.304 A  
HETATM   11  O   UNL     1      -9.631  16.330  66.133  1.00  0.00    -0.289 OA 
BRANCH   6  12
HETATM   12  C   UNL     1      -9.686  11.816  68.659  1.00  0.00    -0.128 C  
BRANCH  12  13
HETATM   13  N   UNL     1      -8.256  12.174  68.701  1.00  0.00    -0.087 N  
HETATM   14  O   UNL     1      -6.592  13.781  68.625  1.00  0.00    -0.083 OA 
HETATM   15  C   UNL     1      -7.794  13.512  68.747  1.00  0.00    -0.029 C  
BRANCH  13  16
HETATM   16  C   UNL     1      -7.276  11.112  68.355  1.00  0.00    -0.083 C  
HETATM   17  C   UNL     1      -6.367  10.689  69.524  1.00  0.00    -0.070 C  
BRANCH  16  18
HETATM   18  C   UNL     1      -7.969   9.869  67.836  1.00  0.00    -0.104 A  
HETATM   19  C   UNL     1      -8.671   8.425  66.301  1.00  0.00    -0.142 A  
HETATM   20  C   UNL     1      -8.456   7.788  67.504  1.00  0.00    -0.120 A  
HETATM   21  N   UNL     1      -8.068   8.706  68.453  1.00  0.00    -0.117 NA 
HETATM   22  H   UNL     1      -7.891   8.524  69.441  1.00  0.00     0.000 HD 
HETATM   23  N   UNL     1      -8.390   9.749  66.533  1.00  0.00    -0.123 NA 
BRANCH  20  24
HETATM   24  C   UNL     1      -8.502   6.357  67.773  1.00  0.00    -0.117 A  
HETATM   25  C   UNL     1      -7.822   4.487  69.188  1.00  0.00    -0.069 A  
HETATM   26  C   UNL     1      -8.411   3.587  68.304  1.00  0.00    -0.106 A  
HETATM   27  C   UNL     1      -9.060   4.065  67.165  1.00  0.00    -0.166 A  
HETATM   28  C   UNL     1      -7.870   5.858  68.924  1.00  0.00    -0.095 A  
HETATM   29  C   UNL     1      -9.111   5.442  66.902  1.00  0.00    -0.114 A  
ENDBRANCH  20  24
ENDBRANCH  16  18
ENDBRANCH  13  16
BRANCH  15  30
HETATM   30  C   UNL     1      -8.854  14.649  68.997  1.00  0.00    -0.090 C  
HETATM   31  H2  UNL     1      -9.650  13.710  70.693  1.00  0.00     0.000 HD 
HETATM   32  N   UNL     1      -9.977  14.125  69.822  1.00  0.00    -0.066 NA 
HETATM   33  H1  UNL     1     -10.664  14.862  69.983  1.00  0.00     0.000 HD 
BRANCH  30  34
HETATM   34  C   UNL     1      -8.340  15.905  69.735  1.00  0.00     0.236 C  
BRANCH  34  35
HETATM   35  C   UNL     1      -7.875  17.101  68.927  1.00  0.00    -0.217 A  
HETATM   36  C   UNL     1     -10.328  17.821  68.581  1.00  0.00    -0.351 C  
HETATM   37  C   UNL     1      -6.130  18.441  67.860  1.00  0.00    -0.180 A  
HETATM   38  C   UNL     1      -5.394  16.336  68.907  1.00  0.00    -0.112 C  
HETATM   39  C   UNL     1      -8.839  18.006  68.406  1.00  0.00    -0.300 A  
HETATM   40  C   UNL     1      -6.513  17.294  68.584  1.00  0.00    -0.178 A  
HETATM   41  C   UNL     1      -7.070  19.371  67.426  1.00  0.00    -0.232 A  
HETATM   42  C   UNL     1      -8.421  19.135  67.685  1.00  0.00    -0.323 A  
BRANCH  41  43
HETATM   43  C   UNL     1      -6.719  20.595  66.654  1.00  0.00    -0.271 C  
HETATM   44  H2  UNL     1      -5.099  21.077  67.866  1.00  0.00     0.000 HD 
HETATM   45  H1  UNL     1      -5.409  22.188  66.522  1.00  0.00     0.000 HD 
HETATM   46  N   UNL     1      -5.649  21.350  67.051  1.00  0.00    -0.296 N  
HETATM   47  O   UNL     1      -7.367  20.944  65.672  1.00  0.00     0.109 OA 
ENDBRANCH  41  43
ENDBRANCH  34  35
ENDBRANCH  30  34
ENDBRANCH  15  30
ENDBRANCH  12  13
ENDBRANCH   6  12
ENDBRANCH   2   3
TORSDOF 10
ENDMDL
MODEL      260
REMARK 921   NORMALIZED FREE ENERGY PREDICTED BY IDOCK:    0.63 KCAL/MOL
REMARK 922        TOTAL FREE ENERGY PREDICTED BY IDOCK:   -1.88 KCAL/MOL
REMARK 923 INTER-LIGAND FREE ENERGY PREDICTED BY IDOCK:   -3.30 KCAL/MOL
REMARK 924 INTRA-LIGAND FREE ENERGY PREDICTED BY IDOCK:    1.42 KCAL/MOL
REMARK 927      BINDING AFFINITY PREDICTED BY RF-SCORE:    0.00 PKD
ROOT
HETATM    1  C   UNL     1     -10.514  19.805  69.224  1.00  0.00     0.181 C  
HETATM    2  O   UNL     1      -9.942  18.891  68.287  1.00  0.00    -0.337 OA 
ENDROOT
BRANCH   2   3
HETATM    3  C   UNL     1      -9.351  17.763  68.799  1.00  0.00    -0.229 A  
HETATM    4  C   UNL     1     -10.056  16.610  69.156  1.00  0.00    -0.285 A  
HETATM    5  C   UNL     1      -9.381  15.460  69.578  1.00  0.00    -0.252 A  
HETATM    6  C   UNL     1      -7.988  15.437  69.693  1.00  0.00    -0.138 A  
HETATM    7  C   UNL     1      -7.284  16.614  69.393  1.00  0.00    -0.132 A  
HETATM    8  C   UNL     1      -7.097  18.951  68.639  1.00  0.00    -0.297 C  
HETATM    9  O   UNL     1      -7.567  19.757  67.667  1.00  0.00    -0.266 OA 
HETATM   10  C   UNL     1      -7.952  17.768  68.938  1.00  0.00    -0.174 A  
HETATM   11  O   UNL     1      -6.020  19.132  69.186  1.00  0.00    -0.221 OA 
BRANCH   6  12
HETATM   12  C   UNL     1      -7.232  14.184  70.087  1.00  0.00     0.437 C  
BRANCH  12  13
HETATM   13  N   UNL     1      -6.806  13.312  68.978  1.00  0.00    -0.107 N  
HETATM   14  O   UNL     1      -5.800  11.365  68.234  1.00  0.00    -0.046 OA 
HETATM   15  C   UNL     1      -6.292  12.007  69.171  1.00  0.00    -0.093 C  
BRANCH  13  16
HETATM   16  C   UNL     1      -6.608  13.947  67.648  1.00  0.00    -0.164 C  
HETATM   17  C   UNL     1      -5.765  13.108  66.670  1.00  0.00     1.833 C  
BRANCH  16  18
HETATM   18  C   UNL     1      -7.933  14.245  66.977  1.00  0.00     0.017 A  
HETATM   19  C   UNL     1      -9.333  15.328  65.634  1.00  0.00    -0.095 A  
HETATM   20  C   UNL     1      -9.710  14.009  65.766  1.00  0.00    -0.194 A  
HETATM   21  N   UNL     1      -8.860  13.368  66.638  1.00  0.00    -0.434 NA 
HETATM   22  H   UNL     1      -8.932  12.403  66.960  1.00  0.00     0.000 HD 
HETATM   23  N   UNL     1      -8.224  15.473  66.432  1.00  0.00    -0.139 NA 
BRANCH  20  24
HETATM   24  C   UNL     1     -10.762  13.308  65.041  1.00  0.00    -0.346 A  
HETATM   25  C   UNL     1     -13.146  12.878  64.743  1.00  0.00    -0.035 A  
HETATM   26  C   UNL     1     -12.865  11.898  63.797  1.00  0.00    -0.396 A  
HETATM   27  C   UNL     1     -11.538  11.629  63.456  1.00  0.00    -0.408 A  
HETATM   28  C   UNL     1     -12.104  13.577  65.357  1.00  0.00    -0.447 A  
HETATM   29  C   UNL     1     -10.492  12.334  64.069  1.00  0.00    -0.427 A  
ENDBRANCH  20  24
ENDBRANCH  16  18
ENDBRANCH  13  16
BRANCH  15  30
HETATM   30  C   UNL     1      -6.396  11.381  70.612  1.00  0.00     0.340 C  
HETATM   31  H2  UNL     1      -7.589   9.783  69.969  1.00  0.00     0.000 HD 
HETATM   32  N   UNL     1      -7.590  10.496  70.697  1.00  0.00    -0.218 NA 
HETATM   33  H1  UNL     1      -7.657  10.091  71.630  1.00  0.00     0.000 HD 
BRANCH  30  34
HETATM   34  C   UNL     1      -5.198  10.515  71.062  1.00  0.00    -0.090 C  
BRANCH  34  35
HETATM   35  C   UNL     1      -5.425   9.053  71.398  1.00  0.00    -0.047 A  
HETATM   36  C   UNL     1      -5.311   8.459  68.891  1.00  0.00    -0.032 C  
HETATM   37  C   UNL     1      -5.881   7.245  72.980  1.00  0.00    -0.045 A  
HETATM   38  C   UNL     1      -5.889   9.527  73.908  1.00  0.00     0.194 C  
HETATM   39  C   UNL     1      -5.456   8.095  70.349  1.00  0.00    -0.022 A  
HETATM   40  C   UNL     1      -5.712   8.620  72.717  1.00  0.00    -0.078 A  
HETATM   41  C   UNL     1      -5.824   6.300  71.960  1.00  0.00    -0.037 A  
HETATM   42  C   UNL     1      -5.632   6.736  70.648  1.00  0.00    -0.023 A  
BRANCH  41  43
HETATM   43  C   UNL     1      -6.001   4.838  72.184  1.00  0.00    -0.017 C  
HETATM   44  H2  UNL     1      -7.140   4.562  70.466  1.00  0.00     0.000 HD 
HETATM   45  H1  UNL     1      -6.848   3.109  71.434  1.00  0.00     0.000 HD 
HETATM   46  N   UNL     1      -6.726   4.110  71.281  1.00  0.00    -0.029 N  
HETATM   47  O   UNL     1      -5.513   4.273  73.158  1.00  0.00    -0.006 OA 
ENDBRANCH  41  43
ENDBRANCH  34  35
ENDBRANCH  30  34
ENDBRANCH  15  30
ENDBRANCH  12  13
ENDBRANCH   6  12
ENDBRANCH   2   3
TORSDOF 10
ENDMDL
MODEL      261
REMARK 921   NORMALIZED FREE ENERGY PREDICTED BY IDOCK:    0.63 KCAL/MOL
REMARK 922        TOTAL FREE ENERGY PREDICTED BY IDOCK:   -1.88 KCAL/MOL
REMARK 923 INTER-LIGAND FREE ENERGY PREDICTED BY IDOCK:   -6.50 KCAL/MOL
REMARK 924 INTRA-LIGAND FREE ENERGY PREDICTED BY IDOCK:    4.62 KCAL/MOL
REMARK 927      BINDING AFFINITY PREDICTED BY RF-SCORE:    0.00 PKD
ROOT
HETATM    1  C   UNL     1      -6.581  17.616  67.646  1.00  0.00    -0.174 C  
HETATM    2  O   UNL     1      -6.123  16.263  67.680  1.00  0.00    -0.124 OA 
ENDROOT
BRANCH   2   3
HETATM    3  C   UNL     1      -7.080  15.281  67.616  1.00  0.00    -0.182 A  
HETATM    4  C   UNL     1      -7.923  15.088  66.518  1.00  0.00     0.359 A  
HETATM    5  C   UNL     1      -8.808  14.006  66.476  1.00  0.00    -0.048 A  
HETATM    6  C   UNL     1      -8.905  13.106  67.541  1.00  0.00    -0.199 A  
HETATM    7  C   UNL     1      -8.102  13.334  68.670  1.00  0.00    -0.028 A  
HETATM    8  C   UNL     1      -6.380  14.536  69.955  1.00  0.00    -0.165 C  
HETATM    9  O   UNL     1      -5.154  15.071  69.781  1.00  0.00    -0.090 OA 
HETATM   10  C   UNL     1      -7.186  14.403  68.709  1.00  0.00    -0.128 A  
HETATM   11  O   UNL     1      -6.776  14.125  71.035  1.00  0.00     0.224 OA 
BRANCH   6  12
HETATM   12  C   UNL     1      -9.810  11.891  67.491  1.00  0.00    -0.188 C  
BRANCH  12  13
HETATM   13  N   UNL     1     -10.471  11.528  68.757  1.00  0.00    -0.206 N  
HETATM   14  O   UNL     1     -11.997  12.010  70.430  1.00  0.00    -0.348 OA 
HETATM   15  C   UNL     1     -11.568  12.246  69.293  1.00  0.00    -0.324 C  
BRANCH  13  16
HETATM   16  C   UNL     1      -9.757  10.581  69.653  1.00  0.00    -0.056 C  
HETATM   17  C   UNL     1     -10.679   9.804  70.612  1.00  0.00    -0.394 C  
BRANCH  16  18
HETATM   18  C   UNL     1      -8.958   9.568  68.860  1.00  0.00    -0.141 A  
HETATM   19  C   UNL     1      -7.250   8.212  68.430  1.00  0.00    -0.093 A  
HETATM   20  C   UNL     1      -8.407   7.735  67.851  1.00  0.00    -0.123 A  
HETATM   21  N   UNL     1      -9.441   8.612  68.088  1.00  0.00    -0.140 NA 
HETATM   22  H   UNL     1     -10.395   8.538  67.735  1.00  0.00     0.000 HD 
HETATM   23  N   UNL     1      -7.606   9.391  69.039  1.00  0.00    -0.073 NA 
BRANCH  20  24
HETATM   24  C   UNL     1      -8.603   6.458  67.178  1.00  0.00    -0.111 A  
HETATM   25  C   UNL     1      -7.960   4.939  65.378  1.00  0.00    -0.100 A  
HETATM   26  C   UNL     1      -8.996   4.076  65.719  1.00  0.00    -0.131 A  
HETATM   27  C   UNL     1      -9.828   4.387  66.796  1.00  0.00    -0.241 A  
HETATM   28  C   UNL     1      -7.765   6.118  66.103  1.00  0.00    -0.099 A  
HETATM   29  C   UNL     1      -9.630   5.568  67.525  1.00  0.00    -0.131 A  
ENDBRANCH  20  24
ENDBRANCH  16  18
ENDBRANCH  13  16
BRANCH  15  30
HETATM   30  C   UNL     1     -12.250  13.334  68.383  1.00  0.00    -0.065 C  
HETATM   31  H2  UNL     1     -12.116  14.827  69.849  1.00  0.00     0.000 HD 
HETATM   32  N   UNL     1     -12.816  14.422  69.228  1.00  0.00    -0.224 NA 
HETATM   33  H1  UNL     1     -13.258  15.126  68.638  1.00  0.00     0.000 HD 
BRANCH  30  34
HETATM   34  C   UNL     1     -11.331  14.034  67.357  1.00  0.00    -0.350 C  
BRANCH  34  35
HETATM   35  C   UNL     1     -11.008  15.506  67.534  1.00  0.00    -0.316 A  
HETATM   36  C   UNL     1     -11.360  15.888  65.008  1.00  0.00    -0.195 C  
HETATM   37  C   UNL     1     -10.312  17.416  68.892  1.00  0.00    -0.340 A  
HETATM   38  C   UNL     1     -10.302  15.225  70.017  1.00  0.00    -0.240 C  
HETATM   39  C   UNL     1     -11.047  16.367  66.405  1.00  0.00     0.181 A  
HETATM   40  C   UNL     1     -10.565  16.035  68.773  1.00  0.00    -0.262 A  
HETATM   41  C   UNL     1     -10.436  18.272  67.802  1.00  0.00    -0.430 A  
HETATM   42  C   UNL     1     -10.784  17.737  66.561  1.00  0.00    -0.111 A  
BRANCH  41  43
HETATM   43  C   UNL     1     -10.174  19.737  67.873  1.00  0.00    -0.444 C  
HETATM   44  H2  UNL     1     -11.077  19.960  69.733  1.00  0.00     0.000 HD 
HETATM   45  H1  UNL     1     -10.413  21.439  69.020  1.00  0.00     0.000 HD 
HETATM   46  N   UNL     1     -10.593  20.436  68.972  1.00  0.00     0.139 N  
HETATM   47  O   UNL     1      -9.594  20.331  66.969  1.00  0.00    -0.390 OA 
ENDBRANCH  41  43
ENDBRANCH  34  35
ENDBRANCH  30  34
ENDBRANCH  15  30
ENDBRANCH  12  13
ENDBRANCH   6  12
ENDBRANCH   2   3
TORSDOF 10
ENDMDL
MODEL      262
REMARK 921   NORMALIZED FREE ENERGY PREDICTED BY IDOCK:    0.76 KCAL/MOL
REMARK 922        TOTAL FREE ENERGY PREDICTED BY IDOCK:   -1.66 KCAL/MOL
REMARK 923 INTER-LIGAND FREE ENERGY PREDICTED BY IDOCK:   -2.48 KCAL/MOL
REMARK 924 INTRA-LIGAND FREE ENERGY PREDICTED BY IDOCK:    0.81 KCAL/MOL
REMARK 927      BINDING AFFINITY PREDICTED BY RF-SCORE:    0.00 PKD
ROOT
HETATM    1  C   UNL     1      -6.786   4.000  65.326  1.00  0.00    -0.048 C  
HETATM    2  O   UNL     1      -7.438   5.017  64.564  1.00  0.00    -0.065 OA 
ENDROOT
BRANCH   2   3
HETATM    3  C   UNL     1      -8.214   5.913  65.257  1.00  0.00    -0.141 A  
HETATM    4  C   UNL     1      -7.695   6.969  66.010  1.00  0.00    -0.099 A  
HETATM    5  C   UNL     1      -8.544   7.905  66.610  1.00  0.00    -0.138 A  
HETATM    6  C   UNL     1      -9.933   7.795  66.508  1.00  0.00    -0.244 A  
HETATM    7  C   UNL     1     -10.456   6.699  65.803  1.00  0.00     1.411 A  
HETATM    8  C   UNL     1     -10.281   4.656  64.440  1.00  0.00     0.289 C  
HETATM    9  O   UNL     1      -9.600   4.186  63.375  1.00  0.00    -0.149 OA 
HETATM   10  C   UNL     1      -9.610   5.768  65.169  1.00  0.00     0.523 A  
HETATM   11  O   UNL     1     -11.393   4.253  64.745  1.00  0.00    -0.302 OA 
BRANCH   6  12
HETATM   12  C   UNL     1     -10.870   8.831  67.096  1.00  0.00     0.008 C  
BRANCH  12  13
HETATM   13  N   UNL     1     -10.806   9.002  68.559  1.00  0.00    -0.083 N  
HETATM   14  O   UNL     1     -10.259  10.289  70.403  1.00  0.00    -0.161 OA 
HETATM   15  C   UNL     1     -10.454  10.223  69.182  1.00  0.00    -0.224 C  
BRANCH  13  16
HETATM   16  C   UNL     1     -10.794   7.769  69.390  1.00  0.00    -0.113 C  
HETATM   17  C   UNL     1     -11.630   6.612  68.812  1.00  0.00     0.127 C  
BRANCH  16  18
HETATM   18  C   UNL     1      -9.383   7.259  69.598  1.00  0.00    -0.153 A  
HETATM   19  C   UNL     1      -7.260   7.362  70.246  1.00  0.00    -0.066 A  
HETATM   20  C   UNL     1      -7.724   6.066  70.309  1.00  0.00    -0.097 A  
HETATM   21  N   UNL     1      -9.024   6.016  69.859  1.00  0.00    -0.140 NA 
HETATM   22  H   UNL     1      -9.599   5.181  69.749  1.00  0.00     0.000 HD 
HETATM   23  N   UNL     1      -8.310   8.103  69.763  1.00  0.00    -0.122 NA 
BRANCH  20  24
HETATM   24  C   UNL     1      -7.042   4.902  70.859  1.00  0.00    -0.051 A  
HETATM   25  C   UNL     1      -6.377   2.568  70.597  1.00  0.00    -0.024 A  
HETATM   26  C   UNL     1      -5.870   2.553  71.893  1.00  0.00    -0.009 A  
HETATM   27  C   UNL     1      -5.929   3.711  72.670  1.00  0.00    -0.008 A  
HETATM   28  C   UNL     1      -6.956   3.733  70.086  1.00  0.00    -0.038 A  
HETATM   29  C   UNL     1      -6.507   4.881  72.155  1.00  0.00    -0.035 A  
ENDBRANCH  20  24
ENDBRANCH  16  18
ENDBRANCH  13  16
BRANCH  15  30
HETATM   30  C   UNL     1     -10.351  11.508  68.278  1.00  0.00    -0.197 C  
HETATM   31  H2  UNL     1     -12.408  11.542  67.873  1.00  0.00     0.000 HD 
HETATM   32  N   UNL     1     -11.525  11.582  67.365  1.00  0.00    -0.481 NA 
HETATM   33  H1  UNL     1     -11.458  12.415  66.779  1.00  0.00     0.000 HD 
BRANCH  30  34
HETATM   34  C   UNL     1     -10.313  12.861  69.024  1.00  0.00     0.040 C  
BRANCH  34  35
HETATM   35  C   UNL     1      -9.824  14.097  68.293  1.00  0.00    -0.235 A  
HETATM   36  C   UNL     1      -7.465  13.742  69.275  1.00  0.00     0.142 C  
HETATM   37  C   UNL     1     -10.191  16.060  66.884  1.00  0.00    -0.280 A  
HETATM   38  C   UNL     1     -12.200  14.772  67.495  1.00  0.00     0.013 C  
HETATM   39  C   UNL     1      -8.462  14.482  68.415  1.00  0.00    -0.163 A  
HETATM   40  C   UNL     1     -10.704  14.943  67.573  1.00  0.00    -0.276 A  
HETATM   41  C   UNL     1      -8.839  16.385  66.935  1.00  0.00    -0.232 A  
HETATM   42  C   UNL     1      -7.987  15.604  67.718  1.00  0.00    -0.157 A  
BRANCH  41  43
HETATM   43  C   UNL     1      -8.248  17.557  66.230  1.00  0.00    -0.240 C  
HETATM   44  H2  UNL     1     -10.033  18.622  66.188  1.00  0.00     0.000 HD 
HETATM   45  H1  UNL     1      -8.641  19.428  65.448  1.00  0.00     0.000 HD 
HETATM   46  N   UNL     1      -9.046  18.626  65.931  1.00  0.00     0.061 N  
HETATM   47  O   UNL     1      -7.063  17.584  65.910  1.00  0.00    -0.320 OA 
ENDBRANCH  41  43
ENDBRANCH  34  35
ENDBRANCH  30  34
ENDBRANCH  15  30
ENDBRANCH  12  13
ENDBRANCH   6  12
ENDBRANCH   2   3
TORSDOF 10
ENDMDL
MODEL      263
REMARK 921   NORMALIZED FREE ENERGY PREDICTED BY IDOCK:    0.85 KCAL/MOL
REMARK 922        TOTAL FREE ENERGY PREDICTED BY IDOCK:   -1.53 KCAL/MOL
REMARK 923 INTER-LIGAND FREE ENERGY PREDICTED BY IDOCK:   -7.60 KCAL/MOL
REMARK 924 INTRA-LIGAND FREE ENERGY PREDICTED BY IDOCK:    6.07 KCAL/MOL
REMARK 927      BINDING AFFINITY PREDICTED BY RF-SCORE:    0.00 PKD
ROOT
HETATM    1  C   UNL     1      -6.622  18.641  68.614  1.00  0.00    -0.257 C  
HETATM    2  O   UNL     1      -6.020  17.424  68.170  1.00  0.00    -0.149 OA 
ENDROOT
BRANCH   2   3
HETATM    3  C   UNL     1      -6.865  16.431  67.744  1.00  0.00    -0.134 A  
HETATM    4  C   UNL     1      -7.557  16.466  66.530  1.00  0.00    -0.258 A  
HETATM    5  C   UNL     1      -8.325  15.376  66.111  1.00  0.00     0.302 A  
HETATM    6  C   UNL     1      -8.457  14.233  66.905  1.00  0.00    -0.133 A  
HETATM    7  C   UNL     1      -7.812  14.221  68.152  1.00  0.00    -0.139 A  
HETATM    8  C   UNL     1      -6.368  15.168  69.907  1.00  0.00    -0.164 C  
HETATM    9  O   UNL     1      -5.187  15.807  70.032  1.00  0.00    -0.116 OA 
HETATM   10  C   UNL     1      -7.011  15.302  68.570  1.00  0.00    -0.113 A  
HETATM   11  O   UNL     1      -6.843  14.475  70.793  1.00  0.00     0.119 OA 
BRANCH   6  12
HETATM   12  C   UNL     1      -9.232  13.014  66.443  1.00  0.00    -0.132 C  
BRANCH  12  13
HETATM   13  N   UNL     1      -9.786  12.161  67.510  1.00  0.00    -0.183 N  
HETATM   14  O   UNL     1     -11.370  11.790  69.156  1.00  0.00    -0.239 OA 
HETATM   15  C   UNL     1     -11.012  12.436  68.163  1.00  0.00    -0.228 C  
BRANCH  13  16
HETATM   16  C   UNL     1      -8.872  11.171  68.137  1.00  0.00    -0.148 C  
HETATM   17  C   UNL     1      -8.062  11.726  69.324  1.00  0.00     0.375 C  
BRANCH  16  18
HETATM   18  C   UNL     1      -9.629   9.953  68.624  1.00  0.00    -0.156 A  
HETATM   19  C   UNL     1     -10.404   7.872  68.536  1.00  0.00    -0.200 A  
HETATM   20  C   UNL     1     -10.226   8.269  69.844  1.00  0.00    -0.201 A  
HETATM   21  N   UNL     1      -9.792   9.575  69.878  1.00  0.00    -0.210 NA 
HETATM   22  H   UNL     1      -9.627  10.140  70.711  1.00  0.00     0.000 HD 
HETATM   23  N   UNL     1     -10.054   8.959  67.773  1.00  0.00    -0.197 NA 
BRANCH  20  24
HETATM   24  C   UNL     1     -10.349   7.454  71.045  1.00  0.00    -0.201 A  
HETATM   25  C   UNL     1     -10.219   7.309  73.479  1.00  0.00    -0.404 A  
HETATM   26  C   UNL     1     -10.424   5.934  73.421  1.00  0.00    -0.263 A  
HETATM   27  C   UNL     1     -10.609   5.316  72.183  1.00  0.00    -0.281 A  
HETATM   28  C   UNL     1     -10.184   8.060  72.301  1.00  0.00    -0.325 A  
HETATM   29  C   UNL     1     -10.577   6.071  71.002  1.00  0.00    -0.305 A  
ENDBRANCH  20  24
ENDBRANCH  16  18
ENDBRANCH  13  16
BRANCH  15  30
HETATM   30  C   UNL     1     -11.927  13.569  67.565  1.00  0.00    -0.346 C  
HETATM   31  H2  UNL     1     -11.814  14.748  69.294  1.00  0.00     0.000 HD 
HETATM   32  N   UNL     1     -12.524  14.374  68.665  1.00  0.00    -0.550 NA 
HETATM   33  H1  UNL     1     -13.117  15.108  68.277  1.00  0.00     0.000 HD 
BRANCH  30  34
HETATM   34  C   UNL     1     -11.228  14.584  66.633  1.00  0.00    -0.346 C  
BRANCH  34  35
HETATM   35  C   UNL     1     -10.963  15.991  67.135  1.00  0.00    -0.183 A  
HETATM   36  C   UNL     1     -11.028  16.869  64.711  1.00  0.00     0.079 C  
HETATM   37  C   UNL     1     -10.476  17.593  68.917  1.00  0.00    -0.256 A  
HETATM   38  C   UNL     1     -10.544  15.221  69.579  1.00  0.00    -0.272 C  
HETATM   39  C   UNL     1     -10.892  17.060  66.203  1.00  0.00     0.020 A  
HETATM   40  C   UNL     1     -10.681  16.263  68.498  1.00  0.00    -0.307 A  
HETATM   41  C   UNL     1     -10.493  18.649  68.012  1.00  0.00    -0.395 A  
HETATM   42  C   UNL     1     -10.681  18.371  66.656  1.00  0.00    -0.249 A  
BRANCH  41  43
HETATM   43  C   UNL     1     -10.277  20.070  68.402  1.00  0.00    -0.379 C  
HETATM   44  H2  UNL     1     -10.186  20.751  66.439  1.00  0.00     0.000 HD 
HETATM   45  H1  UNL     1      -9.992  21.989  67.691  1.00  0.00     0.000 HD 
HETATM   46  N   UNL     1     -10.140  21.016  67.424  1.00  0.00    -0.019 N  
HETATM   47  O   UNL     1     -10.217  20.411  69.579  1.00  0.00    -0.054 OA 
ENDBRANCH  41  43
ENDBRANCH  34  35
ENDBRANCH  30  34
ENDBRANCH  15  30
ENDBRANCH  12  13
ENDBRANCH   6  12
ENDBRANCH   2   3
TORSDOF 10
ENDMDL
MODEL      264
REMARK 921   NORMALIZED FREE ENERGY PREDICTED BY IDOCK:    1.21 KCAL/MOL
REMARK 922        TOTAL FREE ENERGY PREDICTED BY IDOCK:   -0.95 KCAL/MOL
REMARK 923 INTER-LIGAND FREE ENERGY PREDICTED BY IDOCK:   -2.82 KCAL/MOL
REMARK 924 INTRA-LIGAND FREE ENERGY PREDICTED BY IDOCK:    1.86 KCAL/MOL
REMARK 927      BINDING AFFINITY PREDICTED BY RF-SCORE:    0.00 PKD
ROOT
HETATM    1  C   UNL     1      -7.302  10.132  71.680  1.00  0.00     2.125 C  
HETATM    2  O   UNL     1      -8.112  10.768  70.689  1.00  0.00     0.964 OA 
ENDROOT
BRANCH   2   3
HETATM    3  C   UNL     1      -8.387  10.046  69.554  1.00  0.00    -0.172 A  
HETATM    4  C   UNL     1      -9.564   9.318  69.362  1.00  0.00    -0.170 A  
HETATM    5  C   UNL     1      -9.825   8.686  68.143  1.00  0.00    -0.192 A  
HETATM    6  C   UNL     1      -8.905   8.730  67.091  1.00  0.00    -0.137 A  
HETATM    7  C   UNL     1      -7.695   9.410  67.304  1.00  0.00    -0.091 A  
HETATM    8  C   UNL     1      -6.123  10.772  68.622  1.00  0.00    -0.039 C  
HETATM    9  O   UNL     1      -6.124  11.863  69.414  1.00  0.00    -0.077 OA 
HETATM   10  C   UNL     1      -7.436  10.075  68.518  1.00  0.00    -0.086 A  
HETATM   11  O   UNL     1      -5.145  10.420  67.981  1.00  0.00    -0.035 OA 
BRANCH   6  12
HETATM   12  C   UNL     1      -9.194   8.107  65.740  1.00  0.00    -0.034 C  
BRANCH  12  13
HETATM   13  N   UNL     1      -8.063   8.063  64.796  1.00  0.00    -0.146 N  
HETATM   14  O   UNL     1      -5.993   7.222  64.187  1.00  0.00    -0.036 OA 
HETATM   15  C   UNL     1      -7.001   7.132  64.901  1.00  0.00    -0.055 C  
BRANCH  13  16
HETATM   16  C   UNL     1      -7.870   9.238  63.906  1.00  0.00    -0.130 C  
HETATM   17  C   UNL     1      -8.078   8.936  62.410  1.00  0.00    -0.155 C  
BRANCH  16  18
HETATM   18  C   UNL     1      -8.800  10.373  64.282  1.00  0.00    -0.208 A  
HETATM   19  C   UNL     1     -10.753  11.404  64.525  1.00  0.00    -0.327 A  
HETATM   20  C   UNL     1      -9.848  11.852  65.463  1.00  0.00    -0.232 A  
HETATM   21  N   UNL     1      -8.632  11.237  65.265  1.00  0.00    -0.388 NA 
HETATM   22  H   UNL     1      -7.770  11.415  65.779  1.00  0.00     0.000 HD 
HETATM   23  N   UNL     1     -10.068  10.491  63.762  1.00  0.00    -0.268 NA 
BRANCH  20  24
HETATM   24  C   UNL     1     -10.099  12.747  66.585  1.00  0.00    -0.248 A  
HETATM   25  C   UNL     1      -9.294  14.544  68.027  1.00  0.00    -0.201 A  
HETATM   26  C   UNL     1     -10.427  14.428  68.826  1.00  0.00    -0.244 A  
HETATM   27  C   UNL     1     -11.406  13.488  68.502  1.00  0.00    -0.327 A  
HETATM   28  C   UNL     1      -9.134  13.712  66.916  1.00  0.00    -0.249 A  
HETATM   29  C   UNL     1     -11.247  12.655  67.385  1.00  0.00    -0.337 A  
ENDBRANCH  20  24
ENDBRANCH  16  18
ENDBRANCH  13  16
BRANCH  15  30
HETATM   30  C   UNL     1      -7.157   5.951  65.931  1.00  0.00    -0.074 C  
HETATM   31  H2  UNL     1      -5.439   6.493  67.003  1.00  0.00     0.000 HD 
HETATM   32  N   UNL     1      -5.846   5.662  66.574  1.00  0.00    -0.017 NA 
HETATM   33  H1  UNL     1      -5.947   4.898  67.242  1.00  0.00     0.000 HD 
BRANCH  30  34
HETATM   34  C   UNL     1      -8.151   6.190  67.090  1.00  0.00    -0.106 C  
BRANCH  34  35
HETATM   35  C   UNL     1      -8.307   5.128  68.163  1.00  0.00    -0.097 A  
HETATM   36  C   UNL     1      -7.377   6.769  69.922  1.00  0.00    -0.089 C  
HETATM   37  C   UNL     1      -8.864   2.864  68.896  1.00  0.00    -0.155 A  
HETATM   38  C   UNL     1      -8.945   3.269  66.467  1.00  0.00    -0.161 C  
HETATM   39  C   UNL     1      -7.949   5.436  69.503  1.00  0.00    -0.089 A  
HETATM   40  C   UNL     1      -8.701   3.802  67.856  1.00  0.00    -0.124 A  
HETATM   41  C   UNL     1      -8.596   3.195  70.220  1.00  0.00    -0.108 A  
HETATM   42  C   UNL     1      -8.120   4.475  70.511  1.00  0.00    -0.067 A  
BRANCH  41  43
HETATM   43  C   UNL     1      -8.746   2.240  71.353  1.00  0.00    -0.065 C  
HETATM   44  H2  UNL     1      -6.782   1.566  71.241  1.00  0.00     0.000 HD 
HETATM   45  H1  UNL     1      -7.777   0.826  72.506  1.00  0.00     0.000 HD 
HETATM   46  N   UNL     1      -7.674   1.480  71.730  1.00  0.00    -0.040 N  
HETATM   47  O   UNL     1      -9.809   2.120  71.955  1.00  0.00    -0.130 OA 
ENDBRANCH  41  43
ENDBRANCH  34  35
ENDBRANCH  30  34
ENDBRANCH  15  30
ENDBRANCH  12  13
ENDBRANCH   6  12
ENDBRANCH   2   3
TORSDOF 10
ENDMDL
MODEL      265
REMARK 921   NORMALIZED FREE ENERGY PREDICTED BY IDOCK:    1.29 KCAL/MOL
REMARK 922        TOTAL FREE ENERGY PREDICTED BY IDOCK:   -0.83 KCAL/MOL
REMARK 923 INTER-LIGAND FREE ENERGY PREDICTED BY IDOCK:   -6.27 KCAL/MOL
REMARK 924 INTRA-LIGAND FREE ENERGY PREDICTED BY IDOCK:    5.44 KCAL/MOL
REMARK 927      BINDING AFFINITY PREDICTED BY RF-SCORE:    0.00 PKD
ROOT
HETATM    1  C   UNL     1      -6.906   9.539  72.031  1.00  0.00     0.634 C  
HETATM    2  O   UNL     1      -7.883  10.041  71.118  1.00  0.00     0.085 OA 
ENDROOT
BRANCH   2   3
HETATM    3  C   UNL     1      -8.336   9.176  70.153  1.00  0.00    -0.165 A  
HETATM    4  C   UNL     1      -9.664   9.120  69.721  1.00  0.00    -0.191 A  
HETATM    5  C   UNL     1     -10.039   8.284  68.665  1.00  0.00    -0.212 A  
HETATM    6  C   UNL     1      -9.110   7.453  68.032  1.00  0.00    -0.130 A  
HETATM    7  C   UNL     1      -7.788   7.463  68.506  1.00  0.00    -0.122 A  
HETATM    8  C   UNL     1      -5.963   8.254  69.957  1.00  0.00    -0.025 C  
HETATM    9  O   UNL     1      -5.453   9.409  70.430  1.00  0.00    -0.030 OA 
HETATM   10  C   UNL     1      -7.394   8.323  69.550  1.00  0.00    -0.074 A  
HETATM   11  O   UNL     1      -5.290   7.246  69.807  1.00  0.00    -0.021 OA 
BRANCH   6  12
HETATM   12  C   UNL     1      -9.480   6.587  66.844  1.00  0.00    -0.152 C  
BRANCH  12  13
HETATM   13  N   UNL     1      -8.372   6.226  65.940  1.00  0.00    -0.135 N  
HETATM   14  O   UNL     1      -6.474   4.977  65.498  1.00  0.00    -0.034 OA 
HETATM   15  C   UNL     1      -7.483   5.154  66.194  1.00  0.00    -0.086 C  
BRANCH  13  16
HETATM   16  C   UNL     1      -7.985   7.220  64.905  1.00  0.00    -0.127 C  
HETATM   17  C   UNL     1      -8.529   6.907  63.498  1.00  0.00     0.343 C  
BRANCH  16  18
HETATM   18  C   UNL     1      -8.446   8.614  65.279  1.00  0.00    -0.179 A  
HETATM   19  C   UNL     1      -8.222  10.785  65.695  1.00  0.00    -0.127 A  
HETATM   20  C   UNL     1      -9.484  10.511  65.213  1.00  0.00    -0.229 A  
HETATM   21  N   UNL     1      -9.618   9.156  65.007  1.00  0.00    -0.422 NA 
HETATM   22  H   UNL     1     -10.460   8.667  64.704  1.00  0.00     0.000 HD 
HETATM   23  N   UNL     1      -7.585   9.570  65.763  1.00  0.00    -0.099 NA 
BRANCH  20  24
HETATM   24  C   UNL     1     -10.523  11.464  64.848  1.00  0.00    -0.363 A  
HETATM   25  C   UNL     1     -12.274  13.004  65.570  1.00  0.00    -0.521 A  
HETATM   26  C   UNL     1     -12.650  13.218  64.247  1.00  0.00    -0.253 A  
HETATM   27  C   UNL     1     -11.958  12.573  63.221  1.00  0.00    -0.516 A  
HETATM   28  C   UNL     1     -11.219  12.137  65.865  1.00  0.00    -0.384 A  
HETATM   29  C   UNL     1     -10.897  11.705  63.518  1.00  0.00    -0.497 A  
ENDBRANCH  20  24
ENDBRANCH  16  18
ENDBRANCH  13  16
BRANCH  15  30
HETATM   30  C   UNL     1      -7.833   4.169  67.371  1.00  0.00    -0.091 C  
HETATM   31  H2  UNL     1      -6.358   4.953  68.636  1.00  0.00     0.000 HD 
HETATM   32  N   UNL     1      -6.672   4.046  68.294  1.00  0.00    -0.046 NA 
HETATM   33  H1  UNL     1      -6.900   3.407  69.056  1.00  0.00     0.000 HD 
BRANCH  30  34
HETATM   34  C   UNL     1      -9.034   4.571  68.256  1.00  0.00    -0.143 C  
BRANCH  34  35
HETATM   35  C   UNL     1      -9.288   3.816  69.548  1.00  0.00    -0.249 A  
HETATM   36  C   UNL     1      -9.322   6.045  70.844  1.00  0.00    -0.175 C  
HETATM   37  C   UNL     1      -9.553   1.748  70.825  1.00  0.00    -0.162 A  
HETATM   38  C   UNL     1      -8.958   1.487  68.448  1.00  0.00    -0.157 C  
HETATM   39  C   UNL     1      -9.439   4.542  70.759  1.00  0.00    -0.238 A  
HETATM   40  C   UNL     1      -9.278   2.400  69.606  1.00  0.00    -0.192 A  
HETATM   41  C   UNL     1      -9.787   2.466  71.993  1.00  0.00    -0.223 A  
HETATM   42  C   UNL     1      -9.708   3.859  71.955  1.00  0.00    -0.232 A  
BRANCH  41  43
HETATM   43  C   UNL     1     -10.077   1.826  73.307  1.00  0.00    -0.094 C  
HETATM   44  H2  UNL     1     -12.139   1.862  73.038  1.00  0.00     0.000 HD 
HETATM   45  H1  UNL     1     -11.576   1.160  74.563  1.00  0.00     0.000 HD 
HETATM   46  N   UNL     1     -11.378   1.598  73.664  1.00  0.00    -0.174 N  
HETATM   47  O   UNL     1      -9.178   1.501  74.076  1.00  0.00    -0.060 OA 
ENDBRANCH  41  43
ENDBRANCH  34  35
ENDBRANCH  30  34
ENDBRANCH  15  30
ENDBRANCH  12  13
ENDBRANCH   6  12
ENDBRANCH   2   3
TORSDOF 10
ENDMDL
MODEL      266
REMARK 921   NORMALIZED FREE ENERGY PREDICTED BY IDOCK:    1.58 KCAL/MOL
REMARK 922        TOTAL FREE ENERGY PREDICTED BY IDOCK:   -0.36 KCAL/MOL
REMARK 923 INTER-LIGAND FREE ENERGY PREDICTED BY IDOCK:   -1.75 KCAL/MOL
REMARK 924 INTRA-LIGAND FREE ENERGY PREDICTED BY IDOCK:    1.39 KCAL/MOL
REMARK 927      BINDING AFFINITY PREDICTED BY RF-SCORE:    0.00 PKD
ROOT
HETATM    1  C   UNL     1      -9.633   5.922  69.921  1.00  0.00    -0.158 C  
HETATM    2  O   UNL     1     -10.770   6.576  69.355  1.00  0.00    -0.226 OA 
ENDROOT
BRANCH   2   3
HETATM    3  C   UNL     1     -10.710   7.943  69.244  1.00  0.00    -0.135 A  
HETATM    4  C   UNL     1     -10.627   8.620  68.024  1.00  0.00    -0.205 A  
HETATM    5  C   UNL     1     -10.671  10.017  67.977  1.00  0.00    -0.303 A  
HETATM    6  C   UNL     1     -10.760  10.780  69.144  1.00  0.00    -0.265 A  
HETATM    7  C   UNL     1     -10.781  10.102  70.373  1.00  0.00    -0.329 A  
HETATM    8  C   UNL     1     -10.808   8.089  71.791  1.00  0.00    -0.242 C  
HETATM    9  O   UNL     1     -11.416   6.887  71.857  1.00  0.00    -0.251 OA 
HETATM   10  C   UNL     1     -10.769   8.695  70.430  1.00  0.00    -0.248 A  
HETATM   11  O   UNL     1     -10.384   8.672  72.777  1.00  0.00    -0.177 OA 
BRANCH   6  12
HETATM   12  C   UNL     1     -10.872  12.292  69.113  1.00  0.00    -0.099 C  
BRANCH  12  13
HETATM   13  N   UNL     1      -9.615  13.035  69.315  1.00  0.00     0.605 N  
HETATM   14  O   UNL     1      -8.515  15.006  69.828  1.00  0.00    -0.102 OA 
HETATM   15  C   UNL     1      -9.570  14.358  69.818  1.00  0.00     0.633 C  
BRANCH  13  16
HETATM   16  C   UNL     1      -8.392  12.497  68.665  1.00  0.00     0.021 C  
HETATM   17  C   UNL     1      -7.874  11.186  69.286  1.00  0.00    -0.007 C  
BRANCH  16  18
HETATM   18  C   UNL     1      -8.615  12.251  67.187  1.00  0.00    -0.187 A  
HETATM   19  C   UNL     1      -8.602  11.085  65.296  1.00  0.00    -0.046 A  
HETATM   20  C   UNL     1      -9.610  12.026  65.279  1.00  0.00    -0.100 A  
HETATM   21  N   UNL     1      -9.570  12.769  66.438  1.00  0.00    -0.256 NA 
HETATM   22  H   UNL     1     -10.165  13.564  66.671  1.00  0.00     0.000 HD 
HETATM   23  N   UNL     1      -7.958  11.260  66.496  1.00  0.00    -0.158 NA 
BRANCH  20  24
HETATM   24  C   UNL     1     -10.656  12.190  64.279  1.00  0.00    -0.385 A  
HETATM   25  C   UNL     1     -12.193  13.682  63.108  1.00  0.00     0.107 A  
HETATM   26  C   UNL     1     -12.781  12.595  62.468  1.00  0.00     1.787 A  
HETATM   27  C   UNL     1     -12.302  11.308  62.715  1.00  0.00     1.141 A  
HETATM   28  C   UNL     1     -11.140  13.480  64.003  1.00  0.00    -0.210 A  
HETATM   29  C   UNL     1     -11.242  11.105  63.611  1.00  0.00    -0.034 A  
ENDBRANCH  20  24
ENDBRANCH  16  18
ENDBRANCH  13  16
BRANCH  15  30
HETATM   30  C   UNL     1     -10.899  14.971  70.399  1.00  0.00    -0.149 C  
HETATM   31  H2  UNL     1      -9.914  15.925  71.985  1.00  0.00     0.000 HD 
HETATM   32  N   UNL     1     -10.715  15.312  71.837  1.00  0.00    -0.172 NA 
HETATM   33  H1  UNL     1     -11.576  15.709  72.212  1.00  0.00     0.000 HD 
BRANCH  30  34
HETATM   34  C   UNL     1     -11.401  16.265  69.721  1.00  0.00    -0.265 C  
BRANCH  34  35
HETATM   35  C   UNL     1     -10.501  16.982  68.733  1.00  0.00    -0.347 A  
HETATM   36  C   UNL     1     -10.123  18.871  70.448  1.00  0.00     1.481 C  
HETATM   37  C   UNL     1      -9.450  17.207  66.537  1.00  0.00    -0.290 A  
HETATM   38  C   UNL     1     -11.038  15.341  66.794  1.00  0.00    -0.278 C  
HETATM   39  C   UNL     1      -9.891  18.208  69.111  1.00  0.00    -0.167 A  
HETATM   40  C   UNL     1     -10.326  16.522  67.403  1.00  0.00    -0.290 A  
HETATM   41  C   UNL     1      -8.787  18.362  66.940  1.00  0.00    -0.281 A  
HETATM   42  C   UNL     1      -9.029  18.865  68.220  1.00  0.00    -0.364 A  
BRANCH  41  43
HETATM   43  C   UNL     1      -7.857  19.125  66.062  1.00  0.00    -0.235 C  
HETATM   44  H2  UNL     1      -8.498  20.982  66.745  1.00  0.00     0.000 HD 
HETATM   45  H1  UNL     1      -7.227  21.014  65.512  1.00  0.00     0.000 HD 
HETATM   46  N   UNL     1      -7.864  20.492  66.113  1.00  0.00    -0.043 N  
HETATM   47  O   UNL     1      -7.087  18.557  65.294  1.00  0.00    -0.521 OA 
ENDBRANCH  41  43
ENDBRANCH  34  35
ENDBRANCH  30  34
ENDBRANCH  15  30
ENDBRANCH  12  13
ENDBRANCH   6  12
ENDBRANCH   2   3
TORSDOF 10
ENDMDL
MODEL      267
REMARK 921   NORMALIZED FREE ENERGY PREDICTED BY IDOCK:    1.62 KCAL/MOL
REMARK 922        TOTAL FREE ENERGY PREDICTED BY IDOCK:   -0.30 KCAL/MOL
REMARK 923 INTER-LIGAND FREE ENERGY PREDICTED BY IDOCK:   -3.50 KCAL/MOL
REMARK 924 INTRA-LIGAND FREE ENERGY PREDICTED BY IDOCK:    3.20 KCAL/MOL
REMARK 927      BINDING AFFINITY PREDICTED BY RF-SCORE:    0.00 PKD
ROOT
HETATM    1  C   UNL     1      -7.026  20.051  65.149  1.00  0.00    -0.209 C  
HETATM    2  O   UNL     1      -7.917  19.200  65.873  1.00  0.00    -0.435 OA 
ENDROOT
BRANCH   2   3
HETATM    3  C   UNL     1      -7.458  17.946  66.192  1.00  0.00    -0.280 A  
HETATM    4  C   UNL     1      -6.156  17.683  66.626  1.00  0.00    -0.221 A  
HETATM    5  C   UNL     1      -5.782  16.397  67.030  1.00  0.00    -0.068 A  
HETATM    6  C   UNL     1      -6.683  15.330  66.978  1.00  0.00     0.302 A  
HETATM    7  C   UNL     1      -7.972  15.581  66.484  1.00  0.00    -0.009 A  
HETATM    8  C   UNL     1      -9.766  17.023  65.607  1.00  0.00     0.073 C  
HETATM    9  O   UNL     1     -10.330  18.223  65.850  1.00  0.00    -0.540 OA 
HETATM   10  C   UNL     1      -8.368  16.878  66.103  1.00  0.00    -0.286 A  
HETATM   11  O   UNL     1     -10.371  16.100  65.085  1.00  0.00    -0.560 OA 
BRANCH   6  12
HETATM   12  C   UNL     1      -6.319  13.942  67.470  1.00  0.00    -0.029 C  
BRANCH  12  13
HETATM   13  N   UNL     1      -6.827  13.579  68.805  1.00  0.00    -0.103 N  
HETATM   14  O   UNL     1      -8.151  12.234  70.145  1.00  0.00     2.143 OA 
HETATM   15  C   UNL     1      -7.613  12.426  69.047  1.00  0.00     0.121 C  
BRANCH  13  16
HETATM   16  C   UNL     1      -6.784  14.624  69.860  1.00  0.00    -0.157 C  
HETATM   17  C   UNL     1      -5.742  15.730  69.609  1.00  0.00    -0.129 C  
BRANCH  16  18
HETATM   18  C   UNL     1      -8.133  15.292  70.029  1.00  0.00     0.300 A  
HETATM   19  C   UNL     1      -9.980  16.337  69.370  1.00  0.00    -0.232 A  
HETATM   20  C   UNL     1     -10.224  15.588  70.501  1.00  0.00     0.127 A  
HETATM   21  N   UNL     1      -9.058  14.988  70.920  1.00  0.00     1.219 NA 
HETATM   22  H   UNL     1      -8.933  14.418  71.757  1.00  0.00     0.000 HD 
HETATM   23  N   UNL     1      -8.645  16.168  69.100  1.00  0.00    -0.249 NA 
BRANCH  20  24
HETATM   24  C   UNL     1     -11.508  15.334  71.141  1.00  0.00    -0.414 A  
HETATM   25  C   UNL     1     -13.942  15.272  70.959  1.00  0.00    -0.368 A  
HETATM   26  C   UNL     1     -14.050  15.006  72.321  1.00  0.00    -0.612 A  
HETATM   27  C   UNL     1     -12.894  14.886  73.093  1.00  0.00    -0.619 A  
HETATM   28  C   UNL     1     -12.682  15.432  70.376  1.00  0.00    -0.407 A  
HETATM   29  C   UNL     1     -11.630  15.044  72.507  1.00  0.00    -0.348 A  
ENDBRANCH  20  24
ENDBRANCH  16  18
ENDBRANCH  13  16
BRANCH  15  30
HETATM   30  C   UNL     1      -7.754  11.373  67.885  1.00  0.00    -0.114 C  
HETATM   31  H2  UNL     1      -9.846  11.319  68.018  1.00  0.00     0.000 HD 
HETATM   32  N   UNL     1      -9.061  10.668  67.994  1.00  0.00    -0.144 NA 
HETATM   33  H1  UNL     1      -9.152   9.987  67.240  1.00  0.00     0.000 HD 
BRANCH  30  34
HETATM   34  C   UNL     1      -7.700  11.939  66.448  1.00  0.00     0.198 C  
BRANCH  34  35
HETATM   35  C   UNL     1      -8.980  12.029  65.638  1.00  0.00     0.168 A  
HETATM   36  C   UNL     1     -10.035  13.507  67.470  1.00  0.00    -0.230 C  
HETATM   37  C   UNL     1     -10.363  11.436  63.712  1.00  0.00    -0.447 A  
HETATM   38  C   UNL     1      -8.185  10.297  63.875  1.00  0.00    -0.152 C  
HETATM   39  C   UNL     1     -10.066  12.796  66.138  1.00  0.00    -0.274 A  
HETATM   40  C   UNL     1      -9.168  11.289  64.444  1.00  0.00    -0.065 A  
HETATM   41  C   UNL     1     -11.392  12.257  64.162  1.00  0.00    -0.442 A  
HETATM   42  C   UNL     1     -11.243  12.916  65.384  1.00  0.00    -0.314 A  
BRANCH  41  43
HETATM   43  C   UNL     1     -12.676  12.442  63.430  1.00  0.00    -0.266 C  
HETATM   44  H2  UNL     1     -13.505  10.667  64.129  1.00  0.00     0.000 HD 
HETATM   45  H1  UNL     1     -14.532  11.620  63.046  1.00  0.00     0.000 HD 
HETATM   46  N   UNL     1     -13.653  11.493  63.547  1.00  0.00     0.867 N  
HETATM   47  O   UNL     1     -12.877  13.426  62.723  1.00  0.00    -0.294 OA 
ENDBRANCH  41  43
ENDBRANCH  34  35
ENDBRANCH  30  34
ENDBRANCH  15  30
ENDBRANCH  12  13
ENDBRANCH   6  12
ENDBRANCH   2   3
TORSDOF 10
ENDMDL
MODEL      268
REMARK 921   NORMALIZED FREE ENERGY PREDICTED BY IDOCK:    1.72 KCAL/MOL
REMARK 922        TOTAL FREE ENERGY PREDICTED BY IDOCK:   -0.15 KCAL/MOL
REMARK 923 INTER-LIGAND FREE ENERGY PREDICTED BY IDOCK:   -6.88 KCAL/MOL
REMARK 924 INTRA-LIGAND FREE ENERGY PREDICTED BY IDOCK:    6.73 KCAL/MOL
REMARK 927      BINDING AFFINITY PREDICTED BY RF-SCORE:    0.00 PKD
ROOT
HETATM    1  C   UNL     1     -11.481  13.905  62.860  1.00  0.00     2.200 C  
HETATM    2  O   UNL     1     -11.491  12.481  62.755  1.00  0.00     0.127 OA 
ENDROOT
BRANCH   2   3
HETATM    3  C   UNL     1     -11.168  11.772  63.885  1.00  0.00    -0.414 A  
HETATM    4  C   UNL     1     -10.249  10.719  63.906  1.00  0.00    -0.377 A  
HETATM    5  C   UNL     1      -9.891  10.104  65.110  1.00  0.00    -0.394 A  
HETATM    6  C   UNL     1     -10.465  10.495  66.323  1.00  0.00    -0.250 A  
HETATM    7  C   UNL     1     -11.434  11.511  66.295  1.00  0.00    -0.124 A  
HETATM    8  C   UNL     1     -12.810  13.228  65.190  1.00  0.00    -0.310 C  
HETATM    9  O   UNL     1     -12.685  14.218  64.283  1.00  0.00    -0.660 OA 
HETATM   10  C   UNL     1     -11.779  12.157  65.092  1.00  0.00    -0.366 A  
HETATM   11  O   UNL     1     -13.657  13.240  66.071  1.00  0.00     0.518 OA 
BRANCH   6  12
HETATM   12  C   UNL     1     -10.046   9.886  67.647  1.00  0.00    -0.197 C  
BRANCH  12  13
HETATM   13  N   UNL     1      -8.601   9.907  67.936  1.00  0.00    -0.125 N  
HETATM   14  O   UNL     1      -6.640  11.094  68.261  1.00  0.00    -0.057 OA 
HETATM   15  C   UNL     1      -7.875  11.098  68.176  1.00  0.00    -0.118 C  
BRANCH  13  16
HETATM   16  C   UNL     1      -7.829   8.671  67.644  1.00  0.00    -0.103 C  
HETATM   17  C   UNL     1      -6.409   8.928  67.107  1.00  0.00    -0.060 C  
BRANCH  16  18
HETATM   18  C   UNL     1      -7.705   7.795  68.874  1.00  0.00    -0.113 A  
HETATM   19  C   UNL     1      -6.878   7.144  70.831  1.00  0.00    -0.053 A  
HETATM   20  C   UNL     1      -8.202   6.775  70.717  1.00  0.00    -0.123 A  
HETATM   21  N   UNL     1      -8.681   7.144  69.480  1.00  0.00    -0.134 NA 
HETATM   22  H   UNL     1      -9.610   6.953  69.105  1.00  0.00     0.000 HD 
HETATM   23  N   UNL     1      -6.567   7.760  69.644  1.00  0.00    -0.035 NA 
BRANCH  20  24
HETATM   24  C   UNL     1      -9.053   6.187  71.742  1.00  0.00    -0.145 A  
HETATM   25  C   UNL     1      -9.572   4.270  73.162  1.00  0.00    -0.147 A  
HETATM   26  C   UNL     1     -10.723   4.905  73.620  1.00  0.00    -0.352 A  
HETATM   27  C   UNL     1     -11.035   6.184  73.159  1.00  0.00    -0.258 A  
HETATM   28  C   UNL     1      -8.745   4.908  72.233  1.00  0.00    -0.128 A  
HETATM   29  C   UNL     1     -10.203   6.825  72.229  1.00  0.00    -0.210 A  
ENDBRANCH  20  24
ENDBRANCH  16  18
ENDBRANCH  13  16
BRANCH  15  30
HETATM   30  C   UNL     1      -8.692  12.431  68.368  1.00  0.00    -0.132 C  
HETATM   31  H2  UNL     1      -8.257  13.124  66.438  1.00  0.00     0.000 HD 
HETATM   32  N   UNL     1      -8.221  13.460  67.400  1.00  0.00    -0.181 NA 
HETATM   33  H1  UNL     1      -8.750  14.323  67.525  1.00  0.00     0.000 HD 
BRANCH  30  34
HETATM   34  C   UNL     1     -10.219  12.327  68.161  1.00  0.00    -0.212 C  
BRANCH  34  35
HETATM   35  C   UNL     1     -11.150  12.962  69.176  1.00  0.00    -0.245 A  
HETATM   36  C   UNL     1     -11.801  10.623  70.044  1.00  0.00    -0.403 C  
HETATM   37  C   UNL     1     -12.250  14.900  70.182  1.00  0.00    -0.387 A  
HETATM   38  C   UNL     1     -10.852  15.351  68.204  1.00  0.00    -0.285 C  
HETATM   39  C   UNL     1     -11.875  12.131  70.070  1.00  0.00    -0.383 A  
HETATM   40  C   UNL     1     -11.402  14.357  69.195  1.00  0.00    -0.308 A  
HETATM   41  C   UNL     1     -12.891  14.089  71.113  1.00  0.00    -0.427 A  
HETATM   42  C   UNL     1     -12.714  12.706  71.037  1.00  0.00    -0.316 A  
BRANCH  41  43
HETATM   43  C   UNL     1     -13.800  14.612  72.171  1.00  0.00    -0.468 C  
HETATM   44  H2  UNL     1     -13.478  16.605  71.673  1.00  0.00     0.000 HD 
HETATM   45  H1  UNL     1     -14.591  16.321  73.021  1.00  0.00     0.000 HD 
HETATM   46  N   UNL     1     -13.968  15.963  72.297  1.00  0.00    -0.341 N  
HETATM   47  O   UNL     1     -14.399  13.859  72.932  1.00  0.00    -0.389 OA 
ENDBRANCH  41  43
ENDBRANCH  34  35
ENDBRANCH  30  34
ENDBRANCH  15  30
ENDBRANCH  12  13
ENDBRANCH   6  12
ENDBRANCH   2   3
TORSDOF 10
ENDMDL
MODEL      269
REMARK 921   NORMALIZED FREE ENERGY PREDICTED BY IDOCK:    1.96 KCAL/MOL
REMARK 922        TOTAL FREE ENERGY PREDICTED BY IDOCK:    0.24 KCAL/MOL
REMARK 923 INTER-LIGAND FREE ENERGY PREDICTED BY IDOCK:   -1.70 KCAL/MOL
REMARK 924 INTRA-LIGAND FREE ENERGY PREDICTED BY IDOCK:    1.94 KCAL/MOL
REMARK 927      BINDING AFFINITY PREDICTED BY RF-SCORE:    0.00 PKD
ROOT
HETATM    1  C   UNL     1     -11.149   7.597  66.796  1.00  0.00     0.614 C  
HETATM    2  O   UNL     1     -10.922   8.939  66.362  1.00  0.00     0.318 OA 
ENDROOT
BRANCH   2   3
HETATM    3  C   UNL     1     -10.212   9.754  67.207  1.00  0.00    -0.232 A  
HETATM    4  C   UNL     1      -9.119   9.326  67.964  1.00  0.00    -0.132 A  
HETATM    5  C   UNL     1      -8.378  10.232  68.730  1.00  0.00    -0.125 A  
HETATM    6  C   UNL     1      -8.727  11.584  68.792  1.00  0.00    -0.048 A  
HETATM    7  C   UNL     1      -9.862  12.003  68.081  1.00  0.00    -0.201 A  
HETATM    8  C   UNL     1     -11.773  11.670  66.564  1.00  0.00     0.050 C  
HETATM    9  O   UNL     1     -12.062  11.068  65.393  1.00  0.00     0.752 OA 
HETATM   10  C   UNL     1     -10.597  11.105  67.283  1.00  0.00    -0.279 A  
HETATM   11  O   UNL     1     -12.381  12.647  66.975  1.00  0.00    -0.399 OA 
BRANCH   6  12
HETATM   12  C   UNL     1      -7.902  12.595  69.564  1.00  0.00     0.984 C  
BRANCH  12  13
HETATM   13  N   UNL     1      -6.561  12.880  69.023  1.00  0.00    -0.099 N  
HETATM   14  O   UNL     1      -5.204  13.470  67.243  1.00  0.00    -0.335 OA 
HETATM   15  C   UNL     1      -6.344  13.390  67.720  1.00  0.00    -0.161 C  
BRANCH  13  16
HETATM   16  C   UNL     1      -5.397  12.309  69.748  1.00  0.00    -0.084 C  
HETATM   17  C   UNL     1      -5.480  12.444  71.280  1.00  0.00    -0.016 C  
BRANCH  16  18
HETATM   18  C   UNL     1      -5.212  10.840  69.424  1.00  0.00    -0.037 A  
HETATM   19  C   UNL     1      -5.369   8.650  69.761  1.00  0.00    -0.029 A  
HETATM   20  C   UNL     1      -5.367   8.935  68.412  1.00  0.00    -0.038 A  
HETATM   21  N   UNL     1      -5.221  10.290  68.224  1.00  0.00    -0.035 NA 
HETATM   22  H   UNL     1      -5.136  10.776  67.331  1.00  0.00     0.000 HD 
HETATM   23  N   UNL     1      -5.238   9.863  70.391  1.00  0.00    -0.040 NA 
BRANCH  20  24
HETATM   24  C   UNL     1      -5.592   8.012  67.307  1.00  0.00    -0.037 A  
HETATM   25  C   UNL     1      -5.818   7.668  64.901  1.00  0.00    -0.038 A  
HETATM   26  C   UNL     1      -6.159   6.336  65.110  1.00  0.00    -0.030 A  
HETATM   27  C   UNL     1      -6.202   5.831  66.410  1.00  0.00    -0.034 A  
HETATM   28  C   UNL     1      -5.535   8.497  65.990  1.00  0.00    -0.034 A  
HETATM   29  C   UNL     1      -5.916   6.661  67.503  1.00  0.00    -0.020 A  
ENDBRANCH  20  24
ENDBRANCH  16  18
ENDBRANCH  13  16
BRANCH  15  30
HETATM   30  C   UNL     1      -7.596  13.886  66.905  1.00  0.00     0.482 C  
HETATM   31  H2  UNL     1      -8.357  11.950  66.651  1.00  0.00     0.000 HD 
HETATM   32  N   UNL     1      -8.144  12.771  66.085  1.00  0.00     0.250 NA 
HETATM   33  H1  UNL     1      -8.955  13.094  65.557  1.00  0.00     0.000 HD 
BRANCH  30  34
HETATM   34  C   UNL     1      -8.783  14.416  67.741  1.00  0.00    -0.180 C  
BRANCH  34  35
HETATM   35  C   UNL     1      -8.994  15.913  67.862  1.00  0.00    -0.181 A  
HETATM   36  C   UNL     1     -10.956  15.771  66.193  1.00  0.00    -0.169 C  
HETATM   37  C   UNL     1      -8.375  18.121  68.712  1.00  0.00    -0.227 A  
HETATM   38  C   UNL     1      -6.855  16.270  69.289  1.00  0.00    -0.211 C  
HETATM   39  C   UNL     1     -10.045  16.528  67.131  1.00  0.00    -0.274 A  
HETATM   40  C   UNL     1      -8.113  16.740  68.603  1.00  0.00    -0.251 A  
HETATM   41  C   UNL     1      -9.457  18.706  68.062  1.00  0.00    -0.344 A  
HETATM   42  C   UNL     1     -10.274  17.907  67.259  1.00  0.00    -0.360 A  
BRANCH  41  43
HETATM   43  C   UNL     1      -9.775  20.159  68.140  1.00  0.00    -0.297 C  
HETATM   44  H2  UNL     1      -9.141  20.554  66.199  1.00  0.00     0.000 HD 
HETATM   45  H1  UNL     1      -9.751  21.947  67.105  1.00  0.00     0.000 HD 
HETATM   46  N   UNL     1      -9.533  20.952  67.052  1.00  0.00    -0.261 N  
HETATM   47  O   UNL     1     -10.247  20.661  69.156  1.00  0.00     0.092 OA 
ENDBRANCH  41  43
ENDBRANCH  34  35
ENDBRANCH  30  34
ENDBRANCH  15  30
ENDBRANCH  12  13
ENDBRANCH   6  12
ENDBRANCH   2   3
TORSDOF 10
ENDMDL
MODEL      270
REMARK 921   NORMALIZED FREE ENERGY PREDICTED BY IDOCK:    2.02 KCAL/MOL
REMARK 922        TOTAL FREE ENERGY PREDICTED BY IDOCK:    0.32 KCAL/MOL
REMARK 923 INTER-LIGAND FREE ENERGY PREDICTED BY IDOCK:   -5.34 KCAL/MOL
REMARK 924 INTRA-LIGAND FREE ENERGY PREDICTED BY IDOCK:    5.66 KCAL/MOL
REMARK 927      BINDING AFFINITY PREDICTED BY RF-SCORE:    0.00 PKD
ROOT
HETATM    1  C   UNL     1      -6.432  14.561  71.170  1.00  0.00     0.345 C  
HETATM    2  O   UNL     1      -5.248  13.798  70.930  1.00  0.00    -0.109 OA 
ENDROOT
BRANCH   2   3
HETATM    3  C   UNL     1      -5.400  12.605  70.269  1.00  0.00    -0.125 A  
HETATM    4  C   UNL     1      -5.152  11.358  70.850  1.00  0.00    -0.121 A  
HETATM    5  C   UNL     1      -5.422  10.177  70.153  1.00  0.00    -0.046 A  
HETATM    6  C   UNL     1      -5.912  10.202  68.844  1.00  0.00    -0.037 A  
HETATM    7  C   UNL     1      -6.104  11.454  68.238  1.00  0.00    -0.045 A  
HETATM    8  C   UNL     1      -6.115  13.916  68.198  1.00  0.00    -0.128 C  
HETATM    9  O   UNL     1      -6.505  14.954  68.966  1.00  0.00    -0.095 OA 
HETATM   10  C   UNL     1      -5.864  12.650  68.942  1.00  0.00    -0.071 A  
HETATM   11  O   UNL     1      -6.041  13.983  66.981  1.00  0.00    -0.010 OA 
BRANCH   6  12
HETATM   12  C   UNL     1      -6.272   8.936  68.092  1.00  0.00    -0.051 C  
BRANCH  12  13
HETATM   13  N   UNL     1      -7.214   9.099  66.970  1.00  0.00    -0.089 N  
HETATM   14  O   UNL     1      -8.780   8.197  65.523  1.00  0.00    -0.161 OA 
HETATM   15  C   UNL     1      -8.115   8.086  66.562  1.00  0.00    -0.103 C  
BRANCH  13  16
HETATM   16  C   UNL     1      -6.979  10.235  66.041  1.00  0.00    -0.120 C  
HETATM   17  C   UNL     1      -6.497   9.813  64.640  1.00  0.00    -0.111 C  
BRANCH  16  18
HETATM   18  C   UNL     1      -8.230  11.071  65.866  1.00  0.00    -0.100 A  
HETATM   19  C   UNL     1     -10.402  11.446  65.588  1.00  0.00    -0.257 A  
HETATM   20  C   UNL     1      -9.813  12.490  66.267  1.00  0.00    -0.252 A  
HETATM   21  N   UNL     1      -8.461  12.262  66.387  1.00  0.00    -0.403 NA 
HETATM   22  H   UNL     1      -7.771  12.891  66.798  1.00  0.00     0.000 HD 
HETATM   23  N   UNL     1      -9.383  10.568  65.311  1.00  0.00    -0.197 NA 
BRANCH  20  24
HETATM   24  C   UNL     1     -10.472  13.632  66.887  1.00  0.00    -0.272 A  
HETATM   25  C   UNL     1     -12.097  15.445  66.701  1.00  0.00     0.585 A  
HETATM   26  C   UNL     1     -11.705  15.940  67.941  1.00  0.00     0.007 A  
HETATM   27  C   UNL     1     -10.712  15.280  68.665  1.00  0.00    -0.245 A  
HETATM   28  C   UNL     1     -11.487  14.300  66.182  1.00  0.00    -0.357 A  
HETATM   29  C   UNL     1     -10.102  14.129  68.145  1.00  0.00    -0.239 A  
ENDBRANCH  20  24
ENDBRANCH  16  18
ENDBRANCH  13  16
BRANCH  15  30
HETATM   30  C   UNL     1      -8.275   6.825  67.491  1.00  0.00    -0.122 C  
HETATM   31  H2  UNL     1      -6.220   6.413  67.499  1.00  0.00     0.000 HD 
HETATM   32  N   UNL     1      -7.099   5.925  67.333  1.00  0.00    -0.073 NA 
HETATM   33  H1  UNL     1      -7.203   5.108  67.935  1.00  0.00     0.000 HD 
BRANCH  30  34
HETATM   34  C   UNL     1      -8.388   7.108  69.005  1.00  0.00    -0.126 C  
BRANCH  34  35
HETATM   35  C   UNL     1      -9.373   8.154  69.492  1.00  0.00    -0.155 A  
HETATM   36  C   UNL     1     -10.734   7.885  67.318  1.00  0.00    -0.299 C  
HETATM   37  C   UNL     1     -10.127   9.822  71.112  1.00  0.00     0.067 A  
HETATM   38  C   UNL     1      -7.945   8.775  71.570  1.00  0.00    -0.160 C  
HETATM   39  C   UNL     1     -10.488   8.491  68.679  1.00  0.00    -0.200 A  
HETATM   40  C   UNL     1      -9.163   8.886  70.688  1.00  0.00    -0.256 A  
HETATM   41  C   UNL     1     -11.263  10.087  70.354  1.00  0.00    -0.393 A  
HETATM   42  C   UNL     1     -11.425   9.432  69.132  1.00  0.00     0.280 A  
BRANCH  41  43
HETATM   43  C   UNL     1     -12.309  11.070  70.754  1.00  0.00    -0.398 C  
HETATM   44  H2  UNL     1     -11.399  12.662  69.773  1.00  0.00     0.000 HD 
HETATM   45  H1  UNL     1     -12.908  13.042  70.619  1.00  0.00     0.000 HD 
HETATM   46  N   UNL     1     -12.192  12.369  70.345  1.00  0.00    -0.332 N  
HETATM   47  O   UNL     1     -13.270  10.741  71.443  1.00  0.00    -0.364 OA 
ENDBRANCH  41  43
ENDBRANCH  34  35
ENDBRANCH  30  34
ENDBRANCH  15  30
ENDBRANCH  12  13
ENDBRANCH   6  12
ENDBRANCH   2   3
TORSDOF 10
ENDMDL
MODEL      271
REMARK 921   NORMALIZED FREE ENERGY PREDICTED BY IDOCK:    2.15 KCAL/MOL
REMARK 922        TOTAL FREE ENERGY PREDICTED BY IDOCK:    0.54 KCAL/MOL
REMARK 923 INTER-LIGAND FREE ENERGY PREDICTED BY IDOCK:   -2.11 KCAL/MOL
REMARK 924 INTRA-LIGAND FREE ENERGY PREDICTED BY IDOCK:    2.65 KCAL/MOL
REMARK 927      BINDING AFFINITY PREDICTED BY RF-SCORE:    0.00 PKD
ROOT
HETATM    1  C   UNL     1      -8.408  11.197  63.406  1.00  0.00     0.296 C  
HETATM    2  O   UNL     1      -9.075  12.266  64.079  1.00  0.00     0.468 OA 
ENDROOT
BRANCH   2   3
HETATM    3  C   UNL     1      -9.860  11.931  65.154  1.00  0.00    -0.218 A  
HETATM    4  C   UNL     1      -9.357  11.666  66.431  1.00  0.00    -0.224 A  
HETATM    5  C   UNL     1     -10.219  11.428  67.505  1.00  0.00    -0.210 A  
HETATM    6  C   UNL     1     -11.606  11.411  67.332  1.00  0.00    -0.266 A  
HETATM    7  C   UNL     1     -12.110  11.616  66.038  1.00  0.00     0.684 A  
HETATM    8  C   UNL     1     -11.903  12.101  63.632  1.00  0.00    -0.516 C  
HETATM    9  O   UNL     1     -11.244  12.938  62.806  1.00  0.00     0.459 OA 
HETATM   10  C   UNL     1     -11.251  11.887  64.955  1.00  0.00    -0.350 A  
HETATM   11  O   UNL     1     -12.985  11.610  63.352  1.00  0.00    -0.495 OA 
BRANCH   6  12
HETATM   12  C   UNL     1     -12.562  11.218  68.493  1.00  0.00     1.135 C  
BRANCH  12  13
HETATM   13  N   UNL     1     -12.019  11.516  69.830  1.00  0.00    -0.336 N  
HETATM   14  O   UNL     1     -11.042  10.795  71.801  1.00  0.00     1.564 OA 
HETATM   15  C   UNL     1     -11.347  10.557  70.625  1.00  0.00    -0.275 C  
BRANCH  13  16
HETATM   16  C   UNL     1     -12.479  12.766  70.491  1.00  0.00    -0.202 C  
HETATM   17  C   UNL     1     -12.583  12.665  72.024  1.00  0.00     0.044 C  
BRANCH  16  18
HETATM   18  C   UNL     1     -11.566  13.930  70.166  1.00  0.00    -0.179 A  
HETATM   19  C   UNL     1     -10.398  15.774  70.580  1.00  0.00     0.217 A  
HETATM   20  C   UNL     1      -9.815  15.049  69.563  1.00  0.00    -0.126 A  
HETATM   21  N   UNL     1     -10.579  13.936  69.290  1.00  0.00    -0.433 NA 
HETATM   22  H   UNL     1     -10.413  13.251  68.553  1.00  0.00     0.000 HD 
HETATM   23  N   UNL     1     -11.524  15.071  70.932  1.00  0.00    -0.291 NA 
BRANCH  20  24
HETATM   24  C   UNL     1      -8.536  15.299  68.912  1.00  0.00    -0.202 A  
HETATM   25  C   UNL     1      -6.111  15.014  68.919  1.00  0.00    -0.089 A  
HETATM   26  C   UNL     1      -5.997  15.846  67.810  1.00  0.00    -0.167 A  
HETATM   27  C   UNL     1      -7.146  16.393  67.237  1.00  0.00    -0.216 A  
HETATM   28  C   UNL     1      -7.370  14.743  69.463  1.00  0.00    -0.148 A  
HETATM   29  C   UNL     1      -8.409  16.118  67.781  1.00  0.00    -0.162 A  
ENDBRANCH  20  24
ENDBRANCH  16  18
ENDBRANCH  13  16
BRANCH  15  30
HETATM   30  C   UNL     1     -10.964   9.184  69.956  1.00  0.00    -0.220 C  
HETATM   31  H2  UNL     1     -10.583  10.056  68.088  1.00  0.00     0.000 HD 
HETATM   32  N   UNL     1     -11.116   9.279  68.478  1.00  0.00    -0.464 NA 
HETATM   33  H1  UNL     1     -10.868   8.390  68.045  1.00  0.00     0.000 HD 
BRANCH  30  34
HETATM   34  C   UNL     1      -9.520   8.690  70.199  1.00  0.00    -0.172 C  
BRANCH  34  35
HETATM   35  C   UNL     1      -8.654   8.317  69.011  1.00  0.00    -0.135 A  
HETATM   36  C   UNL     1      -9.665   5.944  69.020  1.00  0.00    -0.170 C  
HETATM   37  C   UNL     1      -6.915   8.811  67.366  1.00  0.00    -0.075 A  
HETATM   38  C   UNL     1      -7.314  10.539  69.075  1.00  0.00    -0.103 C  
HETATM   39  C   UNL     1      -8.757   7.012  68.459  1.00  0.00    -0.122 A  
HETATM   40  C   UNL     1      -7.669   9.194  68.493  1.00  0.00    -0.093 A  
HETATM   41  C   UNL     1      -7.079   7.563  66.774  1.00  0.00    -0.083 A  
HETATM   42  C   UNL     1      -7.986   6.664  67.339  1.00  0.00    -0.114 A  
BRANCH  41  43
HETATM   43  C   UNL     1      -6.305   7.107  65.586  1.00  0.00    -0.040 C  
HETATM   44  H2  UNL     1      -6.470   8.928  64.594  1.00  0.00     0.000 HD 
HETATM   45  H1  UNL     1      -5.568   7.666  63.738  1.00  0.00     0.000 HD 
HETATM   46  N   UNL     1      -6.098   7.978  64.552  1.00  0.00    -0.052 N  
HETATM   47  O   UNL     1      -5.850   5.970  65.513  1.00  0.00    -0.023 OA 
ENDBRANCH  41  43
ENDBRANCH  34  35
ENDBRANCH  30  34
ENDBRANCH  15  30
ENDBRANCH  12  13
ENDBRANCH   6  12
ENDBRANCH   2   3
TORSDOF 10
ENDMDL
MODEL      272
REMARK 921   NORMALIZED FREE ENERGY PREDICTED BY IDOCK:    2.38 KCAL/MOL
REMARK 922        TOTAL FREE ENERGY PREDICTED BY IDOCK:    0.90 KCAL/MOL
REMARK 923 INTER-LIGAND FREE ENERGY PREDICTED BY IDOCK:   -4.48 KCAL/MOL
REMARK 924 INTRA-LIGAND FREE ENERGY PREDICTED BY IDOCK:    5.39 KCAL/MOL
REMARK 927      BINDING AFFINITY PREDICTED BY RF-SCORE:    0.00 PKD
ROOT
HETATM    1  C   UNL     1     -12.952  14.686  70.750  1.00  0.00    -0.347 C  
HETATM    2  O   UNL     1     -12.532  13.323  70.679  1.00  0.00    -0.339 OA 
ENDROOT
BRANCH   2   3
HETATM    3  C   UNL     1     -11.723  12.975  69.625  1.00  0.00    -0.297 A  
HETATM    4  C   UNL     1     -12.012  11.939  68.733  1.00  0.00    -0.307 A  
HETATM    5  C   UNL     1     -11.195  11.702  67.623  1.00  0.00    -0.345 A  
HETATM    6  C   UNL     1     -10.048  12.466  67.389  1.00  0.00    -0.205 A  
HETATM    7  C   UNL     1      -9.724  13.467  68.319  1.00  0.00    -0.226 A  
HETATM    8  C   UNL     1     -10.115  14.828  70.333  1.00  0.00     0.552 C  
HETATM    9  O   UNL     1     -11.116  15.490  70.947  1.00  0.00    -0.327 OA 
HETATM   10  C   UNL     1     -10.556  13.733  69.423  1.00  0.00     0.062 A  
HETATM   11  O   UNL     1      -8.941  15.142  70.454  1.00  0.00     0.470 OA 
BRANCH   6  12
HETATM   12  C   UNL     1      -9.184  12.269  66.159  1.00  0.00    -0.132 C  
BRANCH  12  13
HETATM   13  N   UNL     1      -9.904  11.969  64.908  1.00  0.00    -0.218 N  
HETATM   14  O   UNL     1     -11.335  12.631  63.213  1.00  0.00    -0.460 OA 
HETATM   15  C   UNL     1     -10.615  12.946  64.170  1.00  0.00    -0.416 C  
BRANCH  13  16
HETATM   16  C   UNL     1     -10.157  10.539  64.592  1.00  0.00    -0.338 C  
HETATM   17  C   UNL     1      -9.482  10.051  63.296  1.00  0.00    -0.230 C  
BRANCH  16  18
HETATM   18  C   UNL     1      -9.701   9.636  65.719  1.00  0.00    -0.280 A  
HETATM   19  C   UNL     1      -9.925   8.111  67.319  1.00  0.00    -0.218 A  
HETATM   20  C   UNL     1      -8.651   8.080  66.794  1.00  0.00    -0.130 A  
HETATM   21  N   UNL     1      -8.518   9.062  65.839  1.00  0.00    -0.133 NA 
HETATM   22  H   UNL     1      -7.670   9.300  65.324  1.00  0.00     0.000 HD 
HETATM   23  N   UNL     1     -10.570   9.123  66.652  1.00  0.00    -0.155 NA 
BRANCH  20  24
HETATM   24  C   UNL     1      -7.596   7.115  67.076  1.00  0.00    -0.099 A  
HETATM   25  C   UNL     1      -5.545   6.009  66.349  1.00  0.00    -0.013 A  
HETATM   26  C   UNL     1      -5.587   5.173  67.461  1.00  0.00    -0.013 A  
HETATM   27  C   UNL     1      -6.618   5.312  68.391  1.00  0.00    -0.049 A  
HETATM   28  C   UNL     1      -6.540   6.971  66.161  1.00  0.00    -0.052 A  
HETATM   29  C   UNL     1      -7.614   6.281  68.204  1.00  0.00    -0.102 A  
ENDBRANCH  20  24
ENDBRANCH  16  18
ENDBRANCH  13  16
BRANCH  15  30
HETATM   30  C   UNL     1     -10.437  14.455  64.583  1.00  0.00    -0.257 C  
HETATM   31  H2  UNL     1     -12.488  14.739  64.911  1.00  0.00     0.000 HD 
HETATM   32  N   UNL     1     -11.722  15.185  64.407  1.00  0.00    -0.646 NA 
HETATM   33  H1  UNL     1     -11.606  16.163  64.675  1.00  0.00     0.000 HD 
BRANCH  30  34
HETATM   34  C   UNL     1     -10.004  14.711  66.044  1.00  0.00    -0.337 C  
BRANCH  34  35
HETATM   35  C   UNL     1      -9.942  16.137  66.560  1.00  0.00    -0.293 A  
HETATM   36  C   UNL     1      -7.448  16.261  65.915  1.00  0.00     1.104 C  
HETATM   37  C   UNL     1     -10.937  18.084  67.653  1.00  0.00    -0.115 A  
HETATM   38  C   UNL     1     -12.338  16.059  67.557  1.00  0.00     1.503 C  
HETATM   39  C   UNL     1      -8.720  16.856  66.469  1.00  0.00    -0.304 A  
HETATM   40  C   UNL     1     -11.037  16.745  67.225  1.00  0.00     0.076 A  
HETATM   41  C   UNL     1      -9.765  18.814  67.484  1.00  0.00    -0.343 A  
HETATM   42  C   UNL     1      -8.657  18.186  66.911  1.00  0.00    -0.268 A  
BRANCH  41  43
HETATM   43  C   UNL     1      -9.607  20.228  67.924  1.00  0.00    -0.304 C  
HETATM   44  H2  UNL     1      -7.709  20.429  67.098  1.00  0.00     0.000 HD 
HETATM   45  H1  UNL     1      -8.344  21.863  67.920  1.00  0.00     0.000 HD 
HETATM   46  N   UNL     1      -8.452  20.895  67.619  1.00  0.00    -0.052 N  
HETATM   47  O   UNL     1     -10.486  20.808  68.553  1.00  0.00     0.102 OA 
ENDBRANCH  41  43
ENDBRANCH  34  35
ENDBRANCH  30  34
ENDBRANCH  15  30
ENDBRANCH  12  13
ENDBRANCH   6  12
ENDBRANCH   2   3
TORSDOF 10
ENDMDL
MODEL      273
REMARK 921   NORMALIZED FREE ENERGY PREDICTED BY IDOCK:    2.43 KCAL/MOL
REMARK 922        TOTAL FREE ENERGY PREDICTED BY IDOCK:    0.98 KCAL/MOL
REMARK 923 INTER-LIGAND FREE ENERGY PREDICTED BY IDOCK:   -2.67 KCAL/MOL
REMARK 924 INTRA-LIGAND FREE ENERGY PREDICTED BY IDOCK:    3.65 KCAL/MOL
REMARK 927      BINDING AFFINITY PREDICTED BY RF-SCORE:    0.00 PKD
ROOT
HETATM    1  C   UNL     1      -8.137   2.861  66.192  1.00  0.00    -0.083 C  
HETATM    2  O   UNL     1      -9.119   3.759  65.672  1.00  0.00    -0.134 OA 
ENDROOT
BRANCH   2   3
HETATM    3  C   UNL     1      -8.965   5.090  65.971  1.00  0.00    -0.136 A  
HETATM    4  C   UNL     1      -9.228   6.124  65.069  1.00  0.00     0.486 A  
HETATM    5  C   UNL     1      -9.146   7.462  65.469  1.00  0.00     0.161 A  
HETATM    6  C   UNL     1      -8.764   7.808  66.768  1.00  0.00    -0.143 A  
HETATM    7  C   UNL     1      -8.440   6.771  67.657  1.00  0.00    -0.122 A  
HETATM    8  C   UNL     1      -8.190   4.409  68.307  1.00  0.00    -0.089 C  
HETATM    9  O   UNL     1      -8.856   3.241  68.210  1.00  0.00    -0.096 OA 
HETATM   10  C   UNL     1      -8.549   5.420  67.273  1.00  0.00    -0.108 A  
HETATM   11  O   UNL     1      -7.406   4.651  69.211  1.00  0.00    -0.052 OA 
BRANCH   6  12
HETATM   12  C   UNL     1      -8.730   9.248  67.242  1.00  0.00    -0.128 C  
BRANCH  12  13
HETATM   13  N   UNL     1     -10.041   9.894  67.435  1.00  0.00    -0.192 N  
HETATM   14  O   UNL     1     -11.739  11.252  66.642  1.00  0.00    -0.368 OA 
HETATM   15  C   UNL     1     -10.719  10.592  66.406  1.00  0.00    -0.096 C  
BRANCH  13  16
HETATM   16  C   UNL     1     -10.505  10.094  68.833  1.00  0.00    -0.210 C  
HETATM   17  C   UNL     1     -11.843  10.847  68.950  1.00  0.00    -0.340 C  
BRANCH  16  18
HETATM   18  C   UNL     1     -10.653   8.773  69.559  1.00  0.00    -0.219 A  
HETATM   19  C   UNL     1     -10.970   6.582  69.748  1.00  0.00    -0.338 A  
HETATM   20  C   UNL     1     -10.193   7.051  70.785  1.00  0.00    -0.194 A  
HETATM   21  N   UNL     1     -10.048   8.416  70.676  1.00  0.00    -0.190 NA 
HETATM   22  H   UNL     1      -9.567   9.031  71.332  1.00  0.00     0.000 HD 
HETATM   23  N   UNL     1     -11.282   7.688  68.996  1.00  0.00     0.197 NA 
BRANCH  20  24
HETATM   24  C   UNL     1      -9.507   6.270  71.805  1.00  0.00    -0.158 A  
HETATM   25  C   UNL     1      -9.658   4.858  73.791  1.00  0.00    -0.137 A  
HETATM   26  C   UNL     1      -8.272   4.849  73.906  1.00  0.00    -0.105 A  
HETATM   27  C   UNL     1      -7.497   5.532  72.968  1.00  0.00    -0.093 A  
HETATM   28  C   UNL     1     -10.268   5.560  72.749  1.00  0.00    -0.216 A  
HETATM   29  C   UNL     1      -8.109   6.235  71.920  1.00  0.00    -0.109 A  
ENDBRANCH  20  24
ENDBRANCH  16  18
ENDBRANCH  13  16
BRANCH  15  30
HETATM   30  C   UNL     1     -10.155  10.474  64.941  1.00  0.00    -0.333 C  
HETATM   31  H2  UNL     1     -11.899  11.248  64.073  1.00  0.00     0.000 HD 
HETATM   32  N   UNL     1     -11.279  10.446  63.965  1.00  0.00     0.796 NA 
HETATM   33  H1  UNL     1     -10.913  10.369  63.016  1.00  0.00     0.000 HD 
BRANCH  30  34
HETATM   34  C   UNL     1      -9.225  11.618  64.478  1.00  0.00     0.138 C  
BRANCH  34  35
HETATM   35  C   UNL     1      -9.625  13.055  64.753  1.00  0.00     0.268 A  
HETATM   36  C   UNL     1      -7.837  13.198  66.607  1.00  0.00     0.561 C  
HETATM   37  C   UNL     1     -11.041  15.012  64.378  1.00  0.00    -0.120 A  
HETATM   38  C   UNL     1     -11.672  12.967  63.157  1.00  0.00    -0.139 C  
HETATM   39  C   UNL     1      -8.937  13.788  65.756  1.00  0.00     0.688 A  
HETATM   40  C   UNL     1     -10.734  13.663  64.112  1.00  0.00    -0.141 A  
HETATM   41  C   UNL     1     -10.309  15.754  65.300  1.00  0.00    -0.387 A  
HETATM   42  C   UNL     1      -9.274  15.129  65.998  1.00  0.00    -0.273 A  
BRANCH  41  43
HETATM   43  C   UNL     1     -10.596  17.180  65.621  1.00  0.00    -0.179 C  
HETATM   44  H2  UNL     1      -9.058  17.331  67.014  1.00  0.00     0.000 HD 
HETATM   45  H1  UNL     1     -10.019  18.799  66.768  1.00  0.00     0.000 HD 
HETATM   46  N   UNL     1      -9.822  17.822  66.549  1.00  0.00    -0.315 N  
HETATM   47  O   UNL     1     -11.510  17.791  65.076  1.00  0.00    -0.019 OA 
ENDBRANCH  41  43
ENDBRANCH  34  35
ENDBRANCH  30  34
ENDBRANCH  15  30
ENDBRANCH  12  13
ENDBRANCH   6  12
ENDBRANCH   2   3
TORSDOF 10
ENDMDL
MODEL      274
REMARK 921   NORMALIZED FREE ENERGY PREDICTED BY IDOCK:    2.58 KCAL/MOL
REMARK 922        TOTAL FREE ENERGY PREDICTED BY IDOCK:    1.22 KCAL/MOL
REMARK 923 INTER-LIGAND FREE ENERGY PREDICTED BY IDOCK:    0.38 KCAL/MOL
REMARK 924 INTRA-LIGAND FREE ENERGY PREDICTED BY IDOCK:    0.84 KCAL/MOL
REMARK 927      BINDING AFFINITY PREDICTED BY RF-SCORE:    0.00 PKD
ROOT
HETATM    1  C   UNL     1      -6.778  14.828  72.693  1.00  0.00     2.267 C  
HETATM    2  O   UNL     1      -6.553  14.353  71.365  1.00  0.00     0.276 OA 
ENDROOT
BRANCH   2   3
HETATM    3  C   UNL     1      -7.598  14.462  70.481  1.00  0.00     1.277 A  
HETATM    4  C   UNL     1      -8.912  14.095  70.782  1.00  0.00     3.953 A  
HETATM    5  C   UNL     1      -9.947  14.325  69.869  1.00  0.00     0.690 A  
HETATM    6  C   UNL     1      -9.696  14.892  68.616  1.00  0.00    -0.226 A  
HETATM    7  C   UNL     1      -8.367  15.203  68.289  1.00  0.00    -0.149 A  
HETATM    8  C   UNL     1      -5.956  15.386  68.756  1.00  0.00    -0.095 C  
HETATM    9  O   UNL     1      -5.128  15.800  69.736  1.00  0.00    -0.103 OA 
HETATM   10  C   UNL     1      -7.323  15.004  69.213  1.00  0.00    -0.184 A  
HETATM   11  O   UNL     1      -5.640  15.387  67.577  1.00  0.00    -0.294 OA 
BRANCH   6  12
HETATM   12  C   UNL     1     -10.810  15.208  67.637  1.00  0.00    -0.295 C  
BRANCH  12  13
HETATM   13  N   UNL     1     -10.930  14.299  66.483  1.00  0.00    -0.311 N  
HETATM   14  O   UNL     1     -11.211  13.977  64.208  1.00  0.00    -0.335 OA 
HETATM   15  C   UNL     1     -10.953  14.749  65.141  1.00  0.00    -0.393 C  
BRANCH  13  16
HETATM   16  C   UNL     1     -11.365  12.904  66.755  1.00  0.00    -0.322 C  
HETATM   17  C   UNL     1     -12.142  12.250  65.597  1.00  0.00    -0.306 C  
BRANCH  16  18
HETATM   18  C   UNL     1     -10.186  12.011  67.081  1.00  0.00    -0.202 A  
HETATM   19  C   UNL     1      -8.057  11.375  67.079  1.00  0.00    -0.157 A  
HETATM   20  C   UNL     1      -8.698  10.920  68.211  1.00  0.00    -0.140 A  
HETATM   21  N   UNL     1     -10.025  11.283  68.170  1.00  0.00    -0.176 NA 
HETATM   22  H   UNL     1     -10.745  11.037  68.850  1.00  0.00     0.000 HD 
HETATM   23  N   UNL     1      -9.018  12.037  66.355  1.00  0.00    -0.192 NA 
BRANCH  20  24
HETATM   24  C   UNL     1      -8.104  10.253  69.362  1.00  0.00    -0.167 A  
HETATM   25  C   UNL     1      -6.117   9.811  70.708  1.00  0.00    -0.092 A  
HETATM   26  C   UNL     1      -6.827   8.896  71.480  1.00  0.00    -0.082 A  
HETATM   27  C   UNL     1      -8.177   8.668  71.210  1.00  0.00    -0.194 A  
HETATM   28  C   UNL     1      -6.751  10.483  69.661  1.00  0.00    -0.108 A  
HETATM   29  C   UNL     1      -8.815   9.346  70.161  1.00  0.00    -0.249 A  
ENDBRANCH  20  24
ENDBRANCH  16  18
ENDBRANCH  13  16
BRANCH  15  30
HETATM   30  C   UNL     1     -10.606  16.260  64.865  1.00  0.00    -0.133 C  
HETATM   31  H2  UNL     1     -12.510  16.690  64.102  1.00  0.00     0.000 HD 
HETATM   32  N   UNL     1     -11.533  16.816  63.842  1.00  0.00    -1.273 NA 
HETATM   33  H1  UNL     1     -11.307  17.795  63.663  1.00  0.00     0.000 HD 
BRANCH  30  34
HETATM   34  C   UNL     1     -10.702  17.210  66.080  1.00  0.00    -0.113 C  
BRANCH  34  35
HETATM   35  C   UNL     1      -9.575  18.191  66.344  1.00  0.00    -0.298 A  
HETATM   36  C   UNL     1      -7.850  16.376  65.727  1.00  0.00     0.880 C  
HETATM   37  C   UNL     1      -8.732  20.367  67.073  1.00  0.00    -0.385 A  
HETATM   38  C   UNL     1     -11.159  20.011  67.303  1.00  0.00     0.055 C  
HETATM   39  C   UNL     1      -8.231  17.774  66.151  1.00  0.00    -0.193 A  
HETATM   40  C   UNL     1      -9.812  19.483  66.879  1.00  0.00    -0.476 A  
HETATM   41  C   UNL     1      -7.423  19.984  66.800  1.00  0.00    -0.287 A  
HETATM   42  C   UNL     1      -7.181  18.681  66.359  1.00  0.00    -0.268 A  
BRANCH  41  43
HETATM   43  C   UNL     1      -6.247  20.877  66.993  1.00  0.00    -0.282 C  
HETATM   44  H2  UNL     1      -5.908  21.120  64.956  1.00  0.00     0.000 HD 
HETATM   45  H1  UNL     1      -4.789  21.977  66.028  1.00  0.00     0.000 HD 
HETATM   46  N   UNL     1      -5.594  21.365  65.895  1.00  0.00    -0.212 N  
HETATM   47  O   UNL     1      -5.851  21.184  68.113  1.00  0.00    -0.327 OA 
ENDBRANCH  41  43
ENDBRANCH  34  35
ENDBRANCH  30  34
ENDBRANCH  15  30
ENDBRANCH  12  13
ENDBRANCH   6  12
ENDBRANCH   2   3
TORSDOF 10
ENDMDL
MODEL      275
REMARK 921   NORMALIZED FREE ENERGY PREDICTED BY IDOCK:    2.87 KCAL/MOL
REMARK 922        TOTAL FREE ENERGY PREDICTED BY IDOCK:    1.68 KCAL/MOL
REMARK 923 INTER-LIGAND FREE ENERGY PREDICTED BY IDOCK:   -1.66 KCAL/MOL
REMARK 924 INTRA-LIGAND FREE ENERGY PREDICTED BY IDOCK:    3.34 KCAL/MOL
REMARK 927      BINDING AFFINITY PREDICTED BY RF-SCORE:    0.00 PKD
ROOT
HETATM    1  C   UNL     1      -5.911   8.958  68.371  1.00  0.00    -0.041 C  
HETATM    2  O   UNL     1      -7.136   8.555  67.757  1.00  0.00    -0.080 OA 
ENDROOT
BRANCH   2   3
HETATM    3  C   UNL     1      -7.931   9.549  67.243  1.00  0.00    -0.106 A  
HETATM    4  C   UNL     1      -8.452  10.599  68.004  1.00  0.00    -0.119 A  
HETATM    5  C   UNL     1      -9.172  11.633  67.399  1.00  0.00    -0.168 A  
HETATM    6  C   UNL     1      -9.426  11.633  66.025  1.00  0.00    -0.246 A  
HETATM    7  C   UNL     1      -8.956  10.548  65.269  1.00  0.00    -0.211 A  
HETATM    8  C   UNL     1      -7.748   8.424  64.958  1.00  0.00    -0.104 C  
HETATM    9  O   UNL     1      -6.586   7.842  65.314  1.00  0.00    -0.044 OA 
HETATM   10  C   UNL     1      -8.204   9.516  65.864  1.00  0.00    -0.115 A  
HETATM   11  O   UNL     1      -8.349   8.133  63.935  1.00  0.00    -0.110 OA 
BRANCH   6  12
HETATM   12  C   UNL     1     -10.149  12.775  65.338  1.00  0.00    -0.259 C  
BRANCH  12  13
HETATM   13  N   UNL     1     -11.399  13.224  65.978  1.00  0.00    -0.299 N  
HETATM   14  O   UNL     1     -12.641  14.893  66.993  1.00  0.00     0.288 OA 
HETATM   15  C   UNL     1     -11.653  14.575  66.319  1.00  0.00    -0.360 C  
BRANCH  13  16
HETATM   16  C   UNL     1     -12.273  12.181  66.577  1.00  0.00     0.360 C  
HETATM   17  C   UNL     1     -11.899  10.742  66.178  1.00  0.00     1.710 C  
BRANCH  16  18
HETATM   18  C   UNL     1     -12.266  12.258  68.089  1.00  0.00     0.239 A  
HETATM   19  C   UNL     1     -11.478  11.913  70.138  1.00  0.00    -0.049 A  
HETATM   20  C   UNL     1     -12.231  13.066  70.096  1.00  0.00    -0.272 A  
HETATM   21  N   UNL     1     -12.749  13.236  68.832  1.00  0.00     0.402 NA 
HETATM   22  H   UNL     1     -13.383  13.975  68.528  1.00  0.00     0.000 HD 
HETATM   23  N   UNL     1     -11.534  11.393  68.869  1.00  0.00    -0.267 NA 
BRANCH  20  24
HETATM   24  C   UNL     1     -12.403  14.056  71.151  1.00  0.00    -0.443 A  
HETATM   25  C   UNL     1     -13.902  15.533  72.388  1.00  0.00    -0.662 A  
HETATM   26  C   UNL     1     -12.821  16.077  73.075  1.00  0.00    -0.587 A  
HETATM   27  C   UNL     1     -11.533  15.604  72.818  1.00  0.00    -0.309 A  
HETATM   28  C   UNL     1     -13.694  14.531  71.437  1.00  0.00    -0.448 A  
HETATM   29  C   UNL     1     -11.324  14.596  71.866  1.00  0.00     0.274 A  
ENDBRANCH  20  24
ENDBRANCH  16  18
ENDBRANCH  13  16
BRANCH  15  30
HETATM   30  C   UNL     1     -10.657  15.670  65.781  1.00  0.00    -0.361 C  
HETATM   31  H2  UNL     1     -12.195  16.891  65.049  1.00  0.00     0.000 HD 
HETATM   32  N   UNL     1     -11.318  16.484  64.725  1.00  0.00    -0.466 NA 
HETATM   33  H1  UNL     1     -10.672  17.193  64.377  1.00  0.00     0.000 HD 
BRANCH  30  34
HETATM   34  C   UNL     1     -10.133  16.681  66.826  1.00  0.00    -0.293 C  
BRANCH  34  35
HETATM   35  C   UNL     1      -9.068  16.242  67.813  1.00  0.00    -0.195 A  
HETATM   36  C   UNL     1      -9.673  18.225  69.347  1.00  0.00     0.130 C  
HETATM   37  C   UNL     1      -7.228  14.786  68.500  1.00  0.00    -0.115 A  
HETATM   38  C   UNL     1      -8.126  14.405  66.238  1.00  0.00     1.160 C  
HETATM   39  C   UNL     1      -8.883  16.983  69.011  1.00  0.00    -0.130 A  
HETATM   40  C   UNL     1      -8.177  15.175  67.533  1.00  0.00    -0.196 A  
HETATM   41  C   UNL     1      -7.108  15.461  69.711  1.00  0.00    -0.139 A  
HETATM   42  C   UNL     1      -7.925  16.569  69.948  1.00  0.00     0.967 A  
BRANCH  41  43
HETATM   43  C   UNL     1      -6.119  15.094  70.763  1.00  0.00     0.082 C  
HETATM   44  H2  UNL     1      -7.037  13.281  71.204  1.00  0.00     0.000 HD 
HETATM   45  H1  UNL     1      -5.586  13.656  72.147  1.00  0.00     0.000 HD 
HETATM   46  N   UNL     1      -6.263  13.907  71.427  1.00  0.00     0.080 N  
HETATM   47  O   UNL     1      -5.181  15.832  71.048  1.00  0.00    -0.162 OA 
ENDBRANCH  41  43
ENDBRANCH  34  35
ENDBRANCH  30  34
ENDBRANCH  15  30
ENDBRANCH  12  13
ENDBRANCH   6  12
ENDBRANCH   2   3
TORSDOF 10
ENDMDL
MODEL      276
REMARK 921   NORMALIZED FREE ENERGY PREDICTED BY IDOCK:    2.99 KCAL/MOL
REMARK 922        TOTAL FREE ENERGY PREDICTED BY IDOCK:    1.87 KCAL/MOL
REMARK 923 INTER-LIGAND FREE ENERGY PREDICTED BY IDOCK:   -1.88 KCAL/MOL
REMARK 924 INTRA-LIGAND FREE ENERGY PREDICTED BY IDOCK:    3.76 KCAL/MOL
REMARK 927      BINDING AFFINITY PREDICTED BY RF-SCORE:    0.00 PKD
ROOT
HETATM    1  C   UNL     1      -9.707   7.487  66.199  1.00  0.00     0.069 C  
HETATM    2  O   UNL     1     -10.030   8.876  66.112  1.00  0.00    -0.291 OA 
ENDROOT
BRANCH   2   3
HETATM    3  C   UNL     1      -9.485   9.702  67.063  1.00  0.00    -0.154 A  
HETATM    4  C   UNL     1      -8.285   9.435  67.729  1.00  0.00    -0.114 A  
HETATM    5  C   UNL     1      -7.735  10.367  68.614  1.00  0.00    -0.101 A  
HETATM    6  C   UNL     1      -8.381  11.575  68.891  1.00  0.00    -0.005 A  
HETATM    7  C   UNL     1      -9.616  11.817  68.269  1.00  0.00    -0.199 A  
HETATM    8  C   UNL     1     -11.474  11.271  66.748  1.00  0.00     0.004 C  
HETATM    9  O   UNL     1     -11.676  10.798  65.502  1.00  0.00     0.595 OA 
HETATM   10  C   UNL     1     -10.164  10.898  67.353  1.00  0.00    -0.236 A  
HETATM   11  O   UNL     1     -12.268  12.007  67.314  1.00  0.00    -0.496 OA 
BRANCH   6  12
HETATM   12  C   UNL     1      -7.772  12.626  69.797  1.00  0.00     1.408 C  
BRANCH  12  13
HETATM   13  N   UNL     1      -6.487  13.195  69.353  1.00  0.00    -0.110 N  
HETATM   14  O   UNL     1      -5.139  14.011  67.657  1.00  0.00    -0.298 OA 
HETATM   15  C   UNL     1      -6.269  13.686  68.043  1.00  0.00    -0.139 C  
BRANCH  13  16
HETATM   16  C   UNL     1      -5.297  12.944  70.207  1.00  0.00    -0.121 C  
HETATM   17  C   UNL     1      -5.168  13.903  71.404  1.00  0.00    -0.171 C  
BRANCH  16  18
HETATM   18  C   UNL     1      -5.295  11.529  70.747  1.00  0.00    -0.138 A  
HETATM   19  C   UNL     1      -5.744   9.906  72.197  1.00  0.00     0.228 A  
HETATM   20  C   UNL     1      -5.666   9.404  70.915  1.00  0.00    -0.055 A  
HETATM   21  N   UNL     1      -5.340  10.415  70.040  1.00  0.00    -0.039 NA 
HETATM   22  H   UNL     1      -5.167  10.321  69.039  1.00  0.00     0.000 HD 
HETATM   23  N   UNL     1      -5.475  11.247  72.081  1.00  0.00    -0.120 NA 
BRANCH  20  24
HETATM   24  C   UNL     1      -5.977   8.052  70.469  1.00  0.00    -0.029 A  
HETATM   25  C   UNL     1      -7.417   6.089  70.640  1.00  0.00    -0.087 A  
HETATM   26  C   UNL     1      -6.582   5.384  69.779  1.00  0.00    -0.046 A  
HETATM   27  C   UNL     1      -5.454   6.011  69.247  1.00  0.00    -0.005 A  
HETATM   28  C   UNL     1      -7.117   7.411  70.979  1.00  0.00    -0.060 A  
HETATM   29  C   UNL     1      -5.155   7.339  69.585  1.00  0.00    -0.015 A  
ENDBRANCH  20  24
ENDBRANCH  16  18
ENDBRANCH  13  16
BRANCH  15  30
HETATM   30  C   UNL     1      -7.519  13.840  67.097  1.00  0.00     0.119 C  
HETATM   31  H2  UNL     1      -7.867  11.775  67.010  1.00  0.00     0.000 HD 
HETATM   32  N   UNL     1      -7.768  12.564  66.372  1.00  0.00    -0.075 NA 
HETATM   33  H1  UNL     1      -8.578  12.664  65.759  1.00  0.00     0.000 HD 
BRANCH  30  34
HETATM   34  C   UNL     1      -8.853  14.198  67.789  1.00  0.00    -0.185 C  
BRANCH  34  35
HETATM   35  C   UNL     1      -9.387  15.614  67.680  1.00  0.00    -0.206 A  
HETATM   36  C   UNL     1      -7.953  16.311  69.707  1.00  0.00     0.483 C  
HETATM   37  C   UNL     1     -10.845  17.301  66.678  1.00  0.00     0.049 A  
HETATM   38  C   UNL     1     -11.124  14.998  65.851  1.00  0.00    -0.334 C  
HETATM   39  C   UNL     1      -8.929  16.602  68.592  1.00  0.00    -0.246 A  
HETATM   40  C   UNL     1     -10.409  15.964  66.762  1.00  0.00    -0.298 A  
HETATM   41  C   UNL     1     -10.331  18.285  67.516  1.00  0.00    -0.415 A  
HETATM   42  C   UNL     1      -9.389  17.923  68.482  1.00  0.00    -0.299 A  
BRANCH  41  43
HETATM   43  C   UNL     1     -10.761  19.711  67.472  1.00  0.00    -0.406 C  
HETATM   44  H2  UNL     1      -9.242  20.364  68.734  1.00  0.00     0.000 HD 
HETATM   45  H1  UNL     1     -10.349  21.618  68.151  1.00  0.00     0.000 HD 
HETATM   46  N   UNL     1     -10.054  20.642  68.182  1.00  0.00    -0.090 N  
HETATM   47  O   UNL     1     -11.735  20.068  66.816  1.00  0.00     0.745 OA 
ENDBRANCH  41  43
ENDBRANCH  34  35
ENDBRANCH  30  34
ENDBRANCH  15  30
ENDBRANCH  12  13
ENDBRANCH   6  12
ENDBRANCH   2   3
TORSDOF 10
ENDMDL
MODEL      277
REMARK 921   NORMALIZED FREE ENERGY PREDICTED BY IDOCK:    3.44 KCAL/MOL
REMARK 922        TOTAL FREE ENERGY PREDICTED BY IDOCK:    2.58 KCAL/MOL
REMARK 923 INTER-LIGAND FREE ENERGY PREDICTED BY IDOCK:    1.25 KCAL/MOL
REMARK 924 INTRA-LIGAND FREE ENERGY PREDICTED BY IDOCK:    1.33 KCAL/MOL
REMARK 927      BINDING AFFINITY PREDICTED BY RF-SCORE:    0.00 PKD
ROOT
HETATM    1  C   UNL     1      -6.779  14.829  72.695  1.00  0.00     2.267 C  
HETATM    2  O   UNL     1      -6.560  14.348  71.368  1.00  0.00     0.276 OA 
ENDROOT
BRANCH   2   3
HETATM    3  C   UNL     1      -7.606  14.456  70.486  1.00  0.00     1.277 A  
HETATM    4  C   UNL     1      -8.922  14.101  70.794  1.00  0.00     3.953 A  
HETATM    5  C   UNL     1      -9.958  14.329  69.883  1.00  0.00     0.690 A  
HETATM    6  C   UNL     1      -9.708  14.885  68.625  1.00  0.00    -0.226 A  
HETATM    7  C   UNL     1      -8.378  15.185  68.291  1.00  0.00    -0.149 A  
HETATM    8  C   UNL     1      -5.965  15.356  68.749  1.00  0.00    -0.095 C  
HETATM    9  O   UNL     1      -5.131  15.773  69.723  1.00  0.00    -0.103 OA 
HETATM   10  C   UNL     1      -7.332  14.987  69.213  1.00  0.00    -0.184 A  
HETATM   11  O   UNL     1      -5.652  15.346  67.569  1.00  0.00    -0.294 OA 
BRANCH   6  12
HETATM   12  C   UNL     1     -10.823  15.200  67.647  1.00  0.00    -0.295 C  
BRANCH  12  13
HETATM   13  N   UNL     1     -10.957  14.278  66.505  1.00  0.00    -0.311 N  
HETATM   14  O   UNL     1     -11.251  13.931  64.235  1.00  0.00    -0.354 OA 
HETATM   15  C   UNL     1     -10.981  14.712  65.157  1.00  0.00    -0.386 C  
BRANCH  13  16
HETATM   16  C   UNL     1     -11.407  12.892  66.796  1.00  0.00    -0.322 C  
HETATM   17  C   UNL     1     -12.189  12.229  65.647  1.00  0.00    -0.203 C  
BRANCH  16  18
HETATM   18  C   UNL     1     -10.237  11.992  67.137  1.00  0.00    -0.202 A  
HETATM   19  C   UNL     1      -9.202  10.286  68.113  1.00  0.00    -0.136 A  
HETATM   20  C   UNL     1      -8.596  10.600  66.915  1.00  0.00    -0.126 A  
HETATM   21  N   UNL     1      -9.221  11.688  66.351  1.00  0.00    -0.208 NA 
HETATM   22  H   UNL     1      -8.952  12.167  65.491  1.00  0.00     0.000 HD 
HETATM   23  N   UNL     1     -10.220  11.196  68.258  1.00  0.00    -0.175 NA 
BRANCH  20  24
HETATM   24  C   UNL     1      -7.531   9.871  66.239  1.00  0.00    -0.102 A  
HETATM   25  C   UNL     1      -6.743   7.775  65.267  1.00  0.00    -0.047 A  
HETATM   26  C   UNL     1      -5.485   8.330  65.056  1.00  0.00    -0.040 A  
HETATM   27  C   UNL     1      -5.248   9.657  65.418  1.00  0.00    -0.040 A  
HETATM   28  C   UNL     1      -7.756   8.540  65.851  1.00  0.00    -0.097 A  
HETATM   29  C   UNL     1      -6.266  10.426  66.001  1.00  0.00    -0.110 A  
ENDBRANCH  20  24
ENDBRANCH  16  18
ENDBRANCH  13  16
BRANCH  15  30
HETATM   30  C   UNL     1     -10.619  16.215  64.861  1.00  0.00    -0.176 C  
HETATM   31  H2  UNL     1     -12.522  16.656  64.102  1.00  0.00     0.000 HD 
HETATM   32  N   UNL     1     -11.544  16.769  63.835  1.00  0.00    -1.203 NA 
HETATM   33  H1  UNL     1     -11.309  17.742  63.644  1.00  0.00     0.000 HD 
BRANCH  30  34
HETATM   34  C   UNL     1     -10.699  17.181  66.064  1.00  0.00    -0.113 C  
BRANCH  34  35
HETATM   35  C   UNL     1      -9.559  18.152  66.312  1.00  0.00    -0.246 A  
HETATM   36  C   UNL     1      -7.858  16.310  65.710  1.00  0.00     1.051 C  
HETATM   37  C   UNL     1      -8.688  20.327  67.010  1.00  0.00    -0.413 A  
HETATM   38  C   UNL     1     -11.118  20.002  67.255  1.00  0.00     0.055 C  
HETATM   39  C   UNL     1      -8.221  17.717  66.118  1.00  0.00    -0.193 A  
HETATM   40  C   UNL     1      -9.779  19.453  66.831  1.00  0.00    -0.431 A  
HETATM   41  C   UNL     1      -7.385  19.925  66.736  1.00  0.00    -0.270 A  
HETATM   42  C   UNL     1      -7.159  18.614  66.310  1.00  0.00    -0.277 A  
BRANCH  41  43
HETATM   43  C   UNL     1      -6.197  20.807  66.913  1.00  0.00    -0.253 C  
HETATM   44  H2  UNL     1      -5.738  20.848  64.885  1.00  0.00     0.000 HD 
HETATM   45  H1  UNL     1      -4.658  21.778  65.936  1.00  0.00     0.000 HD 
HETATM   46  N   UNL     1      -5.470  21.174  65.814  1.00  0.00    -0.223 N  
HETATM   47  O   UNL     1      -5.856  21.211  68.021  1.00  0.00    -0.316 OA 
ENDBRANCH  41  43
ENDBRANCH  34  35
ENDBRANCH  30  34
ENDBRANCH  15  30
ENDBRANCH  12  13
ENDBRANCH   6  12
ENDBRANCH   2   3
TORSDOF 10
ENDMDL
MODEL      278
REMARK 921   NORMALIZED FREE ENERGY PREDICTED BY IDOCK:    4.71 KCAL/MOL
REMARK 922        TOTAL FREE ENERGY PREDICTED BY IDOCK:    4.60 KCAL/MOL
REMARK 923 INTER-LIGAND FREE ENERGY PREDICTED BY IDOCK:    2.04 KCAL/MOL
REMARK 924 INTRA-LIGAND FREE ENERGY PREDICTED BY IDOCK:    2.55 KCAL/MOL
REMARK 927      BINDING AFFINITY PREDICTED BY RF-SCORE:    0.00 PKD
ROOT
HETATM    1  C   UNL     1     -12.404  10.233  65.687  1.00  0.00     6.529 C  
HETATM    2  O   UNL     1     -11.372  11.003  65.068  1.00  0.00     0.050 OA 
ENDROOT
BRANCH   2   3
HETATM    3  C   UNL     1     -10.178  10.368  64.832  1.00  0.00    -0.260 A  
HETATM    4  C   UNL     1      -9.411  10.558  63.680  1.00  0.00    -0.324 A  
HETATM    5  C   UNL     1      -8.156   9.956  63.547  1.00  0.00    -0.158 A  
HETATM    6  C   UNL     1      -7.645   9.118  64.542  1.00  0.00    -0.107 A  
HETATM    7  C   UNL     1      -8.441   8.877  65.673  1.00  0.00    -0.171 A  
HETATM    8  C   UNL     1     -10.441   9.180  67.077  1.00  0.00    -0.240 C  
HETATM    9  O   UNL     1     -11.239  10.169  67.530  1.00  0.00    -0.265 OA 
HETATM   10  C   UNL     1      -9.694   9.503  65.829  1.00  0.00    -0.357 A  
HETATM   11  O   UNL     1     -10.286   8.127  67.677  1.00  0.00    -0.219 OA 
BRANCH   6  12
HETATM   12  C   UNL     1      -6.261   8.505  64.449  1.00  0.00    -0.066 C  
BRANCH  12  13
HETATM   13  N   UNL     1      -5.583   8.246  65.732  1.00  0.00    -0.039 N  
HETATM   14  O   UNL     1      -5.172   6.851  67.533  1.00  0.00    -0.008 OA 
HETATM   15  C   UNL     1      -5.618   6.991  66.387  1.00  0.00    -0.023 C  
BRANCH  13  16
HETATM   16  C   UNL     1      -5.128   9.425  66.514  1.00  0.00    -0.043 C  
HETATM   17  C   UNL     1      -5.246  10.763  65.762  1.00  0.00    -0.122 C  
BRANCH  16  18
HETATM   18  C   UNL     1      -5.897   9.556  67.812  1.00  0.00    -0.044 A  
HETATM   19  C   UNL     1      -7.700   9.757  69.095  1.00  0.00    -0.092 A  
HETATM   20  C   UNL     1      -6.695   9.100  69.771  1.00  0.00    -0.050 A  
HETATM   21  N   UNL     1      -5.573   9.027  68.978  1.00  0.00    -0.036 NA 
HETATM   22  H   UNL     1      -4.666   8.641  69.240  1.00  0.00     0.000 HD 
HETATM   23  N   UNL     1      -7.171  10.070  67.867  1.00  0.00    -0.086 NA 
BRANCH  20  24
HETATM   24  C   UNL     1      -6.774   8.457  71.076  1.00  0.00    -0.049 A  
HETATM   25  C   UNL     1      -5.935   6.746  72.602  1.00  0.00    -0.042 A  
HETATM   26  C   UNL     1      -6.937   7.054  73.518  1.00  0.00    -0.073 A  
HETATM   27  C   UNL     1      -7.848   8.070  73.228  1.00  0.00    -0.217 A  
HETATM   28  C   UNL     1      -5.855   7.444  71.394  1.00  0.00    -0.036 A  
HETATM   29  C   UNL     1      -7.765   8.772  72.017  1.00  0.00    -0.025 A  
ENDBRANCH  20  24
ENDBRANCH  16  18
ENDBRANCH  13  16
BRANCH  15  30
HETATM   30  C   UNL     1      -6.211   5.765  65.597  1.00  0.00    -0.037 C  
HETATM   31  H2  UNL     1      -4.323   4.950  65.192  1.00  0.00     0.000 HD 
HETATM   32  N   UNL     1      -5.177   5.195  64.691  1.00  0.00    -0.009 NA 
HETATM   33  H1  UNL     1      -5.562   4.400  64.180  1.00  0.00     0.000 HD 
BRANCH  30  34
HETATM   34  C   UNL     1      -6.714   4.584  66.457  1.00  0.00    -0.051 C  
BRANCH  34  35
HETATM   35  C   UNL     1      -7.480   4.871  67.735  1.00  0.00    -0.079 A  
HETATM   36  C   UNL     1      -5.392   4.265  69.123  1.00  0.00    -0.011 C  
HETATM   37  C   UNL     1      -9.519   5.470  68.943  1.00  0.00    -0.165 A  
HETATM   38  C   UNL     1      -9.743   5.193  66.505  1.00  0.00    -0.184 C  
HETATM   39  C   UNL     1      -6.822   4.729  68.986  1.00  0.00    -0.051 A  
HETATM   40  C   UNL     1      -8.864   5.178  67.730  1.00  0.00    -0.106 A  
HETATM   41  C   UNL     1      -8.849   5.414  70.160  1.00  0.00    -0.142 A  
HETATM   42  C   UNL     1      -7.508   5.024  70.174  1.00  0.00    -0.059 A  
BRANCH  41  43
HETATM   43  C   UNL     1      -9.496   5.708  71.469  1.00  0.00    -0.150 C  
HETATM   44  H2  UNL     1     -10.571   7.334  70.743  1.00  0.00     0.000 HD 
HETATM   45  H1  UNL     1     -10.810   6.959  72.458  1.00  0.00     0.000 HD 
HETATM   46  N   UNL     1     -10.367   6.758  71.561  1.00  0.00    -0.207 N  
HETATM   47  O   UNL     1      -9.265   5.031  72.467  1.00  0.00    -0.132 OA 
ENDBRANCH  41  43
ENDBRANCH  34  35
ENDBRANCH  30  34
ENDBRANCH  15  30
ENDBRANCH  12  13
ENDBRANCH   6  12
ENDBRANCH   2   3
TORSDOF 10
ENDMDL
MODEL      279
REMARK 921   NORMALIZED FREE ENERGY PREDICTED BY IDOCK:    5.79 KCAL/MOL
REMARK 922        TOTAL FREE ENERGY PREDICTED BY IDOCK:    6.31 KCAL/MOL
REMARK 923 INTER-LIGAND FREE ENERGY PREDICTED BY IDOCK:    2.90 KCAL/MOL
REMARK 924 INTRA-LIGAND FREE ENERGY PREDICTED BY IDOCK:    3.40 KCAL/MOL
REMARK 927      BINDING AFFINITY PREDICTED BY RF-SCORE:    0.00 PKD
ROOT
HETATM    1  C   UNL     1      -7.603   4.246  65.406  1.00  0.00    -0.085 C  
HETATM    2  O   UNL     1      -8.539   5.120  64.773  1.00  0.00    -0.146 OA 
ENDROOT
BRANCH   2   3
HETATM    3  C   UNL     1      -9.228   5.986  65.585  1.00  0.00     0.045 A  
HETATM    4  C   UNL     1      -8.616   6.945  66.396  1.00  0.00    -0.135 A  
HETATM    5  C   UNL     1      -9.381   7.862  67.123  1.00  0.00    -0.190 A  
HETATM    6  C   UNL     1     -10.778   7.828  67.092  1.00  0.00    -0.337 A  
HETATM    7  C   UNL     1     -11.394   6.826  66.326  1.00  0.00     1.579 A  
HETATM    8  C   UNL     1     -11.399   4.907  64.783  1.00  0.00     1.063 C  
HETATM    9  O   UNL     1     -10.802   4.503  63.644  1.00  0.00     0.224 OA 
HETATM   10  C   UNL     1     -10.633   5.917  65.566  1.00  0.00     1.174 A  
HETATM   11  O   UNL     1     -12.513   4.532  65.116  1.00  0.00     2.481 OA 
BRANCH   6  12
HETATM   12  C   UNL     1     -11.626   8.851  67.821  1.00  0.00     1.822 C  
BRANCH  12  13
HETATM   13  N   UNL     1     -11.346   9.014  69.259  1.00  0.00     0.189 N  
HETATM   14  O   UNL     1     -10.428  10.241  70.994  1.00  0.00     0.145 OA 
HETATM   15  C   UNL     1     -10.795  10.195  69.812  1.00  0.00    -0.279 C  
BRANCH  13  16
HETATM   16  C   UNL     1     -11.339   7.786  70.096  1.00  0.00    -0.110 C  
HETATM   17  C   UNL     1     -11.029   6.494  69.317  1.00  0.00    -0.389 C  
BRANCH  16  18
HETATM   18  C   UNL     1     -10.336   7.895  71.226  1.00  0.00    -0.191 A  
HETATM   19  C   UNL     1      -9.661   8.027  73.339  1.00  0.00    -0.207 A  
HETATM   20  C   UNL     1      -8.697   7.424  72.559  1.00  0.00    -0.123 A  
HETATM   21  N   UNL     1      -9.114   7.395  71.247  1.00  0.00    -0.142 NA 
HETATM   22  H   UNL     1      -8.582   7.053  70.447  1.00  0.00     0.000 HD 
HETATM   23  N   UNL     1     -10.680   8.350  72.477  1.00  0.00    -0.338 NA 
BRANCH  20  24
HETATM   24  C   UNL     1      -7.461   6.793  73.001  1.00  0.00    -0.086 A  
HETATM   25  C   UNL     1      -5.854   4.973  72.751  1.00  0.00    -0.025 A  
HETATM   26  C   UNL     1      -5.159   5.415  73.872  1.00  0.00    -0.021 A  
HETATM   27  C   UNL     1      -5.598   6.552  74.552  1.00  0.00    -0.055 A  
HETATM   28  C   UNL     1      -6.993   5.658  72.320  1.00  0.00    -0.082 A  
HETATM   29  C   UNL     1      -6.739   7.241  74.117  1.00  0.00    -0.083 A  
ENDBRANCH  20  24
ENDBRANCH  16  18
ENDBRANCH  13  16
BRANCH  15  30
HETATM   30  C   UNL     1     -10.694  11.464  68.886  1.00  0.00    -0.210 C  
HETATM   31  H2  UNL     1     -12.770  11.747  68.832  1.00  0.00     0.000 HD 
HETATM   32  N   UNL     1     -11.987  11.684  68.182  1.00  0.00    -0.590 NA 
HETATM   33  H1  UNL     1     -11.921  12.507  67.583  1.00  0.00     0.000 HD 
BRANCH  30  34
HETATM   34  C   UNL     1     -10.369  12.797  69.597  1.00  0.00     0.890 C  
BRANCH  34  35
HETATM   35  C   UNL     1      -9.943  13.995  68.768  1.00  0.00    -0.164 A  
HETATM   36  C   UNL     1     -11.680  15.459  69.990  1.00  0.00    -0.349 C  
HETATM   37  C   UNL     1      -8.624  15.031  66.989  1.00  0.00    -0.266 A  
HETATM   38  C   UNL     1      -8.392  12.591  67.231  1.00  0.00    -0.185 C  
HETATM   39  C   UNL     1     -10.569  15.251  68.988  1.00  0.00    -0.245 A  
HETATM   40  C   UNL     1      -9.011  13.881  67.706  1.00  0.00    -0.188 A  
HETATM   41  C   UNL     1      -9.177  16.278  67.267  1.00  0.00    -0.217 A  
HETATM   42  C   UNL     1     -10.162  16.374  68.252  1.00  0.00    -0.255 A  
BRANCH  41  43
HETATM   43  C   UNL     1      -8.808  17.522  66.536  1.00  0.00    -0.266 C  
HETATM   44  H2  UNL     1      -6.797  17.409  67.057  1.00  0.00     0.000 HD 
HETATM   45  H1  UNL     1      -7.253  18.794  66.051  1.00  0.00     0.000 HD 
HETATM   46  N   UNL     1      -7.506  17.942  66.552  1.00  0.00    -0.227 N  
HETATM   47  O   UNL     1      -9.643  18.179  65.923  1.00  0.00    -0.519 OA 
ENDBRANCH  41  43
ENDBRANCH  34  35
ENDBRANCH  30  34
ENDBRANCH  15  30
ENDBRANCH  12  13
ENDBRANCH   6  12
ENDBRANCH   2   3
TORSDOF 10
ENDMDL
MODEL      280
REMARK 921   NORMALIZED FREE ENERGY PREDICTED BY IDOCK:    6.04 KCAL/MOL
REMARK 922        TOTAL FREE ENERGY PREDICTED BY IDOCK:    6.70 KCAL/MOL
REMARK 923 INTER-LIGAND FREE ENERGY PREDICTED BY IDOCK:    5.10 KCAL/MOL
REMARK 924 INTRA-LIGAND FREE ENERGY PREDICTED BY IDOCK:    1.60 KCAL/MOL
REMARK 927      BINDING AFFINITY PREDICTED BY RF-SCORE:    0.00 PKD
ROOT
HETATM    1  C   UNL     1     -11.683  13.657  62.936  1.00  0.00     1.263 C  
HETATM    2  O   UNL     1     -12.008  14.619  63.941  1.00  0.00    -0.373 OA 
ENDROOT
BRANCH   2   3
HETATM    3  C   UNL     1     -11.980  14.192  65.244  1.00  0.00    -0.381 A  
HETATM    4  C   UNL     1     -13.119  13.832  65.969  1.00  0.00     0.124 A  
HETATM    5  C   UNL     1     -13.011  13.310  67.262  1.00  0.00     1.969 A  
HETATM    6  C   UNL     1     -11.767  13.165  67.884  1.00  0.00    -0.398 A  
HETATM    7  C   UNL     1     -10.627  13.583  67.179  1.00  0.00    -0.264 A  
HETATM    8  C   UNL     1      -9.443  14.481  65.216  1.00  0.00     0.347 C  
HETATM    9  O   UNL     1      -9.421  14.339  63.875  1.00  0.00     2.426 OA 
HETATM   10  C   UNL     1     -10.723  14.082  65.866  1.00  0.00    -0.293 A  
HETATM   11  O   UNL     1      -8.470  14.842  65.860  1.00  0.00     0.492 OA 
BRANCH   6  12
HETATM   12  C   UNL     1     -11.620  12.543  69.258  1.00  0.00    -0.319 C  
BRANCH  12  13
HETATM   13  N   UNL     1     -10.242  12.424  69.768  1.00  0.00     1.072 N  
HETATM   14  O   UNL     1      -8.125  13.319  70.042  1.00  0.00     1.753 OA 
HETATM   15  C   UNL     1      -9.315  13.495  69.753  1.00  0.00     1.881 C  
BRANCH  13  16
HETATM   16  C   UNL     1      -9.716  11.054  70.001  1.00  0.00     1.031 C  
HETATM   17  C   UNL     1     -10.763  10.060  70.537  1.00  0.00    -0.352 C  
BRANCH  16  18
HETATM   18  C   UNL     1      -9.128  10.466  68.734  1.00  0.00    -0.165 A  
HETATM   19  C   UNL     1      -8.338   8.864  67.413  1.00  0.00    -0.108 A  
HETATM   20  C   UNL     1      -8.912   9.870  66.666  1.00  0.00    -0.139 A  
HETATM   21  N   UNL     1      -9.352  10.874  67.498  1.00  0.00    -0.154 NA 
HETATM   22  H   UNL     1      -9.770  11.760  67.216  1.00  0.00     0.000 HD 
HETATM   23  N   UNL     1      -8.452   9.269  68.720  1.00  0.00    -0.127 NA 
BRANCH  20  24
HETATM   24  C   UNL     1      -9.151   9.884  65.229  1.00  0.00    -0.256 A  
HETATM   25  C   UNL     1      -8.477   9.138  63.004  1.00  0.00    -0.206 A  
HETATM   26  C   UNL     1      -9.441   9.957  62.423  1.00  0.00    -0.174 A  
HETATM   27  C   UNL     1     -10.273  10.727  63.237  1.00  0.00    -0.243 A  
HETATM   28  C   UNL     1      -8.336   9.102  64.394  1.00  0.00    -0.180 A  
HETATM   29  C   UNL     1     -10.133  10.688  64.632  1.00  0.00    -0.417 A  
ENDBRANCH  20  24
ENDBRANCH  16  18
ENDBRANCH  13  16
BRANCH  15  30
HETATM   30  C   UNL     1      -9.854  14.929  69.389  1.00  0.00    -0.118 C  
HETATM   31  H2  UNL     1     -10.963  15.100  71.159  1.00  0.00     0.000 HD 
HETATM   32  N   UNL     1     -11.098  15.214  70.155  1.00  0.00    -0.265 NA 
HETATM   33  H1  UNL     1     -11.446  16.144  69.919  1.00  0.00     0.000 HD 
BRANCH  30  34
HETATM   34  C   UNL     1      -8.898  16.107  69.685  1.00  0.00     0.178 C  
BRANCH  34  35
HETATM   35  C   UNL     1      -8.220  16.819  68.530  1.00  0.00    -0.242 A  
HETATM   36  C   UNL     1     -10.514  17.654  67.698  1.00  0.00    -0.372 C  
HETATM   37  C   UNL     1      -6.246  17.396  67.208  1.00  0.00    -0.173 A  
HETATM   38  C   UNL     1      -5.890  15.795  69.047  1.00  0.00    -0.106 C  
HETATM   39  C   UNL     1      -9.009  17.562  67.612  1.00  0.00    -0.231 A  
HETATM   40  C   UNL     1      -6.832  16.685  68.275  1.00  0.00    -0.147 A  
HETATM   41  C   UNL     1      -7.010  18.193  66.362  1.00  0.00    -0.270 A  
HETATM   42  C   UNL     1      -8.391  18.254  66.559  1.00  0.00    -0.287 A  
BRANCH  41  43
HETATM   43  C   UNL     1      -6.442  18.960  65.219  1.00  0.00    -0.257 C  
HETATM   44  H2  UNL     1      -7.356  20.746  65.767  1.00  0.00     0.000 HD 
HETATM   45  H1  UNL     1      -6.358  20.812  64.306  1.00  0.00     0.000 HD 
HETATM   46  N   UNL     1      -6.747  20.287  65.089  1.00  0.00    -0.308 N  
HETATM   47  O   UNL     1      -5.708  18.429  64.390  1.00  0.00    -0.110 OA 
ENDBRANCH  41  43
ENDBRANCH  34  35
ENDBRANCH  30  34
ENDBRANCH  15  30
ENDBRANCH  12  13
ENDBRANCH   6  12
ENDBRANCH   2   3
TORSDOF 10
ENDMDL
MODEL      281
REMARK 921   NORMALIZED FREE ENERGY PREDICTED BY IDOCK:    6.19 KCAL/MOL
REMARK 922        TOTAL FREE ENERGY PREDICTED BY IDOCK:    6.94 KCAL/MOL
REMARK 923 INTER-LIGAND FREE ENERGY PREDICTED BY IDOCK:   -5.44 KCAL/MOL
REMARK 924 INTRA-LIGAND FREE ENERGY PREDICTED BY IDOCK:   12.38 KCAL/MOL
REMARK 927      BINDING AFFINITY PREDICTED BY RF-SCORE:    0.00 PKD
ROOT
HETATM    1  C   UNL     1      -6.428   9.282  66.163  1.00  0.00    -0.069 C  
HETATM    2  O   UNL     1      -7.507   9.508  67.071  1.00  0.00    -0.090 OA 
ENDROOT
BRANCH   2   3
HETATM    3  C   UNL     1      -8.137  10.725  66.999  1.00  0.00    -0.124 A  
HETATM    4  C   UNL     1      -9.525  10.881  66.972  1.00  0.00    -0.184 A  
HETATM    5  C   UNL     1     -10.104  12.154  66.998  1.00  0.00    -0.219 A  
HETATM    6  C   UNL     1      -9.316  13.309  67.015  1.00  0.00    -0.242 A  
HETATM    7  C   UNL     1      -7.921  13.153  66.980  1.00  0.00     0.001 A  
HETATM    8  C   UNL     1      -5.839  11.838  66.959  1.00  0.00    -0.145 C  
HETATM    9  O   UNL     1      -5.290  10.774  67.578  1.00  0.00    -0.042 OA 
HETATM   10  C   UNL     1      -7.329  11.876  66.984  1.00  0.00    -0.118 A  
HETATM   11  O   UNL     1      -5.172  12.740  66.475  1.00  0.00     0.179 OA 
BRANCH   6  12
HETATM   12  C   UNL     1      -9.920  14.696  67.108  1.00  0.00    -0.240 C  
BRANCH  12  13
HETATM   13  N   UNL     1     -10.617  15.177  65.902  1.00  0.00    -0.320 N  
HETATM   14  O   UNL     1     -11.241  16.919  64.511  1.00  0.00    -1.057 OA 
HETATM   15  C   UNL     1     -10.523  16.510  65.432  1.00  0.00    -0.269 C  
BRANCH  13  16
HETATM   16  C   UNL     1     -11.703  14.323  65.354  1.00  0.00    -0.354 C  
HETATM   17  C   UNL     1     -11.310  13.540  64.088  1.00  0.00    -0.370 C  
BRANCH  16  18
HETATM   18  C   UNL     1     -12.190  13.324  66.383  1.00  0.00    -0.356 A  
HETATM   19  C   UNL     1     -12.347  11.343  67.377  1.00  0.00     1.456 A  
HETATM   20  C   UNL     1     -12.550  12.359  68.286  1.00  0.00     1.263 A  
HETATM   21  N   UNL     1     -12.496  13.575  67.642  1.00  0.00    -0.190 NA 
HETATM   22  H   UNL     1     -12.661  14.492  68.058  1.00  0.00     0.000 HD 
HETATM   23  N   UNL     1     -12.152  11.966  66.169  1.00  0.00    -0.427 NA 
BRANCH  20  24
HETATM   24  C   UNL     1     -12.692  12.245  69.731  1.00  0.00     0.456 A  
HETATM   25  C   UNL     1     -12.652  13.335  71.915  1.00  0.00    -0.145 A  
HETATM   26  C   UNL     1     -12.807  12.105  72.547  1.00  0.00     0.779 A  
HETATM   27  C   UNL     1     -12.922  10.945  71.779  1.00  0.00    -0.557 A  
HETATM   28  C   UNL     1     -12.597  13.403  70.520  1.00  0.00    -0.281 A  
HETATM   29  C   UNL     1     -12.871  11.014  70.379  1.00  0.00    -0.221 A  
ENDBRANCH  20  24
ENDBRANCH  16  18
ENDBRANCH  13  16
BRANCH  15  30
HETATM   30  C   UNL     1      -9.449  17.451  66.097  1.00  0.00    -0.169 C  
HETATM   31  H2  UNL     1     -10.432  17.476  67.948  1.00  0.00     0.000 HD 
HETATM   32  N   UNL     1     -10.037  18.137  67.280  1.00  0.00    -0.330 NA 
HETATM   33  H1  UNL     1      -9.341  18.746  67.710  1.00  0.00     0.000 HD 
BRANCH  30  34
HETATM   34  C   UNL     1      -8.165  16.760  66.607  1.00  0.00    -0.296 C  
BRANCH  34  35
HETATM   35  C   UNL     1      -7.444  17.332  67.813  1.00  0.00    -0.184 A  
HETATM   36  C   UNL     1      -7.705  19.707  66.842  1.00  0.00    -0.288 C  
HETATM   37  C   UNL     1      -6.230  17.087  69.921  1.00  0.00    -0.132 A  
HETATM   38  C   UNL     1      -6.816  14.996  68.757  1.00  0.00    -0.105 C  
HETATM   39  C   UNL     1      -7.256  18.737  67.908  1.00  0.00    -0.256 A  
HETATM   40  C   UNL     1      -6.859  16.503  68.802  1.00  0.00    -0.175 A  
HETATM   41  C   UNL     1      -6.124  18.468  70.053  1.00  0.00    -0.142 A  
HETATM   42  C   UNL     1      -6.621  19.283  69.034  1.00  0.00    -0.340 A  
BRANCH  41  43
HETATM   43  C   UNL     1      -5.465  19.135  71.211  1.00  0.00    -0.235 C  
HETATM   44  H2  UNL     1      -5.394  20.998  70.289  1.00  0.00     0.000 HD 
HETATM   45  H1  UNL     1      -4.717  20.924  71.924  1.00  0.00     0.000 HD 
HETATM   46  N   UNL     1      -5.168  20.467  71.131  1.00  0.00    -0.242 N  
HETATM   47  O   UNL     1      -5.183  18.517  72.233  1.00  0.00    -0.661 OA 
ENDBRANCH  41  43
ENDBRANCH  34  35
ENDBRANCH  30  34
ENDBRANCH  15  30
ENDBRANCH  12  13
ENDBRANCH   6  12
ENDBRANCH   2   3
TORSDOF 10
ENDMDL
MODEL      282
REMARK 921   NORMALIZED FREE ENERGY PREDICTED BY IDOCK:    6.42 KCAL/MOL
REMARK 922        TOTAL FREE ENERGY PREDICTED BY IDOCK:    7.30 KCAL/MOL
REMARK 923 INTER-LIGAND FREE ENERGY PREDICTED BY IDOCK:   -0.45 KCAL/MOL
REMARK 924 INTRA-LIGAND FREE ENERGY PREDICTED BY IDOCK:    7.75 KCAL/MOL
REMARK 927      BINDING AFFINITY PREDICTED BY RF-SCORE:    0.00 PKD
ROOT
HETATM    1  C   UNL     1      -5.714  21.380  66.243  1.00  0.00    -0.258 C  
HETATM    2  O   UNL     1      -6.851  20.950  66.994  1.00  0.00    -0.296 OA 
ENDROOT
BRANCH   2   3
HETATM    3  C   UNL     1      -7.042  19.596  67.113  1.00  0.00    -0.204 A  
HETATM    4  C   UNL     1      -7.208  18.736  66.025  1.00  0.00    -0.295 A  
HETATM    5  C   UNL     1      -7.299  17.353  66.213  1.00  0.00    -0.347 A  
HETATM    6  C   UNL     1      -7.265  16.790  67.492  1.00  0.00    -0.172 A  
HETATM    7  C   UNL     1      -7.160  17.659  68.589  1.00  0.00    -0.245 A  
HETATM    8  C   UNL     1      -6.920  19.869  69.649  1.00  0.00    -0.191 C  
HETATM    9  O   UNL     1      -6.200  21.001  69.513  1.00  0.00    -0.118 OA 
HETATM   10  C   UNL     1      -7.037  19.051  68.410  1.00  0.00    -0.304 A  
HETATM   11  O   UNL     1      -7.382  19.502  70.719  1.00  0.00     0.792 OA 
BRANCH   6  12
HETATM   12  C   UNL     1      -7.298  15.291  67.715  1.00  0.00    -0.163 C  
BRANCH  12  13
HETATM   13  N   UNL     1      -7.484  14.852  69.110  1.00  0.00    -0.147 N  
HETATM   14  O   UNL     1      -8.640  14.977  71.111  1.00  0.00     2.119 OA 
HETATM   15  C   UNL     1      -8.593  15.235  69.901  1.00  0.00     0.172 C  
BRANCH  13  16
HETATM   16  C   UNL     1      -6.310  14.258  69.801  1.00  0.00    -0.144 C  
HETATM   17  C   UNL     1      -6.118  14.747  71.248  1.00  0.00     0.162 C  
BRANCH  16  18
HETATM   18  C   UNL     1      -6.395  12.746  69.832  1.00  0.00    -0.030 A  
HETATM   19  C   UNL     1      -5.613  10.666  69.837  1.00  0.00    -0.051 A  
HETATM   20  C   UNL     1      -6.813  10.735  70.512  1.00  0.00     0.347 A  
HETATM   21  N   UNL     1      -7.304  12.020  70.456  1.00  0.00     1.214 NA 
HETATM   22  H   UNL     1      -8.196  12.348  70.826  1.00  0.00     0.000 HD 
HETATM   23  N   UNL     1      -5.375  11.940  69.383  1.00  0.00    -0.060 NA 
BRANCH  20  24
HETATM   24  C   UNL     1      -7.463   9.682  71.282  1.00  0.00     0.403 A  
HETATM   25  C   UNL     1      -9.515   8.488  71.846  1.00  0.00    -0.350 A  
HETATM   26  C   UNL     1      -8.841   7.766  72.827  1.00  0.00    -0.227 A  
HETATM   27  C   UNL     1      -7.478   7.984  73.028  1.00  0.00    -0.163 A  
HETATM   28  C   UNL     1      -8.831   9.435  71.081  1.00  0.00     0.014 A  
HETATM   29  C   UNL     1      -6.790   8.933  72.257  1.00  0.00     0.069 A  
ENDBRANCH  20  24
ENDBRANCH  16  18
ENDBRANCH  13  16
BRANCH  15  30
HETATM   30  C   UNL     1      -9.788  15.972  69.187  1.00  0.00    -0.247 C  
HETATM   31  H2  UNL     1      -9.395  17.799  70.137  1.00  0.00     0.000 HD 
HETATM   32  N   UNL     1     -10.184  17.174  69.970  1.00  0.00     0.284 NA 
HETATM   33  H1  UNL     1     -10.958  17.651  69.507  1.00  0.00     0.000 HD 
BRANCH  30  34
HETATM   34  C   UNL     1      -9.514  16.475  67.753  1.00  0.00    -0.222 C  
BRANCH  34  35
HETATM   35  C   UNL     1     -10.126  15.735  66.578  1.00  0.00    -0.292 A  
HETATM   36  C   UNL     1      -9.606  13.484  67.724  1.00  0.00    -0.219 C  
HETATM   37  C   UNL     1     -11.155  15.677  64.361  1.00  0.00    -0.178 A  
HETATM   38  C   UNL     1     -10.419  17.889  65.158  1.00  0.00     0.638 C  
HETATM   39  C   UNL     1     -10.173  14.316  66.599  1.00  0.00    -0.272 A  
HETATM   40  C   UNL     1     -10.562  16.409  65.409  1.00  0.00    -0.338 A  
HETATM   41  C   UNL     1     -11.278  14.293  64.423  1.00  0.00    -0.262 A  
HETATM   42  C   UNL     1     -10.768  13.620  65.535  1.00  0.00    -0.296 A  
BRANCH  41  43
HETATM   43  C   UNL     1     -11.892  13.472  63.342  1.00  0.00    -0.169 C  
HETATM   44  H2  UNL     1     -10.456  11.973  63.460  1.00  0.00     0.000 HD 
HETATM   45  H1  UNL     1     -11.724  11.728  62.248  1.00  0.00     0.000 HD 
HETATM   46  N   UNL     1     -11.304  12.289  62.988  1.00  0.00    -0.137 N  
HETATM   47  O   UNL     1     -12.910  13.834  62.760  1.00  0.00    -0.266 OA 
ENDBRANCH  41  43
ENDBRANCH  34  35
ENDBRANCH  30  34
ENDBRANCH  15  30
ENDBRANCH  12  13
ENDBRANCH   6  12
ENDBRANCH   2   3
TORSDOF 10
ENDMDL
MODEL      283
REMARK 921   NORMALIZED FREE ENERGY PREDICTED BY IDOCK:    6.73 KCAL/MOL
REMARK 922        TOTAL FREE ENERGY PREDICTED BY IDOCK:    7.79 KCAL/MOL
REMARK 923 INTER-LIGAND FREE ENERGY PREDICTED BY IDOCK:   -1.21 KCAL/MOL
REMARK 924 INTRA-LIGAND FREE ENERGY PREDICTED BY IDOCK:    8.99 KCAL/MOL
REMARK 927      BINDING AFFINITY PREDICTED BY RF-SCORE:    0.00 PKD
ROOT
HETATM    1  C   UNL     1      -7.873   2.239  72.788  1.00  0.00    -0.053 C  
HETATM    2  O   UNL     1      -7.765   3.399  73.615  1.00  0.00    -0.063 OA 
ENDROOT
BRANCH   2   3
HETATM    3  C   UNL     1      -8.232   4.580  73.093  1.00  0.00    -0.099 A  
HETATM    4  C   UNL     1      -7.964   5.834  73.649  1.00  0.00    -0.108 A  
HETATM    5  C   UNL     1      -8.386   7.005  73.012  1.00  0.00    -0.122 A  
HETATM    6  C   UNL     1      -9.119   6.960  71.823  1.00  0.00    -0.138 A  
HETATM    7  C   UNL     1      -9.441   5.699  71.297  1.00  0.00    -0.179 A  
HETATM    8  C   UNL     1      -9.389   3.237  71.256  1.00  0.00    -0.136 C  
HETATM    9  O   UNL     1      -8.512   2.226  71.414  1.00  0.00    -0.060 OA 
HETATM   10  C   UNL     1      -8.995   4.514  71.914  1.00  0.00    -0.148 A  
HETATM   11  O   UNL     1     -10.394   3.141  70.569  1.00  0.00     0.595 OA 
BRANCH   6  12
HETATM   12  C   UNL     1      -9.532   8.216  71.082  1.00  0.00    -0.157 C  
BRANCH  12  13
HETATM   13  N   UNL     1     -10.841   8.163  70.405  1.00  0.00    -0.234 N  
HETATM   14  O   UNL     1     -12.199   7.307  68.737  1.00  0.00     1.689 OA 
HETATM   15  C   UNL     1     -11.151   7.225  69.391  1.00  0.00    -0.068 C  
BRANCH  13  16
HETATM   16  C   UNL     1     -11.740   9.336  70.564  1.00  0.00    -0.176 C  
HETATM   17  C   UNL     1     -11.666  10.002  71.950  1.00  0.00     0.137 C  
BRANCH  16  18
HETATM   18  C   UNL     1     -11.448  10.399  69.525  1.00  0.00    -0.246 A  
HETATM   19  C   UNL     1     -11.819  11.620  67.706  1.00  0.00    -0.176 A  
HETATM   20  C   UNL     1     -11.079  12.332  68.625  1.00  0.00    -0.249 A  
HETATM   21  N   UNL     1     -10.819  11.544  69.723  1.00  0.00    -0.453 NA 
HETATM   22  H   UNL     1     -10.252  11.794  70.532  1.00  0.00     0.000 HD 
HETATM   23  N   UNL     1     -12.018  10.386  68.274  1.00  0.00    -0.149 NA 
BRANCH  20  24
HETATM   24  C   UNL     1     -10.695  13.736  68.562  1.00  0.00    -0.274 A  
HETATM   25  C   UNL     1     -11.266  16.018  67.908  1.00  0.00    -0.276 A  
HETATM   26  C   UNL     1      -9.992  16.452  68.262  1.00  0.00    -0.243 A  
HETATM   27  C   UNL     1      -9.072  15.539  68.781  1.00  0.00    -0.207 A  
HETATM   28  C   UNL     1     -11.613  14.673  68.059  1.00  0.00    -0.366 A  
HETATM   29  C   UNL     1      -9.422  14.190  68.935  1.00  0.00    -0.029 A  
ENDBRANCH  20  24
ENDBRANCH  16  18
ENDBRANCH  13  16
BRANCH  15  30
HETATM   30  C   UNL     1     -10.137   6.046  69.143  1.00  0.00    -0.181 C  
HETATM   31  H2  UNL     1     -10.937   5.586  67.261  1.00  0.00     0.000 HD 
HETATM   32  N   UNL     1     -10.686   5.108  68.126  1.00  0.00     0.070 NA 
HETATM   33  H1  UNL     1     -10.029   4.345  67.966  1.00  0.00     0.000 HD 
BRANCH  30  34
HETATM   34  C   UNL     1      -8.738   6.453  68.627  1.00  0.00    -0.122 C  
BRANCH  34  35
HETATM   35  C   UNL     1      -8.573   7.773  67.897  1.00  0.00    -0.122 A  
HETATM   36  C   UNL     1      -6.994   8.605  69.759  1.00  0.00    -0.046 C  
HETATM   37  C   UNL     1      -9.101   9.314  66.074  1.00  0.00    -0.235 A  
HETATM   38  C   UNL     1     -10.385   7.212  66.124  1.00  0.00     0.534 C  
HETATM   39  C   UNL     1      -7.724   8.770  68.447  1.00  0.00    -0.096 A  
HETATM   40  C   UNL     1      -9.318   8.087  66.733  1.00  0.00    -0.229 A  
HETATM   41  C   UNL     1      -8.203  10.254  66.570  1.00  0.00    -0.127 A  
HETATM   42  C   UNL     1      -7.536   9.982  67.766  1.00  0.00    -0.089 A  
BRANCH  41  43
HETATM   43  C   UNL     1      -7.941  11.566  65.915  1.00  0.00     0.270 C  
HETATM   44  H2  UNL     1      -9.820  11.670  65.031  1.00  0.00     0.000 HD 
HETATM   45  H1  UNL     1      -8.741  13.035  64.704  1.00  0.00     0.000 HD 
HETATM   46  N   UNL     1      -8.921  12.137  65.151  1.00  0.00     0.430 N  
HETATM   47  O   UNL     1      -6.867  12.145  66.045  1.00  0.00     0.725 OA 
ENDBRANCH  41  43
ENDBRANCH  34  35
ENDBRANCH  30  34
ENDBRANCH  15  30
ENDBRANCH  12  13
ENDBRANCH   6  12
ENDBRANCH   2   3
TORSDOF 10
ENDMDL
MODEL      284
REMARK 921   NORMALIZED FREE ENERGY PREDICTED BY IDOCK:    7.19 KCAL/MOL
REMARK 922        TOTAL FREE ENERGY PREDICTED BY IDOCK:    8.52 KCAL/MOL
REMARK 923 INTER-LIGAND FREE ENERGY PREDICTED BY IDOCK:    8.07 KCAL/MOL
REMARK 924 INTRA-LIGAND FREE ENERGY PREDICTED BY IDOCK:    0.45 KCAL/MOL
REMARK 927      BINDING AFFINITY PREDICTED BY RF-SCORE:    0.00 PKD
ROOT
HETATM    1  C   UNL     1     -11.498  13.558  62.806  1.00  0.00     2.141 C  
HETATM    2  O   UNL     1     -11.999  14.716  63.476  1.00  0.00    -0.150 OA 
ENDROOT
BRANCH   2   3
HETATM    3  C   UNL     1     -12.257  14.596  64.819  1.00  0.00    -0.394 A  
HETATM    4  C   UNL     1     -13.542  14.597  65.366  1.00  0.00     1.448 A  
HETATM    5  C   UNL     1     -13.739  14.371  66.732  1.00  0.00     5.067 A  
HETATM    6  C   UNL     1     -12.659  14.173  67.598  1.00  0.00     0.419 A  
HETATM    7  C   UNL     1     -11.365  14.233  67.058  1.00  0.00    -0.354 A  
HETATM    8  C   UNL     1      -9.739  14.462  65.223  1.00  0.00    -0.042 C  
HETATM    9  O   UNL     1      -9.540  14.017  63.966  1.00  0.00     1.121 OA 
HETATM   10  C   UNL     1     -11.157  14.430  65.679  1.00  0.00    -0.321 A  
HETATM   11  O   UNL     1      -8.824  14.798  65.959  1.00  0.00    -0.053 OA 
BRANCH   6  12
HETATM   12  C   UNL     1     -12.851  13.863  69.069  1.00  0.00     1.039 C  
BRANCH  12  13
HETATM   13  N   UNL     1     -11.618  13.693  69.858  1.00  0.00    -0.244 N  
HETATM   14  O   UNL     1      -9.518  14.444  70.477  1.00  0.00     1.449 OA 
HETATM   15  C   UNL     1     -10.605  14.680  69.935  1.00  0.00     0.016 C  
BRANCH  13  16
HETATM   16  C   UNL     1     -11.285  12.319  70.317  1.00  0.00     0.620 C  
HETATM   17  C   UNL     1     -12.480  11.543  70.900  1.00  0.00    -0.464 C  
BRANCH  16  18
HETATM   18  C   UNL     1     -10.699  11.489  69.193  1.00  0.00    -0.168 A  
HETATM   19  C   UNL     1     -10.718  10.346  67.288  1.00  0.00    -0.273 A  
HETATM   20  C   UNL     1      -9.476  10.903  67.508  1.00  0.00    -0.155 A  
HETATM   21  N   UNL     1      -9.471  11.566  68.714  1.00  0.00    -0.362 NA 
HETATM   22  H   UNL     1      -8.674  12.026  69.153  1.00  0.00     0.000 HD 
HETATM   23  N   UNL     1     -11.474  10.698  68.379  1.00  0.00    -0.336 NA 
BRANCH  20  24
HETATM   24  C   UNL     1      -8.338  10.923  66.599  1.00  0.00    -0.143 A  
HETATM   25  C   UNL     1      -7.161   9.899  64.721  1.00  0.00    -0.133 A  
HETATM   26  C   UNL     1      -6.103  10.788  64.882  1.00  0.00     0.086 A  
HETATM   27  C   UNL     1      -6.163  11.757  65.886  1.00  0.00     1.017 A  
HETATM   28  C   UNL     1      -8.268   9.968  65.571  1.00  0.00    -0.146 A  
HETATM   29  C   UNL     1      -7.275  11.828  66.737  1.00  0.00    -0.050 A  
ENDBRANCH  20  24
ENDBRANCH  16  18
ENDBRANCH  13  16
BRANCH  15  30
HETATM   30  C   UNL     1     -10.918  16.104  69.341  1.00  0.00    -0.333 C  
HETATM   31  H2  UNL     1     -12.130  16.653  70.960  1.00  0.00     0.000 HD 
HETATM   32  N   UNL     1     -12.169  16.642  69.942  1.00  0.00     0.174 NA 
HETATM   33  H1  UNL     1     -12.371  17.565  69.556  1.00  0.00     0.000 HD 
BRANCH  30  34
HETATM   34  C   UNL     1      -9.841  17.187  69.572  1.00  0.00     0.125 C  
BRANCH  34  35
HETATM   35  C   UNL     1      -8.918  17.570  68.431  1.00  0.00    -0.276 A  
HETATM   36  C   UNL     1      -7.199  15.823  69.234  1.00  0.00    -0.211 C  
HETATM   37  C   UNL     1      -8.330  18.947  66.498  1.00  0.00    -0.310 A  
HETATM   38  C   UNL     1     -10.387  19.581  67.696  1.00  0.00    -0.574 C  
HETATM   39  C   UNL     1      -7.678  16.894  68.282  1.00  0.00    -0.205 A  
HETATM   40  C   UNL     1      -9.204  18.655  67.564  1.00  0.00    -0.295 A  
HETATM   41  C   UNL     1      -7.157  18.224  66.304  1.00  0.00    -0.293 A  
HETATM   42  C   UNL     1      -6.830  17.215  67.212  1.00  0.00    -0.194 A  
BRANCH  41  43
HETATM   43  C   UNL     1      -6.197  18.496  65.198  1.00  0.00    -0.212 C  
HETATM   44  H2  UNL     1      -7.313  20.066  64.414  1.00  0.00     0.000 HD 
HETATM   45  H1  UNL     1      -5.808  19.691  63.558  1.00  0.00     0.000 HD 
HETATM   46  N   UNL     1      -6.466  19.505  64.316  1.00  0.00     0.077 N  
HETATM   47  O   UNL     1      -5.173  17.834  65.059  1.00  0.00    -0.035 OA 
ENDBRANCH  41  43
ENDBRANCH  34  35
ENDBRANCH  30  34
ENDBRANCH  15  30
ENDBRANCH  12  13
ENDBRANCH   6  12
ENDBRANCH   2   3
TORSDOF 10
ENDMDL
MODEL      285
REMARK 921   NORMALIZED FREE ENERGY PREDICTED BY IDOCK:    7.50 KCAL/MOL
REMARK 922        TOTAL FREE ENERGY PREDICTED BY IDOCK:    9.01 KCAL/MOL
REMARK 923 INTER-LIGAND FREE ENERGY PREDICTED BY IDOCK:    2.53 KCAL/MOL
REMARK 924 INTRA-LIGAND FREE ENERGY PREDICTED BY IDOCK:    6.48 KCAL/MOL
REMARK 927      BINDING AFFINITY PREDICTED BY RF-SCORE:    0.00 PKD
ROOT
HETATM    1  C   UNL     1      -6.269  14.075  71.392  1.00  0.00     0.226 C  
HETATM    2  O   UNL     1      -5.326  13.099  70.946  1.00  0.00    -0.141 OA 
ENDROOT
BRANCH   2   3
HETATM    3  C   UNL     1      -5.803  12.094  70.143  1.00  0.00    -0.162 A  
HETATM    4  C   UNL     1      -5.690  10.735  70.448  1.00  0.00    -0.100 A  
HETATM    5  C   UNL     1      -6.286   9.766  69.635  1.00  0.00    -0.045 A  
HETATM    6  C   UNL     1      -6.981  10.120  68.475  1.00  0.00    -0.069 A  
HETATM    7  C   UNL     1      -7.043  11.480  68.135  1.00  0.00    -0.076 A  
HETATM    8  C   UNL     1      -6.614  13.877  68.504  1.00  0.00    -0.098 C  
HETATM    9  O   UNL     1      -6.671  14.790  69.494  1.00  0.00    -0.136 OA 
HETATM   10  C   UNL     1      -6.472  12.466  68.963  1.00  0.00    -0.097 A  
HETATM   11  O   UNL     1      -6.739  14.170  67.325  1.00  0.00    -0.250 OA 
BRANCH   6  12
HETATM   12  C   UNL     1      -7.689   9.092  67.614  1.00  0.00    -0.089 C  
BRANCH  12  13
HETATM   13  N   UNL     1      -8.521   9.630  66.523  1.00  0.00    -0.123 N  
HETATM   14  O   UNL     1     -10.343   9.430  65.110  1.00  0.00     0.370 OA 
HETATM   15  C   UNL     1      -9.749   9.048  66.126  1.00  0.00    -0.283 C  
BRANCH  13  16
HETATM   16  C   UNL     1      -7.891  10.614  65.604  1.00  0.00    -0.123 C  
HETATM   17  C   UNL     1      -7.559  10.051  64.210  1.00  0.00    -0.141 C  
BRANCH  16  18
HETATM   18  C   UNL     1      -8.771  11.832  65.413  1.00  0.00     0.359 A  
HETATM   19  C   UNL     1     -10.672  12.934  65.081  1.00  0.00    -0.305 A  
HETATM   20  C   UNL     1      -9.783  13.704  65.800  1.00  0.00    -0.140 A  
HETATM   21  N   UNL     1      -8.597  13.024  65.953  1.00  0.00     0.201 NA 
HETATM   22  H   UNL     1      -7.748  13.373  66.398  1.00  0.00     0.000 HD 
HETATM   23  N   UNL     1     -10.007  11.762  64.814  1.00  0.00    -0.249 NA 
BRANCH  20  24
HETATM   24  C   UNL     1     -10.031  14.996  66.426  1.00  0.00    -0.295 A  
HETATM   25  C   UNL     1      -9.157  16.892  67.691  1.00  0.00    -0.223 A  
HETATM   26  C   UNL     1     -10.435  17.433  67.789  1.00  0.00    -0.376 A  
HETATM   27  C   UNL     1     -11.511  16.772  67.195  1.00  0.00     0.628 A  
HETATM   28  C   UNL     1      -8.958  15.686  67.014  1.00  0.00    -0.244 A  
HETATM   29  C   UNL     1     -11.311  15.563  66.512  1.00  0.00    -0.017 A  
ENDBRANCH  20  24
ENDBRANCH  16  18
ENDBRANCH  13  16
BRANCH  15  30
HETATM   30  C   UNL     1     -10.358   7.920  67.040  1.00  0.00    -0.341 C  
HETATM   31  H2  UNL     1      -8.481   7.118  67.518  1.00  0.00     0.000 HD 
HETATM   32  N   UNL     1      -9.388   6.799  67.178  1.00  0.00    -0.132 NA 
HETATM   33  H1  UNL     1      -9.783   6.068  67.770  1.00  0.00     0.000 HD 
BRANCH  30  34
HETATM   34  C   UNL     1     -10.725   8.339  68.481  1.00  0.00    -0.065 C  
BRANCH  34  35
HETATM   35  C   UNL     1     -10.928   9.809  68.797  1.00  0.00    -0.185 A  
HETATM   36  C   UNL     1      -9.776   9.479  71.080  1.00  0.00    -0.134 C  
HETATM   37  C   UNL     1     -11.801  12.030  68.269  1.00  0.00    -0.351 A  
HETATM   38  C   UNL     1     -12.391  10.230  66.693  1.00  0.00     5.556 C  
HETATM   39  C   UNL     1     -10.451  10.328  70.030  1.00  0.00    -0.293 A  
HETATM   40  C   UNL     1     -11.672  10.665  67.946  1.00  0.00     0.054 A  
HETATM   41  C   UNL     1     -11.257  12.553  69.437  1.00  0.00    -0.215 A  
HETATM   42  C   UNL     1     -10.603  11.692  70.320  1.00  0.00     1.366 A  
BRANCH  41  43
HETATM   43  C   UNL     1     -11.371  13.987  69.827  1.00  0.00    -0.179 C  
HETATM   44  H2  UNL     1     -13.177  13.727  70.825  1.00  0.00     0.000 HD 
HETATM   45  H1  UNL     1     -12.532  15.377  70.821  1.00  0.00     0.000 HD 
HETATM   46  N   UNL     1     -12.455  14.395  70.554  1.00  0.00    -0.333 N  
HETATM   47  O   UNL     1     -10.515  14.808  69.512  1.00  0.00    -0.218 OA 
ENDBRANCH  41  43
ENDBRANCH  34  35
ENDBRANCH  30  34
ENDBRANCH  15  30
ENDBRANCH  12  13
ENDBRANCH   6  12
ENDBRANCH   2   3
TORSDOF 10
ENDMDL
MODEL      286
REMARK 921   NORMALIZED FREE ENERGY PREDICTED BY IDOCK:    7.67 KCAL/MOL
REMARK 922        TOTAL FREE ENERGY PREDICTED BY IDOCK:    9.29 KCAL/MOL
REMARK 923 INTER-LIGAND FREE ENERGY PREDICTED BY IDOCK:    4.34 KCAL/MOL
REMARK 924 INTRA-LIGAND FREE ENERGY PREDICTED BY IDOCK:    4.95 KCAL/MOL
REMARK 927      BINDING AFFINITY PREDICTED BY RF-SCORE:    0.00 PKD
ROOT
HETATM    1  C   UNL     1     -10.075   2.466  67.020  1.00  0.00     1.553 C  
HETATM    2  O   UNL     1     -10.984   3.382  66.408  1.00  0.00     2.540 OA 
ENDROOT
BRANCH   2   3
HETATM    3  C   UNL     1     -10.628   4.707  66.408  1.00  0.00    -0.046 A  
HETATM    4  C   UNL     1     -11.286   5.689  65.663  1.00  0.00     1.296 A  
HETATM    5  C   UNL     1     -10.935   7.037  65.785  1.00  0.00     3.065 A  
HETATM    6  C   UNL     1      -9.894   7.442  66.626  1.00  0.00    -0.263 A  
HETATM    7  C   UNL     1      -9.192   6.450  67.329  1.00  0.00    -0.122 A  
HETATM    8  C   UNL     1      -8.747   4.134  68.038  1.00  0.00    -0.100 C  
HETATM    9  O   UNL     1      -9.417   3.042  68.458  1.00  0.00    -0.188 OA 
HETATM   10  C   UNL     1      -9.558   5.093  67.235  1.00  0.00    -0.155 A  
HETATM   11  O   UNL     1      -7.587   4.359  68.347  1.00  0.00    -0.064 OA 
BRANCH   6  12
HETATM   12  C   UNL     1      -9.538   8.902  66.823  1.00  0.00    -0.202 C  
BRANCH  12  13
HETATM   13  N   UNL     1     -10.582   9.743  67.436  1.00  0.00    -0.267 N  
HETATM   14  O   UNL     1     -11.947  11.612  67.362  1.00  0.00    -0.621 OA 
HETATM   15  C   UNL     1     -11.189  10.834  66.767  1.00  0.00     0.025 C  
BRANCH  13  16
HETATM   16  C   UNL     1     -10.765   9.642  68.907  1.00  0.00    -0.206 C  
HETATM   17  C   UNL     1      -9.764   8.701  69.602  1.00  0.00    -0.179 C  
BRANCH  16  18
HETATM   18  C   UNL     1     -10.660  10.999  69.571  1.00  0.00    -0.138 A  
HETATM   19  C   UNL     1      -9.971  13.098  69.806  1.00  0.00     1.622 A  
HETATM   20  C   UNL     1     -11.214  12.929  70.378  1.00  0.00     0.865 A  
HETATM   21  N   UNL     1     -11.601  11.613  70.264  1.00  0.00    -0.510 NA 
HETATM   22  H   UNL     1     -12.450  11.193  70.642  1.00  0.00     0.000 HD 
HETATM   23  N   UNL     1      -9.617  11.861  69.326  1.00  0.00     0.388 NA 
BRANCH  20  24
HETATM   24  C   UNL     1     -12.085  13.956  70.933  1.00  0.00    -0.391 A  
HETATM   25  C   UNL     1     -12.359  15.851  72.447  1.00  0.00    -0.570 A  
HETATM   26  C   UNL     1     -13.722  15.890  72.172  1.00  0.00    -0.290 A  
HETATM   27  C   UNL     1     -14.270  14.979  71.268  1.00  0.00    -0.508 A  
HETATM   28  C   UNL     1     -11.549  14.893  71.831  1.00  0.00    -0.335 A  
HETATM   29  C   UNL     1     -13.457  14.021  70.647  1.00  0.00     0.151 A  
ENDBRANCH  20  24
ENDBRANCH  16  18
ENDBRANCH  13  16
BRANCH  15  30
HETATM   30  C   UNL     1     -10.899  11.009  65.230  1.00  0.00    -0.102 C  
HETATM   31  H2  UNL     1     -12.224  12.622  65.034  1.00  0.00     0.000 HD 
HETATM   32  N   UNL     1     -12.026  11.731  64.579  1.00  0.00    -0.183 NA 
HETATM   33  H1  UNL     1     -11.838  11.845  63.583  1.00  0.00     0.000 HD 
BRANCH  30  34
HETATM   34  C   UNL     1      -9.625  11.804  64.867  1.00  0.00    -0.132 C  
BRANCH  34  35
HETATM   35  C   UNL     1      -9.170  12.931  65.776  1.00  0.00     0.219 A  
HETATM   36  C   UNL     1      -7.411  11.368  66.832  1.00  0.00    -0.147 C  
HETATM   37  C   UNL     1      -9.356  15.203  66.658  1.00  0.00    -0.291 A  
HETATM   38  C   UNL     1     -11.092  14.518  65.050  1.00  0.00    -0.393 C  
HETATM   39  C   UNL     1      -8.104  12.702  66.687  1.00  0.00     0.181 A  
HETATM   40  C   UNL     1      -9.841  14.178  65.821  1.00  0.00    -0.297 A  
HETATM   41  C   UNL     1      -8.257  15.002  67.487  1.00  0.00    -0.199 A  
HETATM   42  C   UNL     1      -7.651  13.744  67.509  1.00  0.00    -0.185 A  
BRANCH  41  43
HETATM   43  C   UNL     1      -7.709  16.048  68.394  1.00  0.00    -0.147 C  
HETATM   44  H2  UNL     1      -7.035  17.255  66.840  1.00  0.00     0.000 HD 
HETATM   45  H1  UNL     1      -6.732  17.867  68.474  1.00  0.00     0.000 HD 
HETATM   46  N   UNL     1      -7.107  17.151  67.853  1.00  0.00    -0.159 N  
HETATM   47  O   UNL     1      -7.783  15.944  69.615  1.00  0.00    -0.175 OA 
ENDBRANCH  41  43
ENDBRANCH  34  35
ENDBRANCH  30  34
ENDBRANCH  15  30
ENDBRANCH  12  13
ENDBRANCH   6  12
ENDBRANCH   2   3
TORSDOF 10
ENDMDL
MODEL      287
REMARK 921   NORMALIZED FREE ENERGY PREDICTED BY IDOCK:    8.47 KCAL/MOL
REMARK 922        TOTAL FREE ENERGY PREDICTED BY IDOCK:   10.55 KCAL/MOL
REMARK 923 INTER-LIGAND FREE ENERGY PREDICTED BY IDOCK:    1.10 KCAL/MOL
REMARK 924 INTRA-LIGAND FREE ENERGY PREDICTED BY IDOCK:    9.45 KCAL/MOL
REMARK 927      BINDING AFFINITY PREDICTED BY RF-SCORE:    0.00 PKD
ROOT
HETATM    1  C   UNL     1      -9.759  17.873  70.305  1.00  0.00     1.977 C  
HETATM    2  O   UNL     1      -8.931  16.719  70.452  1.00  0.00     1.984 OA 
ENDROOT
BRANCH   2   3
HETATM    3  C   UNL     1      -9.440  15.527  70.001  1.00  0.00     0.102 A  
HETATM    4  C   UNL     1     -10.774  15.141  70.161  1.00  0.00    -0.245 A  
HETATM    5  C   UNL     1     -11.250  13.957  69.590  1.00  0.00    -0.196 A  
HETATM    6  C   UNL     1     -10.404  13.104  68.874  1.00  0.00    -0.068 A  
HETATM    7  C   UNL     1      -9.051  13.461  68.766  1.00  0.00     0.115 A  
HETATM    8  C   UNL     1      -7.116  14.942  69.120  1.00  0.00    -0.148 C  
HETATM    9  O   UNL     1      -6.794  16.249  69.042  1.00  0.00    -0.157 OA 
HETATM   10  C   UNL     1      -8.568  14.666  69.311  1.00  0.00     0.035 A  
HETATM   11  O   UNL     1      -6.296  14.048  68.977  1.00  0.00    -0.086 OA 
BRANCH   6  12
HETATM   12  C   UNL     1     -10.912  11.849  68.193  1.00  0.00    -0.227 C  
BRANCH  12  13
HETATM   13  N   UNL     1      -9.995  11.228  67.220  1.00  0.00    -0.182 N  
HETATM   14  O   UNL     1      -7.889  10.437  66.676  1.00  0.00    -0.113 OA 
HETATM   15  C   UNL     1      -8.683  10.809  67.549  1.00  0.00    -0.125 C  
BRANCH  13  16
HETATM   16  C   UNL     1     -10.345  11.347  65.780  1.00  0.00    -0.255 C  
HETATM   17  C   UNL     1     -10.375  12.794  65.257  1.00  0.00    -0.313 C  
BRANCH  16  18
HETATM   18  C   UNL     1      -9.383  10.562  64.913  1.00  0.00    -0.232 A  
HETATM   19  C   UNL     1      -7.414  10.027  64.032  1.00  0.00    -0.135 A  
HETATM   20  C   UNL     1      -8.229   8.917  64.110  1.00  0.00    -0.167 A  
HETATM   21  N   UNL     1      -9.458   9.278  64.613  1.00  0.00    -0.409 NA 
HETATM   22  H   UNL     1     -10.270   8.672  64.732  1.00  0.00     0.000 HD 
HETATM   23  N   UNL     1      -8.168  11.068  64.513  1.00  0.00     0.208 NA 
BRANCH  20  24
HETATM   24  C   UNL     1      -7.874   7.532  63.830  1.00  0.00    -0.114 A  
HETATM   25  C   UNL     1      -6.412   5.630  64.283  1.00  0.00    -0.033 A  
HETATM   26  C   UNL     1      -7.018   4.905  63.261  1.00  0.00    -0.042 A  
HETATM   27  C   UNL     1      -8.061   5.479  62.533  1.00  0.00    -0.102 A  
HETATM   28  C   UNL     1      -6.839   6.931  64.565  1.00  0.00    -0.046 A  
HETATM   29  C   UNL     1      -8.491   6.783  62.818  1.00  0.00     0.200 A  
ENDBRANCH  20  24
ENDBRANCH  16  18
ENDBRANCH  13  16
BRANCH  15  30
HETATM   30  C   UNL     1      -8.274  10.797  69.070  1.00  0.00    -0.138 C  
HETATM   31  H2  UNL     1      -9.967  11.881  69.664  1.00  0.00     0.000 HD 
HETATM   32  N   UNL     1      -8.955  11.909  69.788  1.00  0.00     1.119 NA 
HETATM   33  H1  UNL     1      -8.690  11.900  70.773  1.00  0.00     0.000 HD 
BRANCH  30  34
HETATM   34  C   UNL     1      -8.623   9.513  69.855  1.00  0.00    -0.217 C  
BRANCH  34  35
HETATM   35  C   UNL     1      -8.788   8.206  69.103  1.00  0.00    -0.144 A  
HETATM   36  C   UNL     1     -11.331   8.614  68.954  1.00  0.00     0.558 C  
HETATM   37  C   UNL     1      -7.909   6.125  68.169  1.00  0.00    -0.103 A  
HETATM   38  C   UNL     1      -6.315   7.496  69.453  1.00  0.00    -0.032 C  
HETATM   39  C   UNL     1     -10.083   7.812  68.670  1.00  0.00    -0.211 A  
HETATM   40  C   UNL     1      -7.708   7.310  68.905  1.00  0.00    -0.116 A  
HETATM   41  C   UNL     1      -9.163   5.785  67.671  1.00  0.00    -0.105 A  
HETATM   42  C   UNL     1     -10.246   6.623  67.944  1.00  0.00    -0.203 A  
BRANCH  41  43
HETATM   43  C   UNL     1      -9.430   4.543  66.893  1.00  0.00    -0.175 C  
HETATM   44  H2  UNL     1      -9.794   5.557  65.114  1.00  0.00     0.000 HD 
HETATM   45  H1  UNL     1      -9.926   3.793  65.033  1.00  0.00     0.000 HD 
HETATM   46  N   UNL     1      -9.743   4.643  65.566  1.00  0.00    -0.179 N  
HETATM   47  O   UNL     1      -9.376   3.433  67.415  1.00  0.00    -0.183 OA 
ENDBRANCH  41  43
ENDBRANCH  34  35
ENDBRANCH  30  34
ENDBRANCH  15  30
ENDBRANCH  12  13
ENDBRANCH   6  12
ENDBRANCH   2   3
TORSDOF 10
ENDMDL
MODEL      288
REMARK 921   NORMALIZED FREE ENERGY PREDICTED BY IDOCK:   10.29 KCAL/MOL
REMARK 922        TOTAL FREE ENERGY PREDICTED BY IDOCK:   13.44 KCAL/MOL
REMARK 923 INTER-LIGAND FREE ENERGY PREDICTED BY IDOCK:   -0.98 KCAL/MOL
REMARK 924 INTRA-LIGAND FREE ENERGY PREDICTED BY IDOCK:   14.42 KCAL/MOL
REMARK 927      BINDING AFFINITY PREDICTED BY RF-SCORE:    0.00 PKD
ROOT
HETATM    1  C   UNL     1      -7.643  16.896  65.542  1.00  0.00     1.414 C  
HETATM    2  O   UNL     1      -7.387  16.614  66.918  1.00  0.00    -0.178 OA 
ENDROOT
BRANCH   2   3
HETATM    3  C   UNL     1      -8.272  15.782  67.557  1.00  0.00    -0.162 A  
HETATM    4  C   UNL     1      -8.143  15.389  68.892  1.00  0.00    -0.185 A  
HETATM    5  C   UNL     1      -9.134  14.619  69.511  1.00  0.00     0.222 A  
HETATM    6  C   UNL     1     -10.263  14.188  68.808  1.00  0.00    -0.216 A  
HETATM    7  C   UNL     1     -10.362  14.531  67.451  1.00  0.00    -0.252 A  
HETATM    8  C   UNL     1      -9.607  15.640  65.386  1.00  0.00    -0.085 C  
HETATM    9  O   UNL     1      -9.110  16.825  64.979  1.00  0.00     0.878 OA 
HETATM   10  C   UNL     1      -9.386  15.331  66.826  1.00  0.00    -0.265 A  
HETATM   11  O   UNL     1     -10.251  14.905  64.653  1.00  0.00    -0.243 OA 
BRANCH   6  12
HETATM   12  C   UNL     1     -11.379  13.408  69.475  1.00  0.00    -0.183 C  
BRANCH  12  13
HETATM   13  N   UNL     1     -11.732  12.123  68.844  1.00  0.00    -0.311 N  
HETATM   14  O   UNL     1     -11.661   9.810  68.838  1.00  0.00     0.060 OA 
HETATM   15  C   UNL     1     -11.496  10.869  69.457  1.00  0.00    -0.301 C  
BRANCH  13  16
HETATM   16  C   UNL     1     -12.042  12.138  67.391  1.00  0.00     0.106 C  
HETATM   17  C   UNL     1     -12.200  13.550  66.795  1.00  0.00    -0.392 C  
BRANCH  16  18
HETATM   18  C   UNL     1     -10.976  11.417  66.592  1.00  0.00    -0.285 A  
HETATM   19  C   UNL     1      -8.980  11.132  65.658  1.00  0.00    -0.184 A  
HETATM   20  C   UNL     1      -9.541   9.916  65.986  1.00  0.00    -0.225 A  
HETATM   21  N   UNL     1     -10.795  10.111  66.518  1.00  0.00    -0.048 NA 
HETATM   22  H   UNL     1     -11.456   9.388  66.800  1.00  0.00     0.000 HD 
HETATM   23  N   UNL     1      -9.913  12.073  66.018  1.00  0.00    -0.229 NA 
BRANCH  20  24
HETATM   24  C   UNL     1      -8.918   8.601  65.913  1.00  0.00    -0.245 A  
HETATM   25  C   UNL     1      -8.464   6.455  66.986  1.00  0.00    -0.112 A  
HETATM   26  C   UNL     1      -7.634   6.089  65.931  1.00  0.00    -0.087 A  
HETATM   27  C   UNL     1      -7.455   6.963  64.858  1.00  0.00    -0.094 A  
HETATM   28  C   UNL     1      -9.101   7.699  66.974  1.00  0.00    -0.157 A  
HETATM   29  C   UNL     1      -8.097   8.210  64.845  1.00  0.00    -0.153 A  
ENDBRANCH  20  24
ENDBRANCH  16  18
ENDBRANCH  13  16
BRANCH  15  30
HETATM   30  C   UNL     1     -11.052  10.860  70.968  1.00  0.00     0.945 C  
HETATM   31  H2  UNL     1     -12.106   9.100  71.399  1.00  0.00     0.000 HD 
HETATM   32  N   UNL     1     -12.001  10.043  71.772  1.00  0.00    -0.289 NA 
HETATM   33  H1  UNL     1     -11.713  10.037  72.751  1.00  0.00     0.000 HD 
BRANCH  30  34
HETATM   34  C   UNL     1      -9.649  10.281  71.258  1.00  0.00     2.425 C  
BRANCH  34  35
HETATM   35  C   UNL     1      -9.483   8.781  71.411  1.00  0.00    -0.330 A  
HETATM   36  C   UNL     1     -11.932   8.590  72.196  1.00  0.00    -0.451 C  
HETATM   37  C   UNL     1      -8.138   6.739  71.358  1.00  0.00    -0.110 A  
HETATM   38  C   UNL     1      -6.928   8.847  70.956  1.00  0.00    -0.085 C  
HETATM   39  C   UNL     1     -10.589   7.999  71.840  1.00  0.00    -0.305 A  
HETATM   40  C   UNL     1      -8.230   8.141  71.238  1.00  0.00    -0.132 A  
HETATM   41  C   UNL     1      -9.245   5.967  71.695  1.00  0.00    -0.153 A  
HETATM   42  C   UNL     1     -10.460   6.607  71.953  1.00  0.00    -0.224 A  
BRANCH  41  43
HETATM   43  C   UNL     1      -9.201   4.485  71.839  1.00  0.00    -0.136 C  
HETATM   44  H2  UNL     1     -10.802   4.417  73.165  1.00  0.00     0.000 HD 
HETATM   45  H1  UNL     1     -10.075   2.854  72.758  1.00  0.00     0.000 HD 
HETATM   46  N   UNL     1     -10.106   3.869  72.659  1.00  0.00    -0.160 N  
HETATM   47  O   UNL     1      -8.372   3.806  71.242  1.00  0.00    -0.070 OA 
ENDBRANCH  41  43
ENDBRANCH  34  35
ENDBRANCH  30  34
ENDBRANCH  15  30
ENDBRANCH  12  13
ENDBRANCH   6  12
ENDBRANCH   2   3
TORSDOF 10
ENDMDL
MODEL      289
REMARK 921   NORMALIZED FREE ENERGY PREDICTED BY IDOCK:   10.67 KCAL/MOL
REMARK 922        TOTAL FREE ENERGY PREDICTED BY IDOCK:   14.04 KCAL/MOL
REMARK 923 INTER-LIGAND FREE ENERGY PREDICTED BY IDOCK:   11.71 KCAL/MOL
REMARK 924 INTRA-LIGAND FREE ENERGY PREDICTED BY IDOCK:    2.33 KCAL/MOL
REMARK 927      BINDING AFFINITY PREDICTED BY RF-SCORE:    0.00 PKD
ROOT
HETATM    1  C   UNL     1     -11.046  10.030  65.677  1.00  0.00     1.156 C  
HETATM    2  O   UNL     1     -10.115   9.167  65.021  1.00  0.00     0.405 OA 
ENDROOT
BRANCH   2   3
HETATM    3  C   UNL     1      -9.025   8.759  65.750  1.00  0.00    -0.206 A  
HETATM    4  C   UNL     1      -8.852   9.033  67.109  1.00  0.00    -0.130 A  
HETATM    5  C   UNL     1      -7.768   8.502  67.814  1.00  0.00    -0.103 A  
HETATM    6  C   UNL     1      -6.804   7.714  67.178  1.00  0.00    -0.068 A  
HETATM    7  C   UNL     1      -6.944   7.490  65.800  1.00  0.00    -0.061 A  
HETATM    8  C   UNL     1      -8.095   7.679  63.631  1.00  0.00    -0.038 C  
HETATM    9  O   UNL     1      -9.336   7.576  63.114  1.00  0.00     1.673 OA 
HETATM   10  C   UNL     1      -8.049   7.994  65.087  1.00  0.00    -0.143 A  
HETATM   11  O   UNL     1      -7.086   7.463  62.978  1.00  0.00    -0.067 OA 
BRANCH   6  12
HETATM   12  C   UNL     1      -5.656   7.077  67.935  1.00  0.00    -0.020 C  
BRANCH  12  13
HETATM   13  N   UNL     1      -5.845   5.669  68.328  1.00  0.00    -0.016 N  
HETATM   14  O   UNL     1      -6.087   4.068  69.982  1.00  0.00    -0.021 OA 
HETATM   15  C   UNL     1      -6.088   5.264  69.663  1.00  0.00    -0.021 C  
BRANCH  13  16
HETATM   16  C   UNL     1      -5.446   4.627  67.347  1.00  0.00    -0.013 C  
HETATM   17  C   UNL     1      -5.238   3.230  67.963  1.00  0.00    -0.012 C  
BRANCH  16  18
HETATM   18  C   UNL     1      -6.469   4.494  66.238  1.00  0.00    -0.041 A  
HETATM   19  C   UNL     1      -7.614   3.453  64.643  1.00  0.00    -0.077 A  
HETATM   20  C   UNL     1      -8.366   4.466  65.198  1.00  0.00    -0.116 A  
HETATM   21  N   UNL     1      -7.623   5.129  66.148  1.00  0.00    -0.086 NA 
HETATM   22  H   UNL     1      -7.908   5.950  66.681  1.00  0.00     0.000 HD 
HETATM   23  N   UNL     1      -6.403   3.501  65.288  1.00  0.00    -0.031 NA 
BRANCH  20  24
HETATM   24  C   UNL     1      -9.768   4.773  64.946  1.00  0.00     0.016 A  
HETATM   25  C   UNL     1     -11.850   5.768  65.742  1.00  0.00     2.703 A  
HETATM   26  C   UNL     1     -12.521   5.292  64.620  1.00  0.00     5.337 A  
HETATM   27  C   UNL     1     -11.820   4.573  63.651  1.00  0.00     2.346 A  
HETATM   28  C   UNL     1     -10.486   5.512  65.901  1.00  0.00     0.063 A  
HETATM   29  C   UNL     1     -10.450   4.319  63.809  1.00  0.00     0.048 A  
ENDBRANCH  20  24
ENDBRANCH  16  18
ENDBRANCH  13  16
BRANCH  15  30
HETATM   30  C   UNL     1      -6.395   6.382  70.728  1.00  0.00    -0.040 C  
HETATM   31  H2  UNL     1      -4.865   7.637  70.037  1.00  0.00     0.000 HD 
HETATM   32  N   UNL     1      -5.197   7.246  70.918  1.00  0.00    -0.023 NA 
HETATM   33  H1  UNL     1      -5.396   7.970  71.608  1.00  0.00     0.000 HD 
BRANCH  30  34
HETATM   34  C   UNL     1      -7.556   7.343  70.388  1.00  0.00    -0.091 C  
BRANCH  34  35
HETATM   35  C   UNL     1      -8.964   6.989  70.830  1.00  0.00    -0.150 A  
HETATM   36  C   UNL     1      -8.547   8.157  73.091  1.00  0.00    -0.299 C  
HETATM   37  C   UNL     1     -11.125   5.899  70.489  1.00  0.00    -0.347 A  
HETATM   38  C   UNL     1      -9.424   5.503  68.751  1.00  0.00    -0.163 C  
HETATM   39  C   UNL     1      -9.415   7.404  72.111  1.00  0.00    -0.169 A  
HETATM   40  C   UNL     1      -9.814   6.168  70.048  1.00  0.00    -0.207 A  
HETATM   41  C   UNL     1     -11.593   6.380  71.707  1.00  0.00    -0.367 A  
HETATM   42  C   UNL     1     -10.725   7.114  72.519  1.00  0.00    -0.285 A  
BRANCH  41  43
HETATM   43  C   UNL     1     -12.966   6.120  72.222  1.00  0.00     0.391 C  
HETATM   44  H2  UNL     1     -12.412   4.409  73.267  1.00  0.00     0.000 HD 
HETATM   45  H1  UNL     1     -14.123   4.856  73.376  1.00  0.00     0.000 HD 
HETATM   46  N   UNL     1     -13.182   5.034  73.024  1.00  0.00     1.243 N  
HETATM   47  O   UNL     1     -13.907   6.857  71.943  1.00  0.00    -0.266 OA 
ENDBRANCH  41  43
ENDBRANCH  34  35
ENDBRANCH  30  34
ENDBRANCH  15  30
ENDBRANCH  12  13
ENDBRANCH   6  12
ENDBRANCH   2   3
TORSDOF 10
ENDMDL
MODEL      290
REMARK 921   NORMALIZED FREE ENERGY PREDICTED BY IDOCK:   13.30 KCAL/MOL
REMARK 922        TOTAL FREE ENERGY PREDICTED BY IDOCK:   18.21 KCAL/MOL
REMARK 923 INTER-LIGAND FREE ENERGY PREDICTED BY IDOCK:    5.23 KCAL/MOL
REMARK 924 INTRA-LIGAND FREE ENERGY PREDICTED BY IDOCK:   12.97 KCAL/MOL
REMARK 927      BINDING AFFINITY PREDICTED BY RF-SCORE:    0.00 PKD
ROOT
HETATM    1  C   UNL     1      -8.514  11.138  64.271  1.00  0.00     0.349 C  
HETATM    2  O   UNL     1      -7.477  11.592  65.142  1.00  0.00     1.070 OA 
ENDROOT
BRANCH   2   3
HETATM    3  C   UNL     1      -7.537  11.180  66.449  1.00  0.00    -0.109 A  
HETATM    4  C   UNL     1      -6.912  10.026  66.930  1.00  0.00    -0.089 A  
HETATM    5  C   UNL     1      -6.930   9.717  68.294  1.00  0.00    -0.073 A  
HETATM    6  C   UNL     1      -7.603  10.528  69.213  1.00  0.00    -0.134 A  
HETATM    7  C   UNL     1      -8.283  11.653  68.722  1.00  0.00    -0.055 A  
HETATM    8  C   UNL     1      -8.994  13.215  66.955  1.00  0.00    -0.228 C  
HETATM    9  O   UNL     1      -8.479  13.873  65.897  1.00  0.00     0.951 OA 
HETATM   10  C   UNL     1      -8.245  11.990  67.355  1.00  0.00    -0.168 A  
HETATM   11  O   UNL     1      -9.957  13.624  67.585  1.00  0.00    -0.231 OA 
BRANCH   6  12
HETATM   12  C   UNL     1      -7.583  10.247  70.702  1.00  0.00     0.679 C  
BRANCH  12  13
HETATM   13  N   UNL     1      -8.451   9.147  71.162  1.00  0.00    -0.171 N  
HETATM   14  O   UNL     1      -8.792   6.888  71.535  1.00  0.00    -0.133 OA 
HETATM   15  C   UNL     1      -8.002   7.811  71.298  1.00  0.00    -0.094 C  
BRANCH  13  16
HETATM   16  C   UNL     1      -9.917   9.391  71.169  1.00  0.00    -0.241 C  
HETATM   17  C   UNL     1     -10.312  10.858  70.915  1.00  0.00     2.164 C  
BRANCH  16  18
HETATM   18  C   UNL     1     -10.622   8.538  70.135  1.00  0.00    -0.232 A  
HETATM   19  C   UNL     1     -11.777   8.131  68.281  1.00  0.00     2.014 A  
HETATM   20  C   UNL     1     -10.964   7.062  68.591  1.00  0.00    -0.090 A  
HETATM   21  N   UNL     1     -10.294   7.313  69.767  1.00  0.00    -0.214 NA 
HETATM   22  H   UNL     1      -9.666   6.677  70.258  1.00  0.00     0.000 HD 
HETATM   23  N   UNL     1     -11.576   9.046  69.285  1.00  0.00     0.474 NA 
BRANCH  20  24
HETATM   24  C   UNL     1     -10.717   5.870  67.789  1.00  0.00    -0.346 A  
HETATM   25  C   UNL     1     -10.109   3.508  67.714  1.00  0.00     0.596 A  
HETATM   26  C   UNL     1     -10.082   3.545  66.323  1.00  0.00     0.420 A  
HETATM   27  C   UNL     1     -10.387   4.735  65.660  1.00  0.00    -0.219 A  
HETATM   28  C   UNL     1     -10.426   4.659  68.438  1.00  0.00     0.270 A  
HETATM   29  C   UNL     1     -10.708   5.890  66.387  1.00  0.00    -0.157 A  
ENDBRANCH  20  24
ENDBRANCH  16  18
ENDBRANCH  13  16
BRANCH  15  30
HETATM   30  C   UNL     1      -6.456   7.537  71.172  1.00  0.00    -0.039 C  
HETATM   31  H2  UNL     1      -6.608   5.599  71.954  1.00  0.00     0.000 HD 
HETATM   32  N   UNL     1      -6.057   6.444  72.100  1.00  0.00    -0.038 NA 
HETATM   33  H1  UNL     1      -5.056   6.267  72.018  1.00  0.00     0.000 HD 
BRANCH  30  34
HETATM   34  C   UNL     1      -5.955   7.107  69.775  1.00  0.00    -0.024 C  
BRANCH  34  35
HETATM   35  C   UNL     1      -6.529   5.858  69.134  1.00  0.00    -0.042 A  
HETATM   36  C   UNL     1      -6.357   6.968  66.813  1.00  0.00    -0.049 C  
HETATM   37  C   UNL     1      -7.498   3.616  69.259  1.00  0.00    -0.052 A  
HETATM   38  C   UNL     1      -7.068   4.734  71.412  1.00  0.00    -0.051 C  
HETATM   39  C   UNL     1      -6.692   5.811  67.724  1.00  0.00    -0.058 A  
HETATM   40  C   UNL     1      -7.006   4.768  69.906  1.00  0.00    -0.052 A  
HETATM   41  C   UNL     1      -7.575   3.541  67.872  1.00  0.00    -0.065 A  
HETATM   42  C   UNL     1      -7.189   4.649  67.115  1.00  0.00    -0.073 A  
BRANCH  41  43
HETATM   43  C   UNL     1      -8.091   2.351  67.140  1.00  0.00    -0.072 C  
HETATM   44  H2  UNL     1      -7.221   2.899  65.332  1.00  0.00     0.000 HD 
HETATM   45  H1  UNL     1      -8.145   1.388  65.313  1.00  0.00     0.000 HD 
HETATM   46  N   UNL     1      -7.792   2.203  65.814  1.00  0.00    -0.072 N  
HETATM   47  O   UNL     1      -8.779   1.502  67.698  1.00  0.00    -0.085 OA 
ENDBRANCH  41  43
ENDBRANCH  34  35
ENDBRANCH  30  34
ENDBRANCH  15  30
ENDBRANCH  12  13
ENDBRANCH   6  12
ENDBRANCH   2   3
TORSDOF 10
ENDMDL
MODEL      291
REMARK 921   NORMALIZED FREE ENERGY PREDICTED BY IDOCK:   14.75 KCAL/MOL
REMARK 922        TOTAL FREE ENERGY PREDICTED BY IDOCK:   20.50 KCAL/MOL
REMARK 923 INTER-LIGAND FREE ENERGY PREDICTED BY IDOCK:   11.94 KCAL/MOL
REMARK 924 INTRA-LIGAND FREE ENERGY PREDICTED BY IDOCK:    8.57 KCAL/MOL
REMARK 927      BINDING AFFINITY PREDICTED BY RF-SCORE:    0.00 PKD
ROOT
HETATM    1  C   UNL     1      -7.691  10.138  70.096  1.00  0.00    -0.069 C  
HETATM    2  O   UNL     1      -7.815  11.559  70.174  1.00  0.00     0.972 OA 
ENDROOT
BRANCH   2   3
HETATM    3  C   UNL     1      -8.260  12.207  69.049  1.00  0.00     0.290 A  
HETATM    4  C   UNL     1      -7.884  13.507  68.701  1.00  0.00    -0.084 A  
HETATM    5  C   UNL     1      -8.295  14.073  67.490  1.00  0.00    -0.200 A  
HETATM    6  C   UNL     1      -9.123  13.373  66.607  1.00  0.00    -0.180 A  
HETATM    7  C   UNL     1      -9.551  12.091  66.984  1.00  0.00    -0.200 A  
HETATM    8  C   UNL     1      -9.629  10.131  68.472  1.00  0.00    -0.154 C  
HETATM    9  O   UNL     1      -8.796   9.355  69.195  1.00  0.00    -0.134 OA 
HETATM   10  C   UNL     1      -9.118  11.501  68.187  1.00  0.00    -0.181 A  
HETATM   11  O   UNL     1     -10.690   9.724  68.024  1.00  0.00    -0.237 OA 
BRANCH   6  12
HETATM   12  C   UNL     1      -9.529  13.941  65.261  1.00  0.00     0.367 C  
BRANCH  12  13
HETATM   13  N   UNL     1     -10.502  15.047  65.296  1.00  0.00    -0.376 N  
HETATM   14  O   UNL     1     -12.339  16.127  64.392  1.00  0.00    -0.249 OA 
HETATM   15  C   UNL     1     -11.632  15.112  64.445  1.00  0.00    -0.271 C  
BRANCH  13  16
HETATM   16  C   UNL     1     -10.104  16.284  66.017  1.00  0.00    -0.356 C  
HETATM   17  C   UNL     1     -10.924  17.529  65.631  1.00  0.00     0.176 C  
BRANCH  16  18
HETATM   18  C   UNL     1     -10.212  16.106  67.517  1.00  0.00    -0.267 A  
HETATM   19  C   UNL     1     -10.092  16.717  69.650  1.00  0.00    -0.025 A  
HETATM   20  C   UNL     1     -11.052  15.743  69.478  1.00  0.00    -0.306 A  
HETATM   21  N   UNL     1     -11.078  15.345  68.161  1.00  0.00    -0.296 NA 
HETATM   22  H   UNL     1     -11.654  14.605  67.759  1.00  0.00     0.000 HD 
HETATM   23  N   UNL     1      -9.544  16.915  68.407  1.00  0.00    -0.246 NA 
BRANCH  20  24
HETATM   24  C   UNL     1     -12.003  15.247  70.464  1.00  0.00    -0.384 A  
HETATM   25  C   UNL     1     -13.045  13.333  71.564  1.00  0.00    -0.414 A  
HETATM   26  C   UNL     1     -13.913  14.180  72.245  1.00  0.00    -0.646 A  
HETATM   27  C   UNL     1     -13.821  15.560  72.055  1.00  0.00    -0.602 A  
HETATM   28  C   UNL     1     -12.098  13.863  70.683  1.00  0.00    -0.417 A  
HETATM   29  C   UNL     1     -12.868  16.092  71.174  1.00  0.00     0.009 A  
ENDBRANCH  20  24
ENDBRANCH  16  18
ENDBRANCH  13  16
BRANCH  15  30
HETATM   30  C   UNL     1     -11.984  13.838  63.590  1.00  0.00    -0.252 C  
HETATM   31  H2  UNL     1     -12.670  14.965  61.961  1.00  0.00     0.000 HD 
HETATM   32  N   UNL     1     -12.983  14.188  62.543  1.00  0.00     1.110 NA 
HETATM   33  H1  UNL     1     -13.211  13.362  61.990  1.00  0.00     0.000 HD 
BRANCH  30  34
HETATM   34  C   UNL     1     -10.805  13.176  62.841  1.00  0.00     2.055 C  
BRANCH  34  35
HETATM   35  C   UNL     1     -10.208  11.893  63.386  1.00  0.00    -0.478 A  
HETATM   36  C   UNL     1     -12.569  10.870  63.566  1.00  0.00     2.284 C  
HETATM   37  C   UNL     1      -8.319  10.547  64.160  1.00  0.00    -0.095 A  
HETATM   38  C   UNL     1      -7.817  12.887  63.575  1.00  0.00     8.602 C  
HETATM   39  C   UNL     1     -11.067  10.807  63.705  1.00  0.00     0.600 A  
HETATM   40  C   UNL     1      -8.828  11.774  63.688  1.00  0.00     0.544 A  
HETATM   41  C   UNL     1      -9.152   9.457  64.389  1.00  0.00    -0.180 A  
HETATM   42  C   UNL     1     -10.525   9.602  64.178  1.00  0.00     2.354 A  
BRANCH  41  43
HETATM   43  C   UNL     1      -8.666   8.142  64.892  1.00  0.00     0.077 C  
HETATM   44  H2  UNL     1      -7.141   7.998  63.486  1.00  0.00     0.000 HD 
HETATM   45  H1  UNL     1      -7.266   6.646  64.623  1.00  0.00     0.000 HD 
HETATM   46  N   UNL     1      -7.599   7.547  64.278  1.00  0.00    -0.098 N  
HETATM   47  O   UNL     1      -9.202   7.580  65.842  1.00  0.00    -0.104 OA 
ENDBRANCH  41  43
ENDBRANCH  34  35
ENDBRANCH  30  34
ENDBRANCH  15  30
ENDBRANCH  12  13
ENDBRANCH   6  12
ENDBRANCH   2   3
TORSDOF 10
ENDMDL
MODEL      292
REMARK 921   NORMALIZED FREE ENERGY PREDICTED BY IDOCK:   16.81 KCAL/MOL
REMARK 922        TOTAL FREE ENERGY PREDICTED BY IDOCK:   23.77 KCAL/MOL
REMARK 923 INTER-LIGAND FREE ENERGY PREDICTED BY IDOCK:    1.10 KCAL/MOL
REMARK 924 INTRA-LIGAND FREE ENERGY PREDICTED BY IDOCK:   22.66 KCAL/MOL
REMARK 927      BINDING AFFINITY PREDICTED BY RF-SCORE:    0.00 PKD
ROOT
HETATM    1  C   UNL     1     -11.383  13.147  68.129  1.00  0.00    -0.292 C  
HETATM    2  O   UNL     1     -10.053  12.968  67.639  1.00  0.00    -0.211 OA 
ENDROOT
BRANCH   2   3
HETATM    3  C   UNL     1      -9.149  12.388  68.493  1.00  0.00    -0.067 A  
HETATM    4  C   UNL     1      -8.063  13.067  69.052  1.00  0.00     0.344 A  
HETATM    5  C   UNL     1      -7.236  12.444  69.993  1.00  0.00     1.139 A  
HETATM    6  C   UNL     1      -7.446  11.116  70.376  1.00  0.00     1.506 A  
HETATM    7  C   UNL     1      -8.500  10.415  69.769  1.00  0.00     0.006 A  
HETATM    8  C   UNL     1     -10.446  10.200  68.276  1.00  0.00    -0.211 C  
HETATM    9  O   UNL     1     -11.567  10.873  67.946  1.00  0.00    -0.497 OA 
HETATM   10  C   UNL     1      -9.356  11.042  68.843  1.00  0.00    -0.155 A  
HETATM   11  O   UNL     1     -10.352   8.985  68.186  1.00  0.00    -0.199 OA 
BRANCH   6  12
HETATM   12  C   UNL     1      -6.603  10.441  71.440  1.00  0.00     0.922 C  
BRANCH  12  13
HETATM   13  N   UNL     1      -6.525   8.971  71.363  1.00  0.00    -0.079 N  
HETATM   14  O   UNL     1      -6.735   7.016  70.142  1.00  0.00    -0.049 OA 
HETATM   15  C   UNL     1      -6.649   8.251  70.150  1.00  0.00    -0.036 C  
BRANCH  13  16
HETATM   16  C   UNL     1      -6.646   8.213  72.636  1.00  0.00    -0.084 C  
HETATM   17  C   UNL     1      -7.787   8.696  73.550  1.00  0.00     0.049 C  
BRANCH  16  18
HETATM   18  C   UNL     1      -6.854   6.735  72.380  1.00  0.00    -0.063 A  
HETATM   19  C   UNL     1      -7.755   4.727  72.683  1.00  0.00    -0.092 A  
HETATM   20  C   UNL     1      -7.347   4.883  71.375  1.00  0.00    -0.073 A  
HETATM   21  N   UNL     1      -6.749   6.113  71.220  1.00  0.00    -0.053 NA 
HETATM   22  H   UNL     1      -6.310   6.474  70.373  1.00  0.00     0.000 HD 
HETATM   23  N   UNL     1      -7.408   5.894  73.317  1.00  0.00    -0.090 NA 
BRANCH  20  24
HETATM   24  C   UNL     1      -7.580   3.979  70.257  1.00  0.00    -0.045 A  
HETATM   25  C   UNL     1      -6.954   1.940  69.070  1.00  0.00    -0.036 A  
HETATM   26  C   UNL     1      -7.854   2.240  68.052  1.00  0.00    -0.058 A  
HETATM   27  C   UNL     1      -8.631   3.396  68.138  1.00  0.00    -0.117 A  
HETATM   28  C   UNL     1      -6.821   2.802  70.162  1.00  0.00    -0.033 A  
HETATM   29  C   UNL     1      -8.500   4.259  69.236  1.00  0.00    -0.093 A  
ENDBRANCH  20  24
ENDBRANCH  16  18
ENDBRANCH  13  16
BRANCH  15  30
HETATM   30  C   UNL     1      -6.640   9.068  68.804  1.00  0.00    -0.053 C  
HETATM   31  H2  UNL     1      -5.632   7.562  67.750  1.00  0.00     0.000 HD 
HETATM   32  N   UNL     1      -5.559   8.566  67.913  1.00  0.00    -0.035 NA 
HETATM   33  H1  UNL     1      -5.553   9.096  67.041  1.00  0.00     0.000 HD 
BRANCH  30  34
HETATM   34  C   UNL     1      -7.937   9.009  67.967  1.00  0.00    -0.101 C  
BRANCH  34  35
HETATM   35  C   UNL     1      -8.074   7.954  66.885  1.00  0.00    -0.115 A  
HETATM   36  C   UNL     1      -9.873   9.386  65.716  1.00  0.00    -0.345 C  
HETATM   37  C   UNL     1      -7.531   5.781  65.907  1.00  0.00    -0.078 A  
HETATM   38  C   UNL     1      -6.531   6.261  68.107  1.00  0.00    -0.049 C  
HETATM   39  C   UNL     1      -8.987   8.167  65.818  1.00  0.00    -0.165 A  
HETATM   40  C   UNL     1      -7.395   6.712  66.956  1.00  0.00    -0.082 A  
HETATM   41  C   UNL     1      -8.361   6.031  64.819  1.00  0.00    -0.086 A  
HETATM   42  C   UNL     1      -9.099   7.215  64.793  1.00  0.00     0.892 A  
BRANCH  41  43
HETATM   43  C   UNL     1      -8.543   5.079  63.688  1.00  0.00    -0.105 C  
HETATM   44  H2  UNL     1      -6.870   3.944  64.176  1.00  0.00     0.000 HD 
HETATM   45  H1  UNL     1      -7.777   3.403  62.754  1.00  0.00     0.000 HD 
HETATM   46  N   UNL     1      -7.651   4.055  63.529  1.00  0.00    -0.065 N  
HETATM   47  O   UNL     1      -9.474   5.192  62.896  1.00  0.00     0.160 OA 
ENDBRANCH  41  43
ENDBRANCH  34  35
ENDBRANCH  30  34
ENDBRANCH  15  30
ENDBRANCH  12  13
ENDBRANCH   6  12
ENDBRANCH   2   3
TORSDOF 10
ENDMDL
MODEL      293
REMARK 921   NORMALIZED FREE ENERGY PREDICTED BY IDOCK:   17.89 KCAL/MOL
REMARK 922        TOTAL FREE ENERGY PREDICTED BY IDOCK:   25.47 KCAL/MOL
REMARK 923 INTER-LIGAND FREE ENERGY PREDICTED BY IDOCK:    7.76 KCAL/MOL
REMARK 924 INTRA-LIGAND FREE ENERGY PREDICTED BY IDOCK:   17.71 KCAL/MOL
REMARK 927      BINDING AFFINITY PREDICTED BY RF-SCORE:    0.00 PKD
ROOT
HETATM    1  C   UNL     1      -8.995  12.700  64.319  1.00  0.00     1.695 C  
HETATM    2  O   UNL     1      -9.656  13.848  64.853  1.00  0.00     0.062 OA 
ENDROOT
BRANCH   2   3
HETATM    3  C   UNL     1     -10.312  13.689  66.048  1.00  0.00    -0.304 A  
HETATM    4  C   UNL     1      -9.809  14.129  67.275  1.00  0.00    -0.238 A  
HETATM    5  C   UNL     1     -10.574  14.024  68.442  1.00  0.00    -0.259 A  
HETATM    6  C   UNL     1     -11.845  13.443  68.426  1.00  0.00    -0.401 A  
HETATM    7  C   UNL     1     -12.325  12.945  67.205  1.00  0.00     0.086 A  
HETATM    8  C   UNL     1     -12.196  12.518  64.783  1.00  0.00    -0.465 C  
HETATM    9  O   UNL     1     -11.855  13.154  63.645  1.00  0.00    -0.472 OA 
HETATM   10  C   UNL     1     -11.576  13.074  66.019  1.00  0.00    -0.409 A  
HETATM   11  O   UNL     1     -13.004  11.603  64.814  1.00  0.00     0.204 OA 
BRANCH   6  12
HETATM   12  C   UNL     1     -12.716  13.376  69.665  1.00  0.00     0.357 C  
BRANCH  12  13
HETATM   13  N   UNL     1     -12.046  13.683  70.941  1.00  0.00    -0.310 N  
HETATM   14  O   UNL     1     -11.759  13.272  73.201  1.00  0.00     2.630 OA 
HETATM   15  C   UNL     1     -12.210  12.901  72.110  1.00  0.00     1.060 C  
BRANCH  13  16
HETATM   16  C   UNL     1     -11.442  15.033  71.089  1.00  0.00    -0.309 C  
HETATM   17  C   UNL     1     -11.293  15.500  72.548  1.00  0.00    -0.299 C  
BRANCH  16  18
HETATM   18  C   UNL     1     -10.074  15.098  70.441  1.00  0.00     0.189 A  
HETATM   19  C   UNL     1      -7.910  15.583  70.308  1.00  0.00     0.767 A  
HETATM   20  C   UNL     1      -8.208  14.480  69.538  1.00  0.00     0.225 A  
HETATM   21  N   UNL     1      -9.559  14.225  69.595  1.00  0.00    -0.128 NA 
HETATM   22  H   UNL     1     -10.065  13.501  69.084  1.00  0.00     0.000 HD 
HETATM   23  N   UNL     1      -9.106  15.985  70.850  1.00  0.00     2.578 NA 
BRANCH  20  24
HETATM   24  C   UNL     1      -7.276  13.606  68.837  1.00  0.00    -0.083 A  
HETATM   25  C   UNL     1      -5.859  11.619  68.882  1.00  0.00    -0.048 A  
HETATM   26  C   UNL     1      -5.359  11.930  67.622  1.00  0.00    -0.073 A  
HETATM   27  C   UNL     1      -5.824  13.066  66.957  1.00  0.00     0.553 A  
HETATM   28  C   UNL     1      -6.810  12.449  69.482  1.00  0.00     0.082 A  
HETATM   29  C   UNL     1      -6.781  13.897  67.558  1.00  0.00    -0.132 A  
ENDBRANCH  20  24
ENDBRANCH  16  18
ENDBRANCH  13  16
BRANCH  15  30
HETATM   30  C   UNL     1     -12.957  11.521  71.974  1.00  0.00    -0.268 C  
HETATM   31  H2  UNL     1     -12.669  11.426  69.900  1.00  0.00     0.000 HD 
HETATM   32  N   UNL     1     -13.428  11.334  70.574  1.00  0.00     0.657 NA 
HETATM   33  H1  UNL     1     -13.912  10.440  70.487  1.00  0.00     0.000 HD 
BRANCH  30  34
HETATM   34  C   UNL     1     -12.124  10.263  72.309  1.00  0.00     0.766 C  
BRANCH  34  35
HETATM   35  C   UNL     1     -11.278   9.624  71.225  1.00  0.00    -0.446 A  
HETATM   36  C   UNL     1     -13.113  10.141  69.488  1.00  0.00     1.375 C  
HETATM   37  C   UNL     1      -9.295   8.413  70.465  1.00  0.00    -0.177 A  
HETATM   38  C   UNL     1      -9.496   8.748  72.897  1.00  0.00     0.211 C  
HETATM   39  C   UNL     1     -11.763   9.596  69.890  1.00  0.00    -0.009 A  
HETATM   40  C   UNL     1     -10.060   8.960  71.515  1.00  0.00    -0.394 A  
HETATM   41  C   UNL     1      -9.734   8.464  69.146  1.00  0.00    -0.171 A  
HETATM   42  C   UNL     1     -10.976   9.039  68.871  1.00  0.00     0.019 A  
BRANCH  41  43
HETATM   43  C   UNL     1      -8.967   7.897  68.001  1.00  0.00    -0.127 C  
HETATM   44  H2  UNL     1      -7.180   8.805  68.555  1.00  0.00     0.000 HD 
HETATM   45  H1  UNL     1      -7.115   7.811  67.090  1.00  0.00     0.000 HD 
HETATM   46  N   UNL     1      -7.639   8.199  67.874  1.00  0.00    -0.100 N  
HETATM   47  O   UNL     1      -9.499   7.168  67.170  1.00  0.00    -0.136 OA 
ENDBRANCH  41  43
ENDBRANCH  34  35
ENDBRANCH  30  34
ENDBRANCH  15  30
ENDBRANCH  12  13
ENDBRANCH   6  12
ENDBRANCH   2   3
TORSDOF 10
ENDMDL
MODEL      294
REMARK 921   NORMALIZED FREE ENERGY PREDICTED BY IDOCK:   19.63 KCAL/MOL
REMARK 922        TOTAL FREE ENERGY PREDICTED BY IDOCK:   28.24 KCAL/MOL
REMARK 923 INTER-LIGAND FREE ENERGY PREDICTED BY IDOCK:   15.15 KCAL/MOL
REMARK 924 INTRA-LIGAND FREE ENERGY PREDICTED BY IDOCK:   13.09 KCAL/MOL
REMARK 927      BINDING AFFINITY PREDICTED BY RF-SCORE:    0.00 PKD
ROOT
HETATM    1  C   UNL     1      -8.035  19.686  64.957  1.00  0.00     1.219 C  
HETATM    2  O   UNL     1      -8.292  19.019  66.193  1.00  0.00    -0.379 OA 
ENDROOT
BRANCH   2   3
HETATM    3  C   UNL     1      -8.528  17.668  66.134  1.00  0.00    -0.132 A  
HETATM    4  C   UNL     1      -7.700  16.763  65.465  1.00  0.00     1.496 A  
HETATM    5  C   UNL     1      -7.944  15.388  65.527  1.00  0.00     3.539 A  
HETATM    6  C   UNL     1      -9.040  14.876  66.228  1.00  0.00    -0.262 A  
HETATM    7  C   UNL     1      -9.907  15.789  66.848  1.00  0.00    -0.243 A  
HETATM    8  C   UNL     1     -10.638  18.041  67.523  1.00  0.00    -0.388 C  
HETATM    9  O   UNL     1     -10.124  19.177  68.036  1.00  0.00    -0.354 OA 
HETATM   10  C   UNL     1      -9.654  17.174  66.817  1.00  0.00    -0.279 A  
HETATM   11  O   UNL     1     -11.803  17.710  67.683  1.00  0.00     1.043 OA 
BRANCH   6  12
HETATM   12  C   UNL     1      -9.288  13.387  66.362  1.00  0.00    -0.172 C  
BRANCH  12  13
HETATM   13  N   UNL     1      -8.426  12.674  67.322  1.00  0.00    -0.186 N  
HETATM   14  O   UNL     1      -8.003  10.818  68.638  1.00  0.00    -0.116 OA 
HETATM   15  C   UNL     1      -8.650  11.333  67.717  1.00  0.00    -0.126 C  
BRANCH  13  16
HETATM   16  C   UNL     1      -7.493  13.493  68.141  1.00  0.00    -0.132 C  
HETATM   17  C   UNL     1      -6.684  14.523  67.331  1.00  0.00    -0.021 C  
BRANCH  16  18
HETATM   18  C   UNL     1      -8.229  14.240  69.233  1.00  0.00     0.193 A  
HETATM   19  C   UNL     1      -9.191  15.991  70.205  1.00  0.00     0.810 A  
HETATM   20  C   UNL     1      -9.779  14.818  70.628  1.00  0.00     1.359 A  
HETATM   21  N   UNL     1      -9.138  13.745  70.053  1.00  0.00     1.449 NA 
HETATM   22  H   UNL     1      -9.329  12.758  70.226  1.00  0.00     0.000 HD 
HETATM   23  N   UNL     1      -8.190  15.610  69.346  1.00  0.00    -0.249 NA 
BRANCH  20  24
HETATM   24  C   UNL     1     -10.964  14.668  71.462  1.00  0.00     0.665 A  
HETATM   25  C   UNL     1     -12.873  13.301  72.130  1.00  0.00    -0.291 A  
HETATM   26  C   UNL     1     -13.351  14.336  72.928  1.00  0.00    -0.561 A  
HETATM   27  C   UNL     1     -12.635  15.530  73.011  1.00  0.00    -0.557 A  
HETATM   28  C   UNL     1     -11.689  13.466  71.407  1.00  0.00     1.001 A  
HETATM   29  C   UNL     1     -11.445  15.695  72.287  1.00  0.00    -0.459 A  
ENDBRANCH  20  24
ENDBRANCH  16  18
ENDBRANCH  13  16
BRANCH  15  30
HETATM   30  C   UNL     1      -9.726  10.501  66.924  1.00  0.00    -0.180 C  
HETATM   31  H2  UNL     1     -11.330  11.621  67.676  1.00  0.00     0.000 HD 
HETATM   32  N   UNL     1     -11.058  10.644  67.572  1.00  0.00    -0.312 NA 
HETATM   33  H1  UNL     1     -11.755  10.105  67.058  1.00  0.00     0.000 HD 
BRANCH  30  34
HETATM   34  C   UNL     1      -9.934  10.898  65.445  1.00  0.00    -0.319 C  
BRANCH  34  35
HETATM   35  C   UNL     1     -10.778  12.115  65.116  1.00  0.00    -0.333 A  
HETATM   36  C   UNL     1      -9.883  12.081  62.697  1.00  0.00     0.766 C  
HETATM   37  C   UNL     1     -12.314  13.912  65.740  1.00  0.00    -0.518 A  
HETATM   38  C   UNL     1     -11.514  12.480  67.578  1.00  0.00    -0.397 C  
HETATM   39  C   UNL     1     -10.749  12.645  63.798  1.00  0.00    -0.454 A  
HETATM   40  C   UNL     1     -11.518  12.807  66.106  1.00  0.00    -0.399 A  
HETATM   41  C   UNL     1     -12.350  14.375  64.429  1.00  0.00    -0.428 A  
HETATM   42  C   UNL     1     -11.551  13.749  63.470  1.00  0.00     0.157 A  
BRANCH  41  43
HETATM   43  C   UNL     1     -13.169  15.540  63.991  1.00  0.00     1.983 C  
HETATM   44  H2  UNL     1     -11.651  16.922  64.325  1.00  0.00     0.000 HD 
HETATM   45  H1  UNL     1     -13.174  17.587  63.713  1.00  0.00     0.000 HD 
HETATM   46  N   UNL     1     -12.614  16.790  64.013  1.00  0.00     3.005 N  
HETATM   47  O   UNL     1     -14.328  15.405  63.612  1.00  0.00     4.710 OA 
ENDBRANCH  41  43
ENDBRANCH  34  35
ENDBRANCH  30  34
ENDBRANCH  15  30
ENDBRANCH  12  13
ENDBRANCH   6  12
ENDBRANCH   2   3
TORSDOF 10
ENDMDL
MODEL      295
REMARK 921   NORMALIZED FREE ENERGY PREDICTED BY IDOCK:   22.49 KCAL/MOL
REMARK 922        TOTAL FREE ENERGY PREDICTED BY IDOCK:   32.77 KCAL/MOL
REMARK 923 INTER-LIGAND FREE ENERGY PREDICTED BY IDOCK:   18.66 KCAL/MOL
REMARK 924 INTRA-LIGAND FREE ENERGY PREDICTED BY IDOCK:   14.11 KCAL/MOL
REMARK 927      BINDING AFFINITY PREDICTED BY RF-SCORE:    0.00 PKD
ROOT
HETATM    1  C   UNL     1      -6.678   9.462  68.126  1.00  0.00    -0.059 C  
HETATM    2  O   UNL     1      -7.944   9.005  67.650  1.00  0.00    -0.100 OA 
ENDROOT
BRANCH   2   3
HETATM    3  C   UNL     1      -8.782   9.947  67.107  1.00  0.00    -0.131 A  
HETATM    4  C   UNL     1      -9.307  11.025  67.825  1.00  0.00    -0.162 A  
HETATM    5  C   UNL     1     -10.075  12.005  67.186  1.00  0.00    -0.217 A  
HETATM    6  C   UNL     1     -10.372  11.920  65.823  1.00  0.00    -0.285 A  
HETATM    7  C   UNL     1      -9.896  10.805  65.115  1.00  0.00    -0.333 A  
HETATM    8  C   UNL     1      -8.641   8.699  64.884  1.00  0.00    -0.135 C  
HETATM    9  O   UNL     1      -7.452   8.168  65.235  1.00  0.00    -0.074 OA 
HETATM   10  C   UNL     1      -9.097   9.829  65.742  1.00  0.00    -0.221 A  
HETATM   11  O   UNL     1      -9.265   8.334  63.900  1.00  0.00     0.835 OA 
BRANCH   6  12
HETATM   12  C   UNL     1     -11.148  13.001  65.097  1.00  0.00    -0.292 C  
BRANCH  12  13
HETATM   13  N   UNL     1     -12.222  13.651  65.869  1.00  0.00    -0.436 N  
HETATM   14  O   UNL     1     -13.563  15.494  66.274  1.00  0.00     3.116 OA 
HETATM   15  C   UNL     1     -12.775  14.907  65.521  1.00  0.00     0.257 C  
BRANCH  13  16
HETATM   16  C   UNL     1     -12.502  13.122  67.230  1.00  0.00     0.249 C  
HETATM   17  C   UNL     1     -12.205  11.620  67.394  1.00  0.00     0.620 C  
BRANCH  16  18
HETATM   18  C   UNL     1     -11.710  13.868  68.284  1.00  0.00    -0.361 A  
HETATM   19  C   UNL     1     -10.010  14.236  69.667  1.00  0.00     0.427 A  
HETATM   20  C   UNL     1     -10.580  15.427  69.271  1.00  0.00    -0.252 A  
HETATM   21  N   UNL     1     -11.660  15.176  68.454  1.00  0.00    -0.332 NA 
HETATM   22  H   UNL     1     -12.297  15.866  68.057  1.00  0.00     0.000 HD 
HETATM   23  N   UNL     1     -10.755  13.254  69.061  1.00  0.00    -0.176 NA 
BRANCH  20  24
HETATM   24  C   UNL     1     -10.102  16.776  69.542  1.00  0.00    -0.107 A  
HETATM   25  C   UNL     1      -8.528  18.566  69.017  1.00  0.00    -0.082 A  
HETATM   26  C   UNL     1      -9.008  19.320  70.083  1.00  0.00     1.300 A  
HETATM   27  C   UNL     1     -10.044  18.817  70.871  1.00  0.00     2.537 A  
HETATM   28  C   UNL     1      -9.072  17.307  68.749  1.00  0.00    -0.232 A  
HETATM   29  C   UNL     1     -10.593  17.555  70.600  1.00  0.00     1.498 A  
ENDBRANCH  20  24
ENDBRANCH  16  18
ENDBRANCH  13  16
BRANCH  15  30
HETATM   30  C   UNL     1     -12.384  15.523  64.126  1.00  0.00     0.066 C  
HETATM   31  H2  UNL     1     -13.795  17.066  64.269  1.00  0.00     0.000 HD 
HETATM   32  N   UNL     1     -13.505  16.351  63.603  1.00  0.00     2.739 NA 
HETATM   33  H1  UNL     1     -13.251  16.749  62.699  1.00  0.00     0.000 HD 
BRANCH  30  34
HETATM   34  C   UNL     1     -11.142  16.442  64.115  1.00  0.00     0.541 C  
BRANCH  34  35
HETATM   35  C   UNL     1      -9.923  16.051  64.929  1.00  0.00     0.553 A  
HETATM   36  C   UNL     1      -9.795  18.442  65.887  1.00  0.00    -0.021 C  
HETATM   37  C   UNL     1      -8.195  14.457  65.602  1.00  0.00     3.120 A  
HETATM   38  C   UNL     1      -9.720  13.715  63.815  1.00  0.00     2.703 C  
HETATM   39  C   UNL     1      -9.314  17.015  65.777  1.00  0.00     0.041 A  
HETATM   40  C   UNL     1      -9.305  14.782  64.796  1.00  0.00     1.734 A  
HETATM   41  C   UNL     1      -7.655  15.377  66.495  1.00  0.00     0.445 A  
HETATM   42  C   UNL     1      -8.207  16.657  66.561  1.00  0.00    -0.330 A  
BRANCH  41  43
HETATM   43  C   UNL     1      -6.480  15.086  67.364  1.00  0.00     0.016 C  
HETATM   44  H2  UNL     1      -6.115  13.228  66.505  1.00  0.00     0.000 HD 
HETATM   45  H1  UNL     1      -5.009  13.704  67.803  1.00  0.00     0.000 HD 
HETATM   46  N   UNL     1      -5.813  13.903  67.208  1.00  0.00     0.303 N  
HETATM   47  O   UNL     1      -6.099  15.882  68.217  1.00  0.00    -0.100 OA 
ENDBRANCH  41  43
ENDBRANCH  34  35
ENDBRANCH  30  34
ENDBRANCH  15  30
ENDBRANCH  12  13
ENDBRANCH   6  12
ENDBRANCH   2   3
TORSDOF 10
ENDMDL
MODEL      296
REMARK 921   NORMALIZED FREE ENERGY PREDICTED BY IDOCK:   27.32 KCAL/MOL
REMARK 922        TOTAL FREE ENERGY PREDICTED BY IDOCK:   40.41 KCAL/MOL
REMARK 923 INTER-LIGAND FREE ENERGY PREDICTED BY IDOCK:   37.30 KCAL/MOL
REMARK 924 INTRA-LIGAND FREE ENERGY PREDICTED BY IDOCK:    3.11 KCAL/MOL
REMARK 927      BINDING AFFINITY PREDICTED BY RF-SCORE:    0.00 PKD
ROOT
HETATM    1  C   UNL     1      -7.714   4.292  65.386  1.00  0.00    -0.086 C  
HETATM    2  O   UNL     1      -8.668   4.984  64.579  1.00  0.00    -0.151 OA 
ENDROOT
BRANCH   2   3
HETATM    3  C   UNL     1      -9.497   5.872  65.219  1.00  0.00     0.423 A  
HETATM    4  C   UNL     1      -9.041   6.972  65.950  1.00  0.00    -0.048 A  
HETATM    5  C   UNL     1      -9.942   7.893  66.494  1.00  0.00    -0.267 A  
HETATM    6  C   UNL     1     -11.323   7.725  66.358  1.00  0.00     2.544 A  
HETATM    7  C   UNL     1     -11.782   6.587  65.677  1.00  0.00     4.764 A  
HETATM    8  C   UNL     1     -11.490   4.507  64.391  1.00  0.00     1.000 C  
HETATM    9  O   UNL     1     -10.761   4.030  63.362  1.00  0.00    -0.198 OA 
HETATM   10  C   UNL     1     -10.883   5.669  65.099  1.00  0.00     1.840 A  
HETATM   11  O   UNL     1     -12.593   4.071  64.679  1.00  0.00     3.884 OA 
BRANCH   6  12
HETATM   12  C   UNL     1     -12.315   8.743  66.884  1.00  0.00     8.942 C  
BRANCH  12  13
HETATM   13  N   UNL     1     -12.095   9.201  68.268  1.00  0.00     2.690 N  
HETATM   14  O   UNL     1     -11.397  10.838  69.747  1.00  0.00    -0.254 OA 
HETATM   15  C   UNL     1     -11.724  10.528  68.595  1.00  0.00    -0.085 C  
BRANCH  13  16
HETATM   16  C   UNL     1     -11.943   8.159  69.316  1.00  0.00     1.708 C  
HETATM   17  C   UNL     1     -11.406   6.814  68.793  1.00  0.00    -0.102 C  
BRANCH  16  18
HETATM   18  C   UNL     1     -11.021   8.623  70.425  1.00  0.00    -0.235 A  
HETATM   19  C   UNL     1     -10.083   8.583  72.439  1.00  0.00    -0.295 A  
HETATM   20  C   UNL     1      -9.216   9.119  71.510  1.00  0.00    -0.086 A  
HETATM   21  N   UNL     1      -9.832   9.179  70.281  1.00  0.00    -0.193 NA 
HETATM   22  H   UNL     1      -9.445   9.576  69.425  1.00  0.00     0.000 HD 
HETATM   23  N   UNL     1     -11.234   8.303  71.745  1.00  0.00    -0.266 NA 
BRANCH  20  24
HETATM   24  C   UNL     1      -7.818   9.481  71.704  1.00  0.00     0.777 A  
HETATM   25  C   UNL     1      -5.940   9.767  73.237  1.00  0.00     0.604 A  
HETATM   26  C   UNL     1      -5.165  10.294  72.210  1.00  0.00     0.088 A  
HETATM   27  C   UNL     1      -5.702  10.402  70.926  1.00  0.00    -0.082 A  
HETATM   28  C   UNL     1      -7.254   9.363  72.985  1.00  0.00     1.196 A  
HETATM   29  C   UNL     1      -7.019   9.993  70.672  1.00  0.00    -0.031 A  
ENDBRANCH  20  24
ENDBRANCH  16  18
ENDBRANCH  13  16
BRANCH  15  30
HETATM   30  C   UNL     1     -11.773  11.609  67.451  1.00  0.00    -0.201 C  
HETATM   31  H2  UNL     1     -13.868  11.643  67.399  1.00  0.00     0.000 HD 
HETATM   32  N   UNL     1     -13.086  11.551  66.752  1.00  0.00     4.832 NA 
HETATM   33  H1  UNL     1     -13.117  12.251  66.011  1.00  0.00     0.000 HD 
BRANCH  30  34
HETATM   34  C   UNL     1     -11.600  13.078  67.899  1.00  0.00    -0.385 C  
BRANCH  34  35
HETATM   35  C   UNL     1     -10.409  13.871  67.396  1.00  0.00    -0.252 A  
HETATM   36  C   UNL     1     -11.991  15.371  66.017  1.00  0.00     0.467 C  
HETATM   37  C   UNL     1      -8.006  14.286  67.225  1.00  0.00    -0.191 A  
HETATM   38  C   UNL     1      -8.673  12.260  68.458  1.00  0.00    -0.071 C  
HETATM   39  C   UNL     1     -10.625  14.967  66.517  1.00  0.00    -0.306 A  
HETATM   40  C   UNL     1      -9.075  13.494  67.690  1.00  0.00    -0.205 A  
HETATM   41  C   UNL     1      -8.227  15.410  66.435  1.00  0.00     0.026 A  
HETATM   42  C   UNL     1      -9.536  15.730  66.070  1.00  0.00    -0.392 A  
BRANCH  41  43
HETATM   43  C   UNL     1      -7.133  16.277  65.914  1.00  0.00     1.663 C  
HETATM   44  H2  UNL     1      -8.232  16.934  64.276  1.00  0.00     0.000 HD 
HETATM   45  H1  UNL     1      -6.591  17.586  64.411  1.00  0.00     0.000 HD 
HETATM   46  N   UNL     1      -7.340  16.993  64.768  1.00  0.00     4.498 N  
HETATM   47  O   UNL     1      -6.052  16.362  66.489  1.00  0.00    -0.262 OA 
ENDBRANCH  41  43
ENDBRANCH  34  35
ENDBRANCH  30  34
ENDBRANCH  15  30
ENDBRANCH  12  13
ENDBRANCH   6  12
ENDBRANCH   2   3
TORSDOF 10
ENDMDL
MODEL      297
REMARK 921   NORMALIZED FREE ENERGY PREDICTED BY IDOCK:   31.14 KCAL/MOL
REMARK 922        TOTAL FREE ENERGY PREDICTED BY IDOCK:   46.47 KCAL/MOL
REMARK 923 INTER-LIGAND FREE ENERGY PREDICTED BY IDOCK:    6.23 KCAL/MOL
REMARK 924 INTRA-LIGAND FREE ENERGY PREDICTED BY IDOCK:   40.24 KCAL/MOL
REMARK 927      BINDING AFFINITY PREDICTED BY RF-SCORE:    0.00 PKD
ROOT
HETATM    1  C   UNL     1      -6.193   9.334  65.611  1.00  0.00    -0.063 C  
HETATM    2  O   UNL     1      -7.387   9.252  66.390  1.00  0.00    -0.090 OA 
ENDROOT
BRANCH   2   3
HETATM    3  C   UNL     1      -8.156  10.385  66.472  1.00  0.00    -0.122 A  
HETATM    4  C   UNL     1      -9.547  10.372  66.607  1.00  0.00    -0.219 A  
HETATM    5  C   UNL     1     -10.261  11.562  66.785  1.00  0.00    -0.254 A  
HETATM    6  C   UNL     1      -9.614  12.801  66.796  1.00  0.00    -0.244 A  
HETATM    7  C   UNL     1      -8.224  12.819  66.599  1.00  0.00     0.166 A  
HETATM    8  C   UNL     1      -6.022  11.771  66.259  1.00  0.00     0.361 C  
HETATM    9  O   UNL     1      -5.286  10.748  66.739  1.00  0.00    -0.044 OA 
HETATM   10  C   UNL     1      -7.493  11.625  66.449  1.00  0.00     0.112 A  
HETATM   11  O   UNL     1      -5.524  12.773  65.770  1.00  0.00     2.647 OA 
BRANCH   6  12
HETATM   12  C   UNL     1     -10.358  14.097  67.051  1.00  0.00    -0.267 C  
BRANCH  12  13
HETATM   13  N   UNL     1     -11.219  14.572  65.953  1.00  0.00    -0.326 N  
HETATM   14  O   UNL     1     -12.427  16.271  64.947  1.00  0.00     0.877 OA 
HETATM   15  C   UNL     1     -11.581  15.930  65.784  1.00  0.00     0.467 C  
BRANCH  13  16
HETATM   16  C   UNL     1     -11.989  13.549  65.198  1.00  0.00    -0.368 C  
HETATM   17  C   UNL     1     -11.581  13.419  63.719  1.00  0.00    -0.362 C  
BRANCH  16  18
HETATM   18  C   UNL     1     -11.860  12.181  65.834  1.00  0.00    -0.272 A  
HETATM   19  C   UNL     1     -11.210  10.062  65.983  1.00  0.00     1.070 A  
HETATM   20  C   UNL     1     -11.336  10.620  67.237  1.00  0.00    -0.040 A  
HETATM   21  N   UNL     1     -11.786  11.916  67.125  1.00  0.00    -0.583 NA 
HETATM   22  H   UNL     1     -12.016  12.549  67.891  1.00  0.00     0.000 HD 
HETATM   23  N   UNL     1     -11.576  11.051  65.104  1.00  0.00     0.368 NA 
BRANCH  20  24
HETATM   24  C   UNL     1     -10.964  10.028  68.516  1.00  0.00    -0.255 A  
HETATM   25  C   UNL     1     -10.461  10.347  70.883  1.00  0.00     0.654 A  
HETATM   26  C   UNL     1     -10.110   9.006  71.002  1.00  0.00    -0.352 A  
HETATM   27  C   UNL     1     -10.200   8.168  69.890  1.00  0.00    -0.204 A  
HETATM   28  C   UNL     1     -10.886  10.851  69.651  1.00  0.00    -0.271 A  
HETATM   29  C   UNL     1     -10.629   8.674  68.654  1.00  0.00    -0.165 A  
ENDBRANCH  20  24
ENDBRANCH  16  18
ENDBRANCH  13  16
BRANCH  15  30
HETATM   30  C   UNL     1     -10.846  17.004  66.671  1.00  0.00     0.034 C  
HETATM   31  H2  UNL     1     -12.252  16.870  68.220  1.00  0.00     0.000 HD 
HETATM   32  N   UNL     1     -11.798  17.588  67.655  1.00  0.00     1.318 NA 
HETATM   33  H1  UNL     1     -11.322  18.283  68.230  1.00  0.00     0.000 HD 
BRANCH  30  34
HETATM   34  C   UNL     1      -9.646  16.492  67.499  1.00  0.00    -0.231 C  
BRANCH  34  35
HETATM   35  C   UNL     1      -8.942  17.443  68.449  1.00  0.00    -0.277 A  
HETATM   36  C   UNL     1      -7.338  15.550  69.155  1.00  0.00    -0.177 C  
HETATM   37  C   UNL     1      -8.701  19.613  69.549  1.00  0.00     0.325 A  
HETATM   38  C   UNL     1     -10.669  19.348  68.091  1.00  0.00    -0.262 C  
HETATM   39  C   UNL     1      -7.837  16.974  69.210  1.00  0.00     0.016 A  
HETATM   40  C   UNL     1      -9.413  18.759  68.682  1.00  0.00    -0.412 A  
HETATM   41  C   UNL     1      -7.567  19.176  70.226  1.00  0.00     1.119 A  
HETATM   42  C   UNL     1      -7.155  17.852  70.066  1.00  0.00     0.912 A  
BRANCH  41  43
HETATM   43  C   UNL     1      -6.783  20.035  71.157  1.00  0.00     0.303 C  
HETATM   44  H2  UNL     1      -5.389  18.554  71.588  1.00  0.00     0.000 HD 
HETATM   45  H1  UNL     1      -5.138  20.106  72.405  1.00  0.00     0.000 HD 
HETATM   46  N   UNL     1      -5.675  19.517  71.768  1.00  0.00    -0.273 N  
HETATM   47  O   UNL     1      -7.108  21.196  71.388  1.00  0.00     1.617 OA 
ENDBRANCH  41  43
ENDBRANCH  34  35
ENDBRANCH  30  34
ENDBRANCH  15  30
ENDBRANCH  12  13
ENDBRANCH   6  12
ENDBRANCH   2   3
TORSDOF 10
ENDMDL
MODEL      298
REMARK 921   NORMALIZED FREE ENERGY PREDICTED BY IDOCK:   35.78 KCAL/MOL
REMARK 922        TOTAL FREE ENERGY PREDICTED BY IDOCK:   53.82 KCAL/MOL
REMARK 923 INTER-LIGAND FREE ENERGY PREDICTED BY IDOCK:   44.65 KCAL/MOL
REMARK 924 INTRA-LIGAND FREE ENERGY PREDICTED BY IDOCK:    9.17 KCAL/MOL
REMARK 927      BINDING AFFINITY PREDICTED BY RF-SCORE:    0.00 PKD
ROOT
HETATM    1  C   UNL     1      -8.232   6.603  68.591  1.00  0.00    -0.119 C  
HETATM    2  O   UNL     1      -8.523   7.708  67.733  1.00  0.00    -0.121 OA 
ENDROOT
BRANCH   2   3
HETATM    3  C   UNL     1      -7.794   8.855  67.928  1.00  0.00    -0.102 A  
HETATM    4  C   UNL     1      -7.854   9.625  69.092  1.00  0.00    -0.090 A  
HETATM    5  C   UNL     1      -7.011  10.728  69.266  1.00  0.00    -0.102 A  
HETATM    6  C   UNL     1      -6.111  11.117  68.270  1.00  0.00    -0.045 A  
HETATM    7  C   UNL     1      -6.094  10.380  67.075  1.00  0.00    -0.052 A  
HETATM    8  C   UNL     1      -6.801   8.542  65.596  1.00  0.00    -0.067 C  
HETATM    9  O   UNL     1      -7.043   7.217  65.649  1.00  0.00    -0.065 OA 
HETATM   10  C   UNL     1      -6.917   9.250  66.902  1.00  0.00    -0.081 A  
HETATM   11  O   UNL     1      -6.445   9.111  64.576  1.00  0.00    -0.074 OA 
BRANCH   6  12
HETATM   12  C   UNL     1      -5.144  12.269  68.461  1.00  0.00    -0.051 C  
BRANCH  12  13
HETATM   13  N   UNL     1      -5.672  13.438  69.187  1.00  0.00    -0.075 N  
HETATM   14  O   UNL     1      -6.578  15.568  69.164  1.00  0.00    -0.120 OA 
HETATM   15  C   UNL     1      -6.289  14.537  68.542  1.00  0.00    -0.088 C  
BRANCH  13  16
HETATM   16  C   UNL     1      -5.249  13.611  70.602  1.00  0.00    -0.120 C  
HETATM   17  C   UNL     1      -5.282  15.070  71.094  1.00  0.00    -0.132 C  
BRANCH  16  18
HETATM   18  C   UNL     1      -6.108  12.788  71.539  1.00  0.00     1.277 A  
HETATM   19  C   UNL     1      -7.692  12.428  73.055  1.00  0.00    16.274 A  
HETATM   20  C   UNL     1      -7.529  11.320  72.251  1.00  0.00     9.759 A  
HETATM   21  N   UNL     1      -6.512  11.545  71.351  1.00  0.00     0.691 NA 
HETATM   22  H   UNL     1      -6.143  10.881  70.670  1.00  0.00     0.000 HD 
HETATM   23  N   UNL     1      -6.764  13.339  72.615  1.00  0.00     3.279 NA 
BRANCH  20  24
HETATM   24  C   UNL     1      -8.342  10.111  72.227  1.00  0.00     5.397 A  
HETATM   25  C   UNL     1     -10.557   9.103  72.042  1.00  0.00    -0.199 A  
HETATM   26  C   UNL     1     -10.022   7.846  72.307  1.00  0.00    -0.280 A  
HETATM   27  C   UNL     1      -8.648   7.712  72.515  1.00  0.00    -0.164 A  
HETATM   28  C   UNL     1      -9.724  10.223  72.001  1.00  0.00     5.184 A  
HETATM   29  C   UNL     1      -7.811   8.836  72.470  1.00  0.00     0.099 A  
ENDBRANCH  20  24
ENDBRANCH  16  18
ENDBRANCH  13  16
BRANCH  15  30
HETATM   30  C   UNL     1      -6.629  14.396  67.011  1.00  0.00     0.921 C  
HETATM   31  H2  UNL     1      -6.107  12.367  66.953  1.00  0.00     0.000 HD 
HETATM   32  N   UNL     1      -5.913  13.224  66.437  1.00  0.00     1.470 NA 
HETATM   33  H1  UNL     1      -6.134  13.133  65.445  1.00  0.00     0.000 HD 
BRANCH  30  34
HETATM   34  C   UNL     1      -8.121  14.188  66.665  1.00  0.00     0.444 C  
BRANCH  34  35
HETATM   35  C   UNL     1      -9.104  13.880  67.779  1.00  0.00    -0.191 A  
HETATM   36  C   UNL     1     -10.259  12.131  66.275  1.00  0.00    -0.249 C  
HETATM   37  C   UNL     1     -10.043  14.273  70.001  1.00  0.00     0.762 A  
HETATM   38  C   UNL     1      -8.264  15.820  69.285  1.00  0.00    -0.247 C  
HETATM   39  C   UNL     1     -10.098  12.886  67.573  1.00  0.00    -0.214 A  
HETATM   40  C   UNL     1      -9.131  14.623  68.985  1.00  0.00    -0.097 A  
HETATM   41  C   UNL     1     -10.959  13.240  69.829  1.00  0.00     0.207 A  
HETATM   42  C   UNL     1     -10.992  12.566  68.606  1.00  0.00    -0.291 A  
BRANCH  41  43
HETATM   43  C   UNL     1     -11.946  12.834  70.868  1.00  0.00     0.146 C  
HETATM   44  H2  UNL     1     -10.896  13.725  72.427  1.00  0.00     0.000 HD 
HETATM   45  H1  UNL     1     -12.402  12.911  72.881  1.00  0.00     0.000 HD 
HETATM   46  N   UNL     1     -11.726  13.189  72.170  1.00  0.00     2.190 N  
HETATM   47  O   UNL     1     -12.950  12.188  70.583  1.00  0.00    -0.006 OA 
ENDBRANCH  41  43
ENDBRANCH  34  35
ENDBRANCH  30  34
ENDBRANCH  15  30
ENDBRANCH  12  13
ENDBRANCH   6  12
ENDBRANCH   2   3
TORSDOF 10
ENDMDL
MODEL      299
REMARK 921   NORMALIZED FREE ENERGY PREDICTED BY IDOCK:   43.69 KCAL/MOL
REMARK 922        TOTAL FREE ENERGY PREDICTED BY IDOCK:   66.37 KCAL/MOL
REMARK 923 INTER-LIGAND FREE ENERGY PREDICTED BY IDOCK:   57.36 KCAL/MOL
REMARK 924 INTRA-LIGAND FREE ENERGY PREDICTED BY IDOCK:    9.01 KCAL/MOL
REMARK 927      BINDING AFFINITY PREDICTED BY RF-SCORE:    0.00 PKD
ROOT
HETATM    1  C   UNL     1      -7.766  10.274  70.106  1.00  0.00     0.026 C  
HETATM    2  O   UNL     1      -7.706  11.579  70.685  1.00  0.00     2.025 OA 
ENDROOT
BRANCH   2   3
HETATM    3  C   UNL     1      -8.013  12.637  69.866  1.00  0.00     2.169 A  
HETATM    4  C   UNL     1      -7.544  13.938  70.068  1.00  0.00     0.950 A  
HETATM    5  C   UNL     1      -7.813  14.949  69.141  1.00  0.00    -0.171 A  
HETATM    6  C   UNL     1      -8.588  14.703  68.004  1.00  0.00    -0.162 A  
HETATM    7  C   UNL     1      -9.112  13.411  67.832  1.00  0.00    -0.208 A  
HETATM    8  C   UNL     1      -9.422  11.048  68.449  1.00  0.00    -0.182 C  
HETATM    9  O   UNL     1      -8.697   9.993  68.874  1.00  0.00    -0.130 OA 
HETATM   10  C   UNL     1      -8.821  12.379  68.744  1.00  0.00     0.152 A  
HETATM   11  O   UNL     1     -10.455  10.927  67.809  1.00  0.00    -0.184 OA 
BRANCH   6  12
HETATM   12  C   UNL     1      -8.840  15.766  66.954  1.00  0.00    -0.245 C  
BRANCH  12  13
HETATM   13  N   UNL     1      -9.579  16.958  67.408  1.00  0.00    -0.239 N  
HETATM   14  O   UNL     1     -11.065  18.679  66.974  1.00  0.00    -0.205 OA 
HETATM   15  C   UNL     1     -10.577  17.594  66.631  1.00  0.00    -0.211 C  
BRANCH  13  16
HETATM   16  C   UNL     1      -9.029  17.700  68.573  1.00  0.00    -0.289 C  
HETATM   17  C   UNL     1      -9.435  19.184  68.623  1.00  0.00    -0.460 C  
BRANCH  16  18
HETATM   18  C   UNL     1      -9.450  17.061  69.881  1.00  0.00     0.977 A  
HETATM   19  C   UNL     1      -9.475  16.767  72.083  1.00  0.00     9.642 A  
HETATM   20  C   UNL     1     -10.685  16.404  71.531  1.00  0.00     1.246 A  
HETATM   21  N   UNL     1     -10.633  16.548  70.163  1.00  0.00    -0.171 NA 
HETATM   22  H   UNL     1     -11.366  16.306  69.497  1.00  0.00     0.000 HD 
HETATM   23  N   UNL     1      -8.690  17.151  71.023  1.00  0.00     5.968 NA 
BRANCH  20  24
HETATM   24  C   UNL     1     -11.904  16.026  72.232  1.00  0.00    -0.628 A  
HETATM   25  C   UNL     1     -13.081  14.404  73.627  1.00  0.00     0.399 A  
HETATM   26  C   UNL     1     -14.258  15.135  73.507  1.00  0.00     2.330 A  
HETATM   27  C   UNL     1     -14.263  16.319  72.767  1.00  0.00     0.353 A  
HETATM   28  C   UNL     1     -11.915  14.848  72.996  1.00  0.00    -0.320 A  
HETATM   29  C   UNL     1     -13.092  16.766  72.138  1.00  0.00     2.452 A  
ENDBRANCH  20  24
ENDBRANCH  16  18
ENDBRANCH  13  16
BRANCH  15  30
HETATM   30  C   UNL     1     -11.075  16.861  65.329  1.00  0.00     0.051 C  
HETATM   31  H2  UNL     1     -11.499  18.654  64.329  1.00  0.00     0.000 HD 
HETATM   32  N   UNL     1     -11.955  17.766  64.541  1.00  0.00     2.552 NA 
HETATM   33  H1  UNL     1     -12.278  17.291  63.698  1.00  0.00     0.000 HD 
BRANCH  30  34
HETATM   34  C   UNL     1      -9.974  16.390  64.353  1.00  0.00     2.699 C  
BRANCH  34  35
HETATM   35  C   UNL     1      -9.639  14.912  64.271  1.00  0.00     3.202 A  
HETATM   36  C   UNL     1     -12.112  14.379  63.771  1.00  0.00    -0.039 C  
HETATM   37  C   UNL     1      -8.081  13.038  64.457  1.00  0.00     6.367 A  
HETATM   38  C   UNL     1      -7.196  15.250  65.083  1.00  0.00     9.683 C  
HETATM   39  C   UNL     1     -10.670  13.981  63.975  1.00  0.00     0.419 A  
HETATM   40  C   UNL     1      -8.348  14.416  64.583  1.00  0.00     7.810 A  
HETATM   41  C   UNL     1      -9.074  12.138  64.082  1.00  0.00     0.673 A  
HETATM   42  C   UNL     1     -10.368  12.615  63.863  1.00  0.00    -0.405 A  
BRANCH  41  43
HETATM   43  C   UNL     1      -8.845  10.673  63.941  1.00  0.00    -0.163 C  
HETATM   44  H2  UNL     1      -8.240  10.425  65.915  1.00  0.00     0.000 HD 
HETATM   45  H1  UNL     1      -8.252   8.956  64.925  1.00  0.00     0.000 HD 
HETATM   46  N   UNL     1      -8.408   9.960  65.022  1.00  0.00    -0.139 N  
HETATM   47  O   UNL     1      -9.039  10.092  62.877  1.00  0.00    -0.235 OA 
ENDBRANCH  41  43
ENDBRANCH  34  35
ENDBRANCH  30  34
ENDBRANCH  15  30
ENDBRANCH  12  13
ENDBRANCH   6  12
ENDBRANCH   2   3
TORSDOF 10
ENDMDL
MODEL      300
REMARK 921   NORMALIZED FREE ENERGY PREDICTED BY IDOCK:   48.25 KCAL/MOL
REMARK 922        TOTAL FREE ENERGY PREDICTED BY IDOCK:   73.58 KCAL/MOL
REMARK 923 INTER-LIGAND FREE ENERGY PREDICTED BY IDOCK:   63.12 KCAL/MOL
REMARK 924 INTRA-LIGAND FREE ENERGY PREDICTED BY IDOCK:   10.46 KCAL/MOL
REMARK 927      BINDING AFFINITY PREDICTED BY RF-SCORE:    0.00 PKD
ROOT
HETATM    1  C   UNL     1     -10.478   6.480  69.340  1.00  0.00    -0.221 C  
HETATM    2  O   UNL     1     -11.637   7.222  69.724  1.00  0.00    -0.074 OA 
ENDROOT
BRANCH   2   3
HETATM    3  C   UNL     1     -11.469   8.566  69.947  1.00  0.00     0.167 A  
HETATM    4  C   UNL     1     -11.463   9.527  68.933  1.00  0.00     0.268 A  
HETATM    5  C   UNL     1     -11.387  10.890  69.238  1.00  0.00    -0.345 A  
HETATM    6  C   UNL     1     -11.278  11.332  70.559  1.00  0.00     0.279 A  
HETATM    7  C   UNL     1     -11.222  10.364  71.575  1.00  0.00     0.639 A  
HETATM    8  C   UNL     1     -11.270   8.060  72.442  1.00  0.00    -0.369 C  
HETATM    9  O   UNL     1     -11.970   6.919  72.288  1.00  0.00    -0.272 OA 
HETATM   10  C   UNL     1     -11.329   8.991  71.280  1.00  0.00    -0.389 A  
HETATM   11  O   UNL     1     -10.689   8.346  73.478  1.00  0.00     0.548 OA 
BRANCH   6  12
HETATM   12  C   UNL     1     -11.258  12.805  70.918  1.00  0.00     2.142 C  
BRANCH  12  13
HETATM   13  N   UNL     1     -10.251  13.624  70.220  1.00  0.00     1.743 N  
HETATM   14  O   UNL     1      -9.404  15.703  69.653  1.00  0.00    -0.280 OA 
HETATM   15  C   UNL     1     -10.156  15.029  70.369  1.00  0.00     0.284 C  
BRANCH  13  16
HETATM   16  C   UNL     1      -9.530  12.997  69.082  1.00  0.00     0.622 C  
HETATM   17  C   UNL     1      -9.430  11.463  69.169  1.00  0.00     0.120 C  
BRANCH  16  18
HETATM   18  C   UNL     1     -10.181  13.343  67.759  1.00  0.00    -0.235 A  
HETATM   19  C   UNL     1     -11.837  13.481  66.283  1.00  0.00    -0.392 A  
HETATM   20  C   UNL     1     -10.923  14.494  66.084  1.00  0.00    -0.322 A  
HETATM   21  N   UNL     1      -9.883  14.363  66.976  1.00  0.00    -0.246 NA 
HETATM   22  H   UNL     1      -9.044  14.942  67.022  1.00  0.00     0.000 HD 
HETATM   23  N   UNL     1     -11.339  12.740  67.326  1.00  0.00    -0.295 NA 
BRANCH  20  24
HETATM   24  C   UNL     1     -11.033  15.624  65.170  1.00  0.00    -0.411 A  
HETATM   25  C   UNL     1     -10.028  16.961  63.393  1.00  0.00    11.164 A  
HETATM   26  C   UNL     1     -11.083  17.866  63.459  1.00  0.00     9.110 A  
HETATM   27  C   UNL     1     -12.123  17.647  64.364  1.00  0.00     5.266 A  
HETATM   28  C   UNL     1     -10.005  15.850  64.240  1.00  0.00     2.797 A  
HETATM   29  C   UNL     1     -12.102  16.530  65.211  1.00  0.00     1.872 A  
ENDBRANCH  20  24
ENDBRANCH  16  18
ENDBRANCH  13  16
BRANCH  15  30
HETATM   30  C   UNL     1     -11.013  15.709  71.502  1.00  0.00    -0.027 C  
HETATM   31  H2  UNL     1      -9.349  16.624  72.388  1.00  0.00     0.000 HD 
HETATM   32  N   UNL     1     -10.145  16.049  72.662  1.00  0.00     4.747 NA 
HETATM   33  H1  UNL     1     -10.701  16.489  73.395  1.00  0.00     0.000 HD 
BRANCH  30  34
HETATM   34  C   UNL     1     -11.730  17.021  71.114  1.00  0.00     1.246 C  
BRANCH  34  35
HETATM   35  C   UNL     1     -11.237  17.809  69.915  1.00  0.00     1.983 A  
HETATM   36  C   UNL     1     -13.592  17.689  68.868  1.00  0.00    11.148 C  
HETATM   37  C   UNL     1      -9.472  18.912  68.632  1.00  0.00    -0.427 A  
HETATM   38  C   UNL     1      -8.756  17.733  70.673  1.00  0.00     4.934 C  
HETATM   39  C   UNL     1     -12.147  18.128  68.871  1.00  0.00     5.104 A  
HETATM   40  C   UNL     1      -9.871  18.150  69.749  1.00  0.00     0.637 A  
HETATM   41  C   UNL     1     -10.384  19.298  67.655  1.00  0.00    -0.532 A  
HETATM   42  C   UNL     1     -11.713  18.885  67.772  1.00  0.00     1.636 A  
BRANCH  41  43
HETATM   43  C   UNL     1     -10.013  20.098  66.454  1.00  0.00    -0.448 C  
HETATM   44  H2  UNL     1     -11.508  19.279  65.262  1.00  0.00     0.000 HD 
HETATM   45  H1  UNL     1     -10.475  20.486  64.478  1.00  0.00     0.000 HD 
HETATM   46  N   UNL     1     -10.729  19.938  65.300  1.00  0.00    -0.162 N  
HETATM   47  O   UNL     1      -9.081  20.895  66.476  1.00  0.00     0.110 OA 
ENDBRANCH  41  43
ENDBRANCH  34  35
ENDBRANCH  30  34
ENDBRANCH  15  30
ENDBRANCH  12  13
ENDBRANCH   6  12
ENDBRANCH   2   3
TORSDOF 10
ENDMDL
MODEL      301
REMARK 921   NORMALIZED FREE ENERGY PREDICTED BY IDOCK:   50.77 KCAL/MOL
REMARK 922        TOTAL FREE ENERGY PREDICTED BY IDOCK:   77.59 KCAL/MOL
REMARK 923 INTER-LIGAND FREE ENERGY PREDICTED BY IDOCK:   43.08 KCAL/MOL
REMARK 924 INTRA-LIGAND FREE ENERGY PREDICTED BY IDOCK:   34.51 KCAL/MOL
REMARK 927      BINDING AFFINITY PREDICTED BY RF-SCORE:    0.00 PKD
ROOT
HETATM    1  C   UNL     1      -8.043  20.176  64.497  1.00  0.00     2.204 C  
HETATM    2  O   UNL     1      -8.075  19.611  65.808  1.00  0.00    -0.402 OA 
ENDROOT
BRANCH   2   3
HETATM    3  C   UNL     1      -8.206  18.248  65.896  1.00  0.00     0.088 A  
HETATM    4  C   UNL     1      -7.492  17.346  65.103  1.00  0.00     2.332 A  
HETATM    5  C   UNL     1      -7.599  15.967  65.312  1.00  0.00     4.787 A  
HETATM    6  C   UNL     1      -8.448  15.446  66.292  1.00  0.00    -0.047 A  
HETATM    7  C   UNL     1      -9.213  16.349  67.047  1.00  0.00    -0.236 A  
HETATM    8  C   UNL     1      -9.943  18.598  67.735  1.00  0.00    -0.346 C  
HETATM    9  O   UNL     1      -9.416  19.803  68.032  1.00  0.00    -0.344 OA 
HETATM   10  C   UNL     1      -9.089  17.740  66.865  1.00  0.00    -0.266 A  
HETATM   11  O   UNL     1     -11.003  18.207  68.198  1.00  0.00    -0.213 OA 
BRANCH   6  12
HETATM   12  C   UNL     1      -8.533  13.960  66.578  1.00  0.00     0.323 C  
BRANCH  12  13
HETATM   13  N   UNL     1      -7.677  13.465  67.672  1.00  0.00    -0.162 N  
HETATM   14  O   UNL     1      -7.276  11.940  69.366  1.00  0.00    -0.024 OA 
HETATM   15  C   UNL     1      -7.919  12.248  68.354  1.00  0.00    -0.152 C  
BRANCH  13  16
HETATM   16  C   UNL     1      -6.729  14.430  68.287  1.00  0.00    -0.114 C  
HETATM   17  C   UNL     1      -5.523  14.782  67.397  1.00  0.00     0.336 C  
BRANCH  16  18
HETATM   18  C   UNL     1      -7.423  15.725  68.657  1.00  0.00    -0.151 A  
HETATM   19  C   UNL     1      -9.150  17.086  68.975  1.00  0.00    -0.146 A  
HETATM   20  C   UNL     1      -8.109  17.418  69.815  1.00  0.00     1.191 A  
HETATM   21  N   UNL     1      -7.033  16.595  69.569  1.00  0.00    -0.187 NA 
HETATM   22  H   UNL     1      -6.114  16.648  70.007  1.00  0.00     0.000 HD 
HETATM   23  N   UNL     1      -8.692  16.032  68.224  1.00  0.00    -0.173 NA 
BRANCH  20  24
HETATM   24  C   UNL     1      -8.114  18.399  70.893  1.00  0.00     5.271 A  
HETATM   25  C   UNL     1      -7.129  19.196  72.979  1.00  0.00     4.576 A  
HETATM   26  C   UNL     1      -8.126  20.159  73.098  1.00  0.00     4.290 A  
HETATM   27  C   UNL     1      -9.109  20.259  72.112  1.00  0.00     2.578 A  
HETATM   28  C   UNL     1      -7.123  18.326  71.886  1.00  0.00     5.881 A  
HETATM   29  C   UNL     1      -9.101  19.388  71.013  1.00  0.00     3.004 A  
ENDBRANCH  20  24
ENDBRANCH  16  18
ENDBRANCH  13  16
BRANCH  15  30
HETATM   30  C   UNL     1      -9.011  11.278  67.766  1.00  0.00    -0.141 C  
HETATM   31  H2  UNL     1     -10.599  12.332  68.637  1.00  0.00     0.000 HD 
HETATM   32  N   UNL     1     -10.261  11.373  68.568  1.00  0.00    -0.202 NA 
HETATM   33  H1  UNL     1     -10.967  10.744  68.187  1.00  0.00     0.000 HD 
BRANCH  30  34
HETATM   34  C   UNL     1      -9.430  11.537  66.302  1.00  0.00    -0.235 C  
BRANCH  34  35
HETATM   35  C   UNL     1     -10.291  12.744  65.980  1.00  0.00    -0.291 A  
HETATM   36  C   UNL     1      -8.862  13.206  63.883  1.00  0.00     4.254 C  
HETATM   37  C   UNL     1     -12.100  14.306  66.496  1.00  0.00    -0.454 A  
HETATM   38  C   UNL     1     -11.610  12.608  68.213  1.00  0.00    -0.377 C  
HETATM   39  C   UNL     1     -10.011  13.508  64.816  1.00  0.00    -0.156 A  
HETATM   40  C   UNL     1     -11.306  13.200  66.859  1.00  0.00    -0.355 A  
HETATM   41  C   UNL     1     -11.878  15.000  65.311  1.00  0.00    -0.148 A  
HETATM   42  C   UNL     1     -10.820  14.607  64.488  1.00  0.00    -0.209 A  
BRANCH  41  43
HETATM   43  C   UNL     1     -12.684  16.177  64.883  1.00  0.00     2.006 C  
HETATM   44  H2  UNL     1     -11.662  17.510  66.110  1.00  0.00     0.000 HD 
HETATM   45  H1  UNL     1     -12.961  18.209  65.130  1.00  0.00     0.000 HD 
HETATM   46  N   UNL     1     -12.410  17.403  65.423  1.00  0.00     4.783 N  
HETATM   47  O   UNL     1     -13.588  16.072  64.060  1.00  0.00     0.708 OA 
ENDBRANCH  41  43
ENDBRANCH  34  35
ENDBRANCH  30  34
ENDBRANCH  15  30
ENDBRANCH  12  13
ENDBRANCH   6  12
ENDBRANCH   2   3
TORSDOF 10
ENDMDL
MODEL      302
REMARK 921   NORMALIZED FREE ENERGY PREDICTED BY IDOCK:   75.17 KCAL/MOL
REMARK 922        TOTAL FREE ENERGY PREDICTED BY IDOCK:  116.24 KCAL/MOL
REMARK 923 INTER-LIGAND FREE ENERGY PREDICTED BY IDOCK:   27.00 KCAL/MOL
REMARK 924 INTRA-LIGAND FREE ENERGY PREDICTED BY IDOCK:   89.24 KCAL/MOL
REMARK 927      BINDING AFFINITY PREDICTED BY RF-SCORE:    0.00 PKD
ROOT
HETATM    1  C   UNL     1      -5.906  21.344  65.855  1.00  0.00    -0.160 C  
HETATM    2  O   UNL     1      -7.101  20.940  66.526  1.00  0.00    -0.222 OA 
ENDROOT
BRANCH   2   3
HETATM    3  C   UNL     1      -7.408  19.603  66.500  1.00  0.00    -0.249 A  
HETATM    4  C   UNL     1      -7.632  18.880  65.325  1.00  0.00     0.682 A  
HETATM    5  C   UNL     1      -7.842  17.498  65.364  1.00  0.00     1.244 A  
HETATM    6  C   UNL     1      -7.872  16.802  66.576  1.00  0.00    -0.338 A  
HETATM    7  C   UNL     1      -7.707  17.537  67.760  1.00  0.00    -0.209 A  
HETATM    8  C   UNL     1      -7.294  19.593  69.051  1.00  0.00    -0.328 C  
HETATM    9  O   UNL     1      -6.479  20.667  69.039  1.00  0.00    -0.244 OA 
HETATM   10  C   UNL     1      -7.465  18.924  67.730  1.00  0.00    -0.260 A  
HETATM   11  O   UNL     1      -7.799  19.157  70.073  1.00  0.00     0.539 OA 
BRANCH   6  12
HETATM   12  C   UNL     1      -8.034  15.296  66.638  1.00  0.00     0.042 C  
BRANCH  12  13
HETATM   13  N   UNL     1      -7.791  14.675  67.952  1.00  0.00    -0.124 N  
HETATM   14  O   UNL     1      -7.340  14.885  70.213  1.00  0.00     0.031 OA 
HETATM   15  C   UNL     1      -7.698  15.418  69.154  1.00  0.00    -0.207 C  
BRANCH  13  16
HETATM   16  C   UNL     1      -7.306  13.270  67.965  1.00  0.00    -0.127 C  
HETATM   17  C   UNL     1      -6.088  13.033  68.877  1.00  0.00    -0.083 C  
BRANCH  16  18
HETATM   18  C   UNL     1      -8.399  12.314  68.396  1.00  0.00    -0.144 A  
HETATM   19  C   UNL     1      -9.756  10.564  68.217  1.00  0.00    -0.154 A  
HETATM   20  C   UNL     1      -9.488  10.836  69.541  1.00  0.00     0.083 A  
HETATM   21  N   UNL     1      -8.686  11.951  69.633  1.00  0.00     0.718 NA 
HETATM   22  H   UNL     1      -8.375  12.408  70.490  1.00  0.00     0.000 HD 
HETATM   23  N   UNL     1      -9.086  11.527  67.503  1.00  0.00    -0.163 NA 
BRANCH  20  24
HETATM   24  C   UNL     1      -9.867  10.047  70.706  1.00  0.00     0.261 A  
HETATM   25  C   UNL     1      -9.170   8.799  72.684  1.00  0.00     0.041 A  
HETATM   26  C   UNL     1     -10.483   8.393  72.907  1.00  0.00    -0.101 A  
HETATM   27  C   UNL     1     -11.493   8.823  72.045  1.00  0.00    -0.441 A  
HETATM   28  C   UNL     1      -8.868   9.620  71.595  1.00  0.00     1.261 A  
HETATM   29  C   UNL     1     -11.189   9.649  70.953  1.00  0.00    -0.422 A  
ENDBRANCH  20  24
ENDBRANCH  16  18
ENDBRANCH  13  16
BRANCH  15  30
HETATM   30  C   UNL     1      -8.100  16.940  69.113  1.00  0.00    -0.082 C  
HETATM   31  H2  UNL     1      -6.212  17.586  69.753  1.00  0.00     0.000 HD 
HETATM   32  N   UNL     1      -7.193  17.729  69.991  1.00  0.00     0.823 NA 
HETATM   33  H1  UNL     1      -7.454  18.715  69.963  1.00  0.00     0.000 HD 
BRANCH  30  34
HETATM   34  C   UNL     1      -8.040  17.619  67.726  1.00  0.00    -0.224 C  
BRANCH  34  35
HETATM   35  C   UNL     1      -9.214  17.470  66.777  1.00  0.00    -0.277 A  
HETATM   36  C   UNL     1     -10.373  19.485  67.895  1.00  0.00    -0.567 C  
HETATM   37  C   UNL     1     -10.409  16.316  64.983  1.00  0.00    -0.025 A  
HETATM   38  C   UNL     1      -8.336  15.244  65.771  1.00  0.00     1.467 C  
HETATM   39  C   UNL     1     -10.300  18.382  66.867  1.00  0.00    -0.417 A  
HETATM   40  C   UNL     1      -9.314  16.388  65.867  1.00  0.00    -0.262 A  
HETATM   41  C   UNL     1     -11.430  17.262  65.016  1.00  0.00     1.028 A  
HETATM   42  C   UNL     1     -11.377  18.277  65.973  1.00  0.00     1.208 A  
BRANCH  41  43
HETATM   43  C   UNL     1     -12.611  17.229  64.109  1.00  0.00     6.583 C  
HETATM   44  H2  UNL     1     -13.983  17.021  65.658  1.00  0.00     0.000 HD 
HETATM   45  H1  UNL     1     -14.669  17.074  64.026  1.00  0.00     0.000 HD 
HETATM   46  N   UNL     1     -13.861  17.096  64.648  1.00  0.00     9.132 N  
HETATM   47  O   UNL     1     -12.488  17.316  62.891  1.00  0.00     7.688 OA 
ENDBRANCH  41  43
ENDBRANCH  34  35
ENDBRANCH  30  34
ENDBRANCH  15  30
ENDBRANCH  12  13
ENDBRANCH   6  12
ENDBRANCH   2   3
TORSDOF 10
ENDMDL
MODEL      303
REMARK 921   NORMALIZED FREE ENERGY PREDICTED BY IDOCK:   78.17 KCAL/MOL
REMARK 922        TOTAL FREE ENERGY PREDICTED BY IDOCK:  120.99 KCAL/MOL
REMARK 923 INTER-LIGAND FREE ENERGY PREDICTED BY IDOCK:   18.58 KCAL/MOL
REMARK 924 INTRA-LIGAND FREE ENERGY PREDICTED BY IDOCK:  102.42 KCAL/MOL
REMARK 927      BINDING AFFINITY PREDICTED BY RF-SCORE:    0.00 PKD
ROOT
HETATM    1  C   UNL     1      -8.142   2.643  72.512  1.00  0.00    -0.055 C  
HETATM    2  O   UNL     1      -7.971   3.836  73.279  1.00  0.00    -0.080 OA 
ENDROOT
BRANCH   2   3
HETATM    3  C   UNL     1      -8.489   4.994  72.754  1.00  0.00    -0.116 A  
HETATM    4  C   UNL     1      -7.929   6.258  72.956  1.00  0.00    -0.107 A  
HETATM    5  C   UNL     1      -8.450   7.384  72.311  1.00  0.00    -0.129 A  
HETATM    6  C   UNL     1      -9.566   7.289  71.475  1.00  0.00    -0.164 A  
HETATM    7  C   UNL     1     -10.167   6.030  71.320  1.00  0.00    -0.253 A  
HETATM    8  C   UNL     1     -10.348   3.603  71.692  1.00  0.00     0.169 C  
HETATM    9  O   UNL     1      -9.566   2.505  71.711  1.00  0.00    -0.120 OA 
HETATM   10  C   UNL     1      -9.631   4.885  71.941  1.00  0.00    -0.205 A  
HETATM   11  O   UNL     1     -11.539   3.563  71.422  1.00  0.00     3.170 OA 
BRANCH   6  12
HETATM   12  C   UNL     1     -10.109   8.484  70.716  1.00  0.00    -0.198 C  
BRANCH  12  13
HETATM   13  N   UNL     1     -11.574   8.644  70.728  1.00  0.00    -0.270 N  
HETATM   14  O   UNL     1     -13.664   8.006  69.965  1.00  0.00     2.123 OA 
HETATM   15  C   UNL     1     -12.456   7.756  70.065  1.00  0.00     1.097 C  
BRANCH  13  16
HETATM   16  C   UNL     1     -12.114   9.954  71.176  1.00  0.00    -0.374 C  
HETATM   17  C   UNL     1     -11.170  10.741  72.103  1.00  0.00     3.843 C  
BRANCH  16  18
HETATM   18  C   UNL     1     -12.450  10.843  69.996  1.00  0.00    -0.263 A  
HETATM   19  C   UNL     1     -13.729  12.156  68.740  1.00  0.00     7.252 A  
HETATM   20  C   UNL     1     -12.401  12.499  68.605  1.00  0.00     0.322 A  
HETATM   21  N   UNL     1     -11.622  11.645  69.353  1.00  0.00    -0.299 NA 
HETATM   22  H   UNL     1     -10.604  11.635  69.400  1.00  0.00     0.000 HD 
HETATM   23  N   UNL     1     -13.744  11.084  69.599  1.00  0.00     1.793 NA 
BRANCH  20  24
HETATM   24  C   UNL     1     -11.846  13.642  67.892  1.00  0.00    -0.402 A  
HETATM   25  C   UNL     1     -12.133  15.932  67.096  1.00  0.00     1.064 A  
HETATM   26  C   UNL     1     -10.923  15.860  66.412  1.00  0.00    -0.115 A  
HETATM   27  C   UNL     1     -10.163  14.691  66.477  1.00  0.00    -0.282 A  
HETATM   28  C   UNL     1     -12.587  14.833  67.830  1.00  0.00     0.725 A  
HETATM   29  C   UNL     1     -10.618  13.590  67.216  1.00  0.00    -0.263 A  
ENDBRANCH  20  24
ENDBRANCH  16  18
ENDBRANCH  13  16
BRANCH  15  30
HETATM   30  C   UNL     1     -11.857   6.420  69.486  1.00  0.00     0.182 C  
HETATM   31  H2  UNL     1     -11.123   7.349  67.757  1.00  0.00     0.000 HD 
HETATM   32  N   UNL     1     -11.684   6.537  68.012  1.00  0.00    -0.305 NA 
HETATM   33  H1  UNL     1     -11.296   5.671  67.638  1.00  0.00     0.000 HD 
BRANCH  30  34
HETATM   34  C   UNL     1     -10.478   5.999  70.040  1.00  0.00    -0.313 C  
BRANCH  34  35
HETATM   35  C   UNL     1      -9.464   7.070  70.397  1.00  0.00    -0.162 A  
HETATM   36  C   UNL     1     -10.442   7.200  72.780  1.00  0.00    -0.278 C  
HETATM   37  C   UNL     1      -7.641   8.595  69.826  1.00  0.00    -0.079 A  
HETATM   38  C   UNL     1      -8.589   7.291  67.963  1.00  0.00    -0.125 C  
HETATM   39  C   UNL     1      -9.458   7.610  71.711  1.00  0.00    -0.178 A  
HETATM   40  C   UNL     1      -8.587   7.627  69.433  1.00  0.00    -0.136 A  
HETATM   41  C   UNL     1      -7.580   9.059  71.136  1.00  0.00    -0.130 A  
HETATM   42  C   UNL     1      -8.504   8.576  72.065  1.00  0.00    -0.231 A  
BRANCH  41  43
HETATM   43  C   UNL     1      -6.605  10.084  71.601  1.00  0.00     0.735 C  
HETATM   44  H2  UNL     1      -5.605  10.175  69.779  1.00  0.00     0.000 HD 
HETATM   45  H1  UNL     1      -4.981  11.237  71.052  1.00  0.00     0.000 HD 
HETATM   46  N   UNL     1      -5.649  10.535  70.733  1.00  0.00    -0.091 N  
HETATM   47  O   UNL     1      -6.638  10.531  72.743  1.00  0.00     1.820 OA 
ENDBRANCH  41  43
ENDBRANCH  34  35
ENDBRANCH  30  34
ENDBRANCH  15  30
ENDBRANCH  12  13
ENDBRANCH   6  12
ENDBRANCH   2   3
TORSDOF 10
ENDMDL
