MODEL        1
REMARK 921   NORMALIZED FREE ENERGY PREDICTED BY IDOCK:   -7.69 KCAL/MOL
REMARK 922        TOTAL FREE ENERGY PREDICTED BY IDOCK:  -11.08 KCAL/MOL
REMARK 923 INTER-LIGAND FREE ENERGY PREDICTED BY IDOCK:   -9.94 KCAL/MOL
REMARK 924 INTRA-LIGAND FREE ENERGY PREDICTED BY IDOCK:   -1.14 KCAL/MOL
REMARK 927      BINDING AFFINITY PREDICTED BY RF-SCORE:    0.00 PKD
ROOT
HETATM    1  C   UNL     1     -10.796  14.603  66.164  1.00  0.00    -0.321 C  
HETATM    2  C   UNL     1      -8.601  14.464  67.510  1.00  0.00    -0.199 C  
HETATM    3  C   UNL     1      -9.118  16.526  66.230  1.00  0.00    -0.348 C  
HETATM    4  C   UNL     1      -9.294  15.000  66.249  1.00  0.00    -0.341 C  
ENDROOT
BRANCH   1   5
HETATM    5  C   UNL     1     -11.450  15.042  64.828  1.00  0.00    -0.403 C  
HETATM    6  H   UNL     1     -13.146  14.731  63.863  1.00  0.00     0.000 HD 
HETATM    7  O   UNL     1     -12.745  14.462  64.681  1.00  0.00    -0.655 OA 
ENDBRANCH   1   5
BRANCH   1   8
HETATM    8  N   UNL     1     -10.997  13.122  66.397  1.00  0.00    -0.286 NA 
HETATM    9  C   UNL     1     -10.220  10.871  65.829  1.00  0.00    -0.318 C  
HETATM   10  C   UNL     1     -10.402  12.174  65.564  1.00  0.00    -0.263 C  
HETATM   11  C   UNL     1      -9.581  10.006  64.813  1.00  0.00    -0.308 C  
HETATM   12  C   UNL     1     -10.647  10.386  67.148  1.00  0.00    -0.261 C  
HETATM   13  C   UNL     1     -11.210  11.367  68.101  1.00  0.00    -0.343 A  
HETATM   14  O   UNL     1     -10.545   9.192  67.427  1.00  0.00    -0.272 OA 
HETATM   15  O   UNL     1      -9.146  10.429  63.751  1.00  0.00    -0.203 OA 
HETATM   16  O   UNL     1      -9.516   8.700  65.147  1.00  0.00     0.082 OA 
HETATM   17  C   UNL     1     -11.432  12.691  67.685  1.00  0.00    -0.334 A  
HETATM   18  C   UNL     1     -12.102  13.518  68.599  1.00  0.00    -0.303 A  
HETATM   19  C   UNL     1     -12.440  13.104  69.901  1.00  0.00    -0.027 A  
HETATM   20  C   UNL     1     -11.528  10.934  69.399  1.00  0.00    -0.373 A  
HETATM   21  C   UNL     1     -12.139  11.798  70.321  1.00  0.00    -0.426 A  
BRANCH  19  22
HETATM   22  O   UNL     1     -13.102  13.907  70.799  1.00  0.00    -0.254 OA 
HETATM   23  C   UNL     1     -12.771  15.295  70.793  1.00  0.00    -0.433 C  
ENDBRANCH  19  22
BRANCH  21  24
HETATM   24  C   UNL     1     -12.543  11.256  71.676  1.00  0.00    -0.357 C  
BRANCH  24  25
HETATM   25  C   UNL     1     -12.818   9.774  71.795  1.00  0.00    -0.530 A  
HETATM   26  C   UNL     1     -11.773   8.853  71.951  1.00  0.00    -0.369 A  
HETATM   27  C   UNL     1     -12.007   7.475  71.875  1.00  0.00    -0.301 A  
HETATM   28  F   UNL     1     -10.522   9.306  72.125  1.00  0.00    -0.393 F  
HETATM   29  C   UNL     1     -13.295   6.996  71.642  1.00  0.00    -0.356 A  
HETATM   30 CL   UNL     1     -10.708   6.352  72.022  1.00  0.00    -0.250 Cl 
HETATM   31  C   UNL     1     -14.352   7.897  71.525  1.00  0.00    -0.563 A  
HETATM   32  C   UNL     1     -14.118   9.276  71.612  1.00  0.00    -0.230 A  
ENDBRANCH  24  25
ENDBRANCH  21  24
ENDBRANCH   1   8
TORSDOF 5
ENDMDL
MODEL        2
REMARK 921   NORMALIZED FREE ENERGY PREDICTED BY IDOCK:   -7.29 KCAL/MOL
REMARK 922        TOTAL FREE ENERGY PREDICTED BY IDOCK:  -10.56 KCAL/MOL
REMARK 923 INTER-LIGAND FREE ENERGY PREDICTED BY IDOCK:  -10.20 KCAL/MOL
REMARK 924 INTRA-LIGAND FREE ENERGY PREDICTED BY IDOCK:   -0.37 KCAL/MOL
REMARK 927      BINDING AFFINITY PREDICTED BY RF-SCORE:    0.00 PKD
ROOT
HETATM    1  C   UNL     1     -11.607  14.467  67.128  1.00  0.00    -0.386 C  
HETATM    2  C   UNL     1      -9.602  15.877  67.928  1.00  0.00    -0.215 C  
HETATM    3  C   UNL     1     -10.174  15.830  65.514  1.00  0.00    -0.407 C  
HETATM    4  C   UNL     1     -10.182  15.002  66.807  1.00  0.00    -0.260 C  
ENDROOT
BRANCH   1   5
HETATM    5  C   UNL     1     -12.128  13.485  66.046  1.00  0.00    -0.445 C  
HETATM    6  H   UNL     1     -13.558  13.441  64.683  1.00  0.00     0.000 HD 
HETATM    7  O   UNL     1     -13.240  14.042  65.346  1.00  0.00    -0.761 OA 
ENDBRANCH   1   5
BRANCH   1   8
HETATM    8  N   UNL     1     -11.673  13.836  68.500  1.00  0.00    -0.335 NA 
HETATM    9  C   UNL     1     -12.883  13.764  70.628  1.00  0.00    -0.262 C  
HETATM   10  C   UNL     1     -12.476  14.377  69.505  1.00  0.00    -0.125 C  
HETATM   11  C   UNL     1     -13.724  14.504  71.595  1.00  0.00    -0.407 C  
HETATM   12  C   UNL     1     -12.486  12.362  70.812  1.00  0.00    -0.267 C  
HETATM   13  C   UNL     1     -11.702  11.715  69.738  1.00  0.00    -0.425 A  
HETATM   14  O   UNL     1     -12.794  11.766  71.843  1.00  0.00    -0.344 OA 
HETATM   15  O   UNL     1     -14.128  15.642  71.398  1.00  0.00    -0.541 OA 
HETATM   16  O   UNL     1     -14.013  13.824  72.724  1.00  0.00    -0.714 OA 
HETATM   17  C   UNL     1     -11.260  12.479  68.644  1.00  0.00    -0.278 A  
HETATM   18  C   UNL     1     -10.400  11.826  67.746  1.00  0.00    -0.211 A  
HETATM   19  C   UNL     1     -10.077  10.460  67.851  1.00  0.00    -0.171 A  
HETATM   20  C   UNL     1     -11.402  10.348  69.858  1.00  0.00    -0.370 A  
HETATM   21  C   UNL     1     -10.593   9.698  68.912  1.00  0.00    -0.239 A  
BRANCH  19  22
HETATM   22  O   UNL     1      -9.232   9.817  66.980  1.00  0.00    -0.140 OA 
HETATM   23  C   UNL     1      -9.675   9.680  65.629  1.00  0.00    -0.293 C  
ENDBRANCH  19  22
BRANCH  21  24
HETATM   24  C   UNL     1     -10.227   8.246  69.135  1.00  0.00    -0.223 C  
BRANCH  24  25
HETATM   25  C   UNL     1     -10.072   7.764  70.561  1.00  0.00    -0.192 A  
HETATM   26  C   UNL     1     -10.821   6.683  71.047  1.00  0.00    -0.245 A  
HETATM   27  C   UNL     1     -10.817   6.355  72.407  1.00  0.00    -0.236 A  
HETATM   28  F   UNL     1     -11.592   5.987  70.196  1.00  0.00    -0.438 F  
HETATM   29  C   UNL     1     -10.060   7.104  73.305  1.00  0.00    -0.318 A  
HETATM   30 CL   UNL     1     -11.777   5.053  73.001  1.00  0.00    -0.321 Cl 
HETATM   31  C   UNL     1      -9.277   8.158  72.833  1.00  0.00    -0.343 A  
HETATM   32  C   UNL     1      -9.274   8.478  71.469  1.00  0.00    -0.288 A  
ENDBRANCH  24  25
ENDBRANCH  21  24
ENDBRANCH   1   8
TORSDOF 5
ENDMDL
MODEL        3
REMARK 921   NORMALIZED FREE ENERGY PREDICTED BY IDOCK:   -7.28 KCAL/MOL
REMARK 922        TOTAL FREE ENERGY PREDICTED BY IDOCK:  -10.55 KCAL/MOL
REMARK 923 INTER-LIGAND FREE ENERGY PREDICTED BY IDOCK:   -9.35 KCAL/MOL
REMARK 924 INTRA-LIGAND FREE ENERGY PREDICTED BY IDOCK:   -1.20 KCAL/MOL
REMARK 927      BINDING AFFINITY PREDICTED BY RF-SCORE:    0.00 PKD
ROOT
HETATM    1  C   UNL     1     -10.618  11.116  68.522  1.00  0.00    -0.191 C  
HETATM    2  C   UNL     1     -11.951  12.961  69.734  1.00  0.00    -0.365 C  
HETATM    3  C   UNL     1     -11.999  10.643  70.616  1.00  0.00    -0.466 C  
HETATM    4  C   UNL     1     -11.895  11.480  69.333  1.00  0.00    -0.417 C  
ENDROOT
BRANCH   1   5
HETATM    5  C   UNL     1     -10.636   9.650  68.017  1.00  0.00    -0.243 C  
HETATM    6  H   UNL     1      -9.418   8.422  67.059  1.00  0.00     0.000 HD 
HETATM    7  O   UNL     1      -9.408   9.320  67.368  1.00  0.00    -0.126 OA 
ENDBRANCH   1   5
BRANCH   1   8
HETATM    8  N   UNL     1     -10.391  12.075  67.375  1.00  0.00    -0.206 NA 
HETATM    9  C   UNL     1     -11.440  13.270  65.512  1.00  0.00    -0.335 C  
HETATM   10  C   UNL     1     -11.354  12.249  66.380  1.00  0.00    -0.354 C  
HETATM   11  C   UNL     1     -12.526  13.280  64.508  1.00  0.00    -0.319 C  
HETATM   12  C   UNL     1     -10.449  14.347  65.639  1.00  0.00    -0.334 C  
HETATM   13  C   UNL     1      -9.455  14.252  66.730  1.00  0.00    -0.287 A  
HETATM   14  O   UNL     1     -10.453  15.283  64.842  1.00  0.00    -0.392 OA 
HETATM   15  O   UNL     1     -13.403  12.428  64.461  1.00  0.00    -0.800 OA 
HETATM   16  O   UNL     1     -12.476  14.308  63.636  1.00  0.00    -0.816 OA 
HETATM   17  C   UNL     1      -9.407  13.095  67.527  1.00  0.00    -0.207 A  
HETATM   18  C   UNL     1      -8.344  13.022  68.441  1.00  0.00    -0.118 A  
HETATM   19  C   UNL     1      -7.435  14.078  68.644  1.00  0.00    -0.125 A  
HETATM   20  C   UNL     1      -8.567  15.322  66.923  1.00  0.00    -0.289 A  
HETATM   21  C   UNL     1      -7.550  15.256  67.888  1.00  0.00    -0.152 A  
BRANCH  19  22
HETATM   22  O   UNL     1      -6.389  14.011  69.532  1.00  0.00    -0.109 OA 
HETATM   23  C   UNL     1      -5.961  12.709  69.933  1.00  0.00    -0.141 C  
ENDBRANCH  19  22
BRANCH  21  24
HETATM   24  C   UNL     1      -6.564  16.400  67.994  1.00  0.00    -0.146 C  
BRANCH  24  25
HETATM   25  C   UNL     1      -6.911  17.702  67.308  1.00  0.00    -0.189 A  
HETATM   26  C   UNL     1      -7.996  18.480  67.736  1.00  0.00    -0.250 A  
HETATM   27  C   UNL     1      -8.432  19.584  66.993  1.00  0.00    -0.296 A  
HETATM   28  F   UNL     1      -8.656  18.126  68.850  1.00  0.00    -0.292 F  
HETATM   29  C   UNL     1      -7.785  19.927  65.807  1.00  0.00    -0.275 A  
HETATM   30 CL   UNL     1      -9.795  20.505  67.503  1.00  0.00    -0.573 Cl 
HETATM   31  C   UNL     1      -6.679  19.189  65.389  1.00  0.00    -0.279 A  
HETATM   32  C   UNL     1      -6.238  18.091  66.140  1.00  0.00    -0.262 A  
ENDBRANCH  24  25
ENDBRANCH  21  24
ENDBRANCH   1   8
TORSDOF 5
ENDMDL
MODEL        4
REMARK 921   NORMALIZED FREE ENERGY PREDICTED BY IDOCK:   -7.26 KCAL/MOL
REMARK 922        TOTAL FREE ENERGY PREDICTED BY IDOCK:  -10.53 KCAL/MOL
REMARK 923 INTER-LIGAND FREE ENERGY PREDICTED BY IDOCK:   -9.26 KCAL/MOL
REMARK 924 INTRA-LIGAND FREE ENERGY PREDICTED BY IDOCK:   -1.27 KCAL/MOL
REMARK 927      BINDING AFFINITY PREDICTED BY RF-SCORE:    0.00 PKD
ROOT
HETATM    1  C   UNL     1     -11.019  14.118  66.142  1.00  0.00    -0.309 C  
HETATM    2  C   UNL     1      -8.621  14.181  67.089  1.00  0.00    -0.230 C  
HETATM    3  C   UNL     1      -9.698  16.292  66.353  1.00  0.00    -0.310 C  
HETATM    4  C   UNL     1      -9.614  14.782  66.083  1.00  0.00    -0.338 C  
ENDROOT
BRANCH   1   5
HETATM    5  C   UNL     1     -11.971  14.647  65.039  1.00  0.00    -0.364 C  
HETATM    6  H   UNL     1     -13.822  14.316  64.428  1.00  0.00     0.000 HD 
HETATM    7  O   UNL     1     -13.238  13.992  65.103  1.00  0.00    -0.768 OA 
ENDBRANCH   1   5
BRANCH   1   8
HETATM    8  N   UNL     1     -10.927  12.609  66.092  1.00  0.00    -0.275 NA 
HETATM    9  C   UNL     1      -9.860  10.692  65.005  1.00  0.00    -0.353 C  
HETATM   10  C   UNL     1     -10.299  11.960  65.028  1.00  0.00    -0.289 C  
HETATM   11  C   UNL     1      -9.229  10.165  63.775  1.00  0.00    -0.281 C  
HETATM   12  C   UNL     1     -10.008   9.905  66.236  1.00  0.00    -0.256 C  
HETATM   13  C   UNL     1     -10.594  10.570  67.420  1.00  0.00    -0.313 A  
HETATM   14  O   UNL     1      -9.663   8.724  66.257  1.00  0.00    -0.247 OA 
HETATM   15  O   UNL     1      -9.025  10.848  62.780  1.00  0.00    -0.250 OA 
HETATM   16  O   UNL     1      -8.893   8.859  63.831  1.00  0.00    -0.102 OA 
HETATM   17  C   UNL     1     -11.097  11.878  67.304  1.00  0.00    -0.288 A  
HETATM   18  C   UNL     1     -11.766  12.380  68.431  1.00  0.00    -0.386 A  
HETATM   19  C   UNL     1     -11.843  11.682  69.651  1.00  0.00    -0.352 A  
HETATM   20  C   UNL     1     -10.649   9.859  68.630  1.00  0.00    -0.244 A  
HETATM   21  C   UNL     1     -11.265  10.407  69.766  1.00  0.00    -0.353 A  
BRANCH  19  22
HETATM   22  O   UNL     1     -12.501  12.166  70.755  1.00  0.00    -0.347 OA 
HETATM   23  C   UNL     1     -12.504  13.581  70.941  1.00  0.00    -0.369 C  
ENDBRANCH  19  22
BRANCH  21  24
HETATM   24  C   UNL     1     -11.377   9.563  71.018  1.00  0.00    -0.423 C  
BRANCH  24  25
HETATM   25  C   UNL     1     -10.359   8.464  71.227  1.00  0.00    -0.272 A  
HETATM   26  C   UNL     1     -10.684   7.121  70.992  1.00  0.00    -0.232 A  
HETATM   27  C   UNL     1      -9.810   6.091  71.359  1.00  0.00    -0.173 A  
HETATM   28  F   UNL     1     -11.877   6.821  70.454  1.00  0.00    -0.378 F  
HETATM   29  C   UNL     1      -8.592   6.391  71.966  1.00  0.00    -0.126 A  
HETATM   30 CL   UNL     1     -10.240   4.442  71.109  1.00  0.00    -0.186 Cl 
HETATM   31  C   UNL     1      -8.235   7.724  72.169  1.00  0.00    -0.140 A  
HETATM   32  C   UNL     1      -9.107   8.753  71.791  1.00  0.00    -0.305 A  
ENDBRANCH  24  25
ENDBRANCH  21  24
ENDBRANCH   1   8
TORSDOF 5
ENDMDL
MODEL        5
REMARK 921   NORMALIZED FREE ENERGY PREDICTED BY IDOCK:   -7.22 KCAL/MOL
REMARK 922        TOTAL FREE ENERGY PREDICTED BY IDOCK:  -10.47 KCAL/MOL
REMARK 923 INTER-LIGAND FREE ENERGY PREDICTED BY IDOCK:   -9.24 KCAL/MOL
REMARK 924 INTRA-LIGAND FREE ENERGY PREDICTED BY IDOCK:   -1.23 KCAL/MOL
REMARK 927      BINDING AFFINITY PREDICTED BY RF-SCORE:    0.00 PKD
ROOT
HETATM    1  C   UNL     1     -10.979  14.168  66.097  1.00  0.00    -0.309 C  
HETATM    2  C   UNL     1      -8.615  14.211  67.124  1.00  0.00    -0.230 C  
HETATM    3  C   UNL     1      -9.596  16.310  66.237  1.00  0.00    -0.336 C  
HETATM    4  C   UNL     1      -9.552  14.785  66.052  1.00  0.00    -0.334 C  
ENDROOT
BRANCH   1   5
HETATM    5  C   UNL     1     -11.875  14.664  64.933  1.00  0.00    -0.403 C  
HETATM    6  H   UNL     1     -13.705  14.339  64.260  1.00  0.00     0.000 HD 
HETATM    7  O   UNL     1     -13.156  14.035  64.973  1.00  0.00    -0.742 OA 
ENDBRANCH   1   5
BRANCH   1   8
HETATM    8  N   UNL     1     -10.935  12.657  66.133  1.00  0.00    -0.275 NA 
HETATM    9  C   UNL     1      -9.927  10.649  65.159  1.00  0.00    -0.366 C  
HETATM   10  C   UNL     1     -10.326  11.929  65.109  1.00  0.00    -0.277 C  
HETATM   11  C   UNL     1      -9.311  10.033  63.963  1.00  0.00    -0.270 C  
HETATM   12  C   UNL     1     -10.102   9.938  66.433  1.00  0.00    -0.240 C  
HETATM   13  C   UNL     1     -10.668  10.687  67.576  1.00  0.00    -0.321 A  
HETATM   14  O   UNL     1      -9.794   8.750  66.521  1.00  0.00    -0.235 OA 
HETATM   15  O   UNL     1      -9.084  10.652  62.933  1.00  0.00    -0.221 OA 
HETATM   16  O   UNL     1      -9.016   8.723  64.094  1.00  0.00     0.013 OA 
HETATM   17  C   UNL     1     -11.129  12.002  67.384  1.00  0.00    -0.281 A  
HETATM   18  C   UNL     1     -11.784  12.588  68.478  1.00  0.00    -0.369 A  
HETATM   19  C   UNL     1     -11.885  11.963  69.736  1.00  0.00    -0.340 A  
HETATM   20  C   UNL     1     -10.747  10.048  68.823  1.00  0.00    -0.250 A  
HETATM   21  C   UNL     1     -11.348  10.679  69.924  1.00  0.00    -0.386 A  
BRANCH  19  22
HETATM   22  O   UNL     1     -12.529  12.529  70.808  1.00  0.00    -0.350 OA 
HETATM   23  C   UNL     1     -12.444  13.948  70.942  1.00  0.00    -0.375 C  
ENDBRANCH  19  22
BRANCH  21  24
HETATM   24  C   UNL     1     -11.488   9.912  71.222  1.00  0.00    -0.435 C  
BRANCH  24  25
HETATM   25  C   UNL     1     -10.999   8.481  71.257  1.00  0.00    -0.316 A  
HETATM   26  C   UNL     1      -9.643   8.183  71.452  1.00  0.00    -0.165 A  
HETATM   27  C   UNL     1      -9.161   6.878  71.301  1.00  0.00    -0.149 A  
HETATM   28  F   UNL     1      -8.788   9.178  71.738  1.00  0.00    -0.259 F  
HETATM   29  C   UNL     1     -10.031   5.847  70.952  1.00  0.00    -0.238 A  
HETATM   30 CL   UNL     1      -7.485   6.530  71.497  1.00  0.00    -0.088 Cl 
HETATM   31  C   UNL     1     -11.390   6.119  70.795  1.00  0.00    -0.364 A  
HETATM   32  C   UNL     1     -11.872   7.424  70.958  1.00  0.00    -0.336 A  
ENDBRANCH  24  25
ENDBRANCH  21  24
ENDBRANCH   1   8
TORSDOF 5
ENDMDL
MODEL        6
REMARK 921   NORMALIZED FREE ENERGY PREDICTED BY IDOCK:   -7.09 KCAL/MOL
REMARK 922        TOTAL FREE ENERGY PREDICTED BY IDOCK:  -10.30 KCAL/MOL
REMARK 923 INTER-LIGAND FREE ENERGY PREDICTED BY IDOCK:   -9.24 KCAL/MOL
REMARK 924 INTRA-LIGAND FREE ENERGY PREDICTED BY IDOCK:   -1.06 KCAL/MOL
REMARK 927      BINDING AFFINITY PREDICTED BY RF-SCORE:    0.00 PKD
ROOT
HETATM    1  C   UNL     1     -10.590  14.593  67.623  1.00  0.00    -0.256 C  
HETATM    2  C   UNL     1     -12.286  13.172  66.298  1.00  0.00    -0.423 C  
HETATM    3  C   UNL     1     -11.173  15.091  65.187  1.00  0.00    -0.391 C  
HETATM    4  C   UNL     1     -11.701  14.572  66.533  1.00  0.00    -0.380 C  
ENDROOT
BRANCH   1   5
HETATM    5  C   UNL     1     -10.098  16.029  67.939  1.00  0.00    -0.241 C  
HETATM    6  H   UNL     1      -8.679  16.880  69.019  1.00  0.00     0.000 HD 
HETATM    7  O   UNL     1      -8.981  16.000  68.826  1.00  0.00    -0.201 OA 
ENDBRANCH   1   5
BRANCH   1   8
HETATM    8  N   UNL     1     -11.032  13.888  68.886  1.00  0.00    -0.258 NA 
HETATM    9  C   UNL     1     -12.745  13.771  70.632  1.00  0.00    -0.330 C  
HETATM   10  C   UNL     1     -12.037  14.421  69.695  1.00  0.00    -0.334 C  
HETATM   11  C   UNL     1     -13.767  14.507  71.410  1.00  0.00    -0.377 C  
HETATM   12  C   UNL     1     -12.475  12.338  70.807  1.00  0.00    -0.265 C  
HETATM   13  C   UNL     1     -11.477  11.705  69.919  1.00  0.00    -0.308 A  
HETATM   14  O   UNL     1     -13.063  11.704  71.682  1.00  0.00    -0.445 OA 
HETATM   15  O   UNL     1     -14.052  15.678  71.202  1.00  0.00    -0.539 OA 
HETATM   16  O   UNL     1     -14.365  13.782  72.378  1.00  0.00    -0.664 OA 
HETATM   17  C   UNL     1     -10.735  12.501  69.028  1.00  0.00    -0.097 A  
HETATM   18  C   UNL     1      -9.709  11.847  68.329  1.00  0.00    -0.200 A  
HETATM   19  C   UNL     1      -9.489  10.459  68.411  1.00  0.00    -0.149 A  
HETATM   20  C   UNL     1     -11.283  10.317  70.009  1.00  0.00    -0.376 A  
HETATM   21  C   UNL     1     -10.294   9.671  69.251  1.00  0.00    -0.223 A  
BRANCH  19  22
HETATM   22  O   UNL     1      -8.483   9.815  67.733  1.00  0.00    -0.120 OA 
HETATM   23  C   UNL     1      -7.635  10.618  66.913  1.00  0.00    -0.115 C  
ENDBRANCH  19  22
BRANCH  21  24
HETATM   24  C   UNL     1     -10.067   8.188  69.452  1.00  0.00    -0.194 C  
BRANCH  24  25
HETATM   25  C   UNL     1      -9.961   7.672  70.870  1.00  0.00    -0.183 A  
HETATM   26  C   UNL     1     -10.744   6.595  71.310  1.00  0.00    -0.231 A  
HETATM   27  C   UNL     1     -10.785   6.237  72.662  1.00  0.00    -0.232 A  
HETATM   28  F   UNL     1     -11.504   5.933  70.423  1.00  0.00    -0.390 F  
HETATM   29  C   UNL     1     -10.040   6.952  73.597  1.00  0.00    -0.349 A  
HETATM   30 CL   UNL     1     -11.785   4.941  73.199  1.00  0.00    -0.334 Cl 
HETATM   31  C   UNL     1      -9.224   8.000  73.171  1.00  0.00    -0.347 A  
HETATM   32  C   UNL     1      -9.176   8.350  71.815  1.00  0.00    -0.287 A  
ENDBRANCH  24  25
ENDBRANCH  21  24
ENDBRANCH   1   8
TORSDOF 5
ENDMDL
MODEL        7
REMARK 921   NORMALIZED FREE ENERGY PREDICTED BY IDOCK:   -6.96 KCAL/MOL
REMARK 922        TOTAL FREE ENERGY PREDICTED BY IDOCK:  -10.14 KCAL/MOL
REMARK 923 INTER-LIGAND FREE ENERGY PREDICTED BY IDOCK:   -8.84 KCAL/MOL
REMARK 924 INTRA-LIGAND FREE ENERGY PREDICTED BY IDOCK:   -1.30 KCAL/MOL
REMARK 927      BINDING AFFINITY PREDICTED BY RF-SCORE:    0.00 PKD
ROOT
HETATM    1  C   UNL     1      -9.267   7.945  68.184  1.00  0.00    -0.136 C  
HETATM    2  C   UNL     1      -7.725   9.337  69.711  1.00  0.00    -0.096 C  
HETATM    3  C   UNL     1      -6.769   7.465  68.393  1.00  0.00    -0.054 C  
HETATM    4  C   UNL     1      -8.029   7.950  69.125  1.00  0.00    -0.118 C  
ENDROOT
BRANCH   1   5
HETATM    5  C   UNL     1      -9.637   6.519  67.700  1.00  0.00    -0.122 C  
HETATM    6  H   UNL     1     -11.151   5.635  66.786  1.00  0.00     0.000 HD 
HETATM    7  O   UNL     1     -10.924   6.508  67.083  1.00  0.00    -0.356 OA 
ENDBRANCH   1   5
BRANCH   1   8
HETATM    8  N   UNL     1     -10.460   8.619  68.825  1.00  0.00    -0.209 NA 
HETATM    9  C   UNL     1     -11.685   8.982  70.913  1.00  0.00    -0.327 C  
HETATM   10  C   UNL     1     -10.882   8.270  70.109  1.00  0.00    -0.237 C  
HETATM   11  C   UNL     1     -12.042   8.444  72.245  1.00  0.00    -0.392 C  
HETATM   12  C   UNL     1     -12.143  10.289  70.423  1.00  0.00    -0.286 C  
HETATM   13  C   UNL     1     -11.659  10.744  69.101  1.00  0.00    -0.376 A  
HETATM   14  O   UNL     1     -12.917  10.964  71.101  1.00  0.00    -0.374 OA 
HETATM   15  O   UNL     1     -11.589   7.397  72.687  1.00  0.00    -0.299 OA 
HETATM   16  O   UNL     1     -12.915   9.201  72.942  1.00  0.00    -0.294 OA 
HETATM   17  C   UNL     1     -10.887   9.877  68.308  1.00  0.00    -0.230 A  
HETATM   18  C   UNL     1     -10.594  10.328  67.012  1.00  0.00    -0.302 A  
HETATM   19  C   UNL     1     -10.942  11.612  66.551  1.00  0.00    -0.299 A  
HETATM   20  C   UNL     1     -12.009  12.033  68.667  1.00  0.00    -0.290 A  
HETATM   21  C   UNL     1     -11.648  12.490  67.389  1.00  0.00    -0.434 A  
BRANCH  19  22
HETATM   22  O   UNL     1     -10.663  12.057  65.282  1.00  0.00    -0.269 OA 
HETATM   23  C   UNL     1     -10.536  11.068  64.260  1.00  0.00    -0.359 C  
ENDBRANCH  19  22
BRANCH  21  24
HETATM   24  C   UNL     1     -12.127  13.853  66.936  1.00  0.00    -0.467 C  
BRANCH  24  25
HETATM   25  C   UNL     1     -11.352  15.067  67.397  1.00  0.00    -0.338 A  
HETATM   26  C   UNL     1     -10.299  15.588  66.633  1.00  0.00    -0.286 A  
HETATM   27  C   UNL     1      -9.464  16.590  67.140  1.00  0.00    -0.239 A  
HETATM   28  F   UNL     1     -10.060  15.078  65.414  1.00  0.00    -0.316 F  
HETATM   29  C   UNL     1      -9.672  17.089  68.425  1.00  0.00    -0.279 A  
HETATM   30 CL   UNL     1      -8.144  17.191  66.211  1.00  0.00    -0.328 Cl 
HETATM   31  C   UNL     1     -10.740  16.611  69.183  1.00  0.00    -0.342 A  
HETATM   32  C   UNL     1     -11.581  15.615  68.669  1.00  0.00    -0.391 A  
ENDBRANCH  24  25
ENDBRANCH  21  24
ENDBRANCH   1   8
TORSDOF 5
ENDMDL
MODEL        8
REMARK 921   NORMALIZED FREE ENERGY PREDICTED BY IDOCK:   -6.96 KCAL/MOL
REMARK 922        TOTAL FREE ENERGY PREDICTED BY IDOCK:  -10.14 KCAL/MOL
REMARK 923 INTER-LIGAND FREE ENERGY PREDICTED BY IDOCK:   -8.88 KCAL/MOL
REMARK 924 INTRA-LIGAND FREE ENERGY PREDICTED BY IDOCK:   -1.26 KCAL/MOL
REMARK 927      BINDING AFFINITY PREDICTED BY RF-SCORE:    0.00 PKD
ROOT
HETATM    1  C   UNL     1      -9.176  10.189  66.545  1.00  0.00    -0.153 C  
HETATM    2  C   UNL     1     -11.280  10.350  68.027  1.00  0.00    -0.340 C  
HETATM    3  C   UNL     1     -10.000   8.226  67.955  1.00  0.00    -0.224 C  
HETATM    4  C   UNL     1     -10.416   9.453  67.129  1.00  0.00    -0.315 C  
ENDROOT
BRANCH   1   5
HETATM    5  C   UNL     1      -8.383   9.310  65.543  1.00  0.00    -0.133 C  
HETATM    6  H   UNL     1      -6.721   9.444  64.482  1.00  0.00     0.000 HD 
HETATM    7  O   UNL     1      -7.207   9.982  65.095  1.00  0.00    -0.127 OA 
ENDBRANCH   1   5
BRANCH   1   8
HETATM    8  N   UNL     1      -9.555  11.510  65.915  1.00  0.00    -0.225 NA 
HETATM    9  C   UNL     1     -11.213  12.688  64.551  1.00  0.00    -0.375 C  
HETATM   10  C   UNL     1     -10.557  11.586  64.946  1.00  0.00    -0.303 C  
HETATM   11  C   UNL     1     -12.241  12.580  63.492  1.00  0.00    -0.558 C  
HETATM   12  C   UNL     1     -10.883  13.948  65.230  1.00  0.00    -0.333 C  
HETATM   13  C   UNL     1      -9.885  13.910  66.321  1.00  0.00    -0.318 A  
HETATM   14  O   UNL     1     -11.421  14.996  64.876  1.00  0.00    -0.386 OA 
HETATM   15  O   UNL     1     -12.578  11.517  62.991  1.00  0.00    -0.263 OA 
HETATM   16  O   UNL     1     -12.784  13.757  63.114  1.00  0.00    -0.743 OA 
HETATM   17  C   UNL     1      -9.200  12.712  66.593  1.00  0.00    -0.218 A  
HETATM   18  C   UNL     1      -8.169  12.798  67.541  1.00  0.00    -0.179 A  
HETATM   19  C   UNL     1      -7.893  13.970  68.270  1.00  0.00    -0.140 A  
HETATM   20  C   UNL     1      -9.635  15.088  67.042  1.00  0.00    -0.233 A  
HETATM   21  C   UNL     1      -8.643  15.134  68.034  1.00  0.00    -0.156 A  
BRANCH  19  22
HETATM   22  O   UNL     1      -6.881  14.061  69.195  1.00  0.00    -0.108 OA 
HETATM   23  C   UNL     1      -6.331  12.836  69.678  1.00  0.00    -0.091 C  
ENDBRANCH  19  22
BRANCH  21  24
HETATM   24  C   UNL     1      -8.352  16.452  68.720  1.00  0.00    -0.242 C  
BRANCH  24  25
HETATM   25  C   UNL     1      -8.779  17.724  68.022  1.00  0.00    -0.251 A  
HETATM   26  C   UNL     1      -8.053  18.235  66.937  1.00  0.00    -0.245 A  
HETATM   27  C   UNL     1      -8.335  19.500  66.410  1.00  0.00    -0.347 A  
HETATM   28  F   UNL     1      -7.039  17.515  66.431  1.00  0.00    -0.217 F  
HETATM   29  C   UNL     1      -9.352  20.277  66.962  1.00  0.00    -0.526 A  
HETATM   30 CL   UNL     1      -7.407  20.138  65.106  1.00  0.00    -0.144 Cl 
HETATM   31  C   UNL     1     -10.110  19.768  68.016  1.00  0.00    -0.571 A  
HETATM   32  C   UNL     1      -9.834  18.496  68.535  1.00  0.00    -0.414 A  
ENDBRANCH  24  25
ENDBRANCH  21  24
ENDBRANCH   1   8
TORSDOF 5
ENDMDL
MODEL        9
REMARK 921   NORMALIZED FREE ENERGY PREDICTED BY IDOCK:   -6.94 KCAL/MOL
REMARK 922        TOTAL FREE ENERGY PREDICTED BY IDOCK:  -10.11 KCAL/MOL
REMARK 923 INTER-LIGAND FREE ENERGY PREDICTED BY IDOCK:   -9.54 KCAL/MOL
REMARK 924 INTRA-LIGAND FREE ENERGY PREDICTED BY IDOCK:   -0.57 KCAL/MOL
REMARK 927      BINDING AFFINITY PREDICTED BY RF-SCORE:    0.00 PKD
ROOT
HETATM    1  C   UNL     1      -8.641   7.376  67.305  1.00  0.00    -0.118 C  
HETATM    2  C   UNL     1     -11.026   6.460  66.960  1.00  0.00    -0.463 C  
HETATM    3  C   UNL     1      -9.133   4.873  67.201  1.00  0.00    -0.122 C  
HETATM    4  C   UNL     1      -9.529   6.263  66.679  1.00  0.00    -0.178 C  
ENDROOT
BRANCH   1   5
HETATM    5  C   UNL     1      -7.148   7.235  66.909  1.00  0.00    -0.086 C  
HETATM    6  H   UNL     1      -5.404   7.936  67.521  1.00  0.00     0.000 HD 
HETATM    7  O   UNL     1      -6.318   8.022  67.763  1.00  0.00    -0.050 OA 
ENDBRANCH   1   5
BRANCH   1   8
HETATM    8  N   UNL     1      -9.155   8.758  66.969  1.00  0.00    -0.130 NA 
HETATM    9  C   UNL     1      -9.939  10.234  65.179  1.00  0.00    -0.395 C  
HETATM   10  C   UNL     1      -9.222   9.201  65.647  1.00  0.00    -0.234 C  
HETATM   11  C   UNL     1      -9.874  10.570  63.740  1.00  0.00    -0.300 C  
HETATM   12  C   UNL     1     -10.782  10.958  66.139  1.00  0.00    -0.159 C  
HETATM   13  C   UNL     1     -10.812  10.479  67.538  1.00  0.00    -0.357 A  
HETATM   14  O   UNL     1     -11.425  11.941  65.774  1.00  0.00    -0.329 OA 
HETATM   15  O   UNL     1      -9.241   9.912  62.926  1.00  0.00    -0.267 OA 
HETATM   16  O   UNL     1     -10.570  11.672  63.388  1.00  0.00    -0.387 OA 
HETATM   17  C   UNL     1      -9.954   9.438  67.934  1.00  0.00    -0.182 A  
HETATM   18  C   UNL     1      -9.939   9.144  69.306  1.00  0.00    -0.187 A  
HETATM   19  C   UNL     1     -10.802   9.761  70.232  1.00  0.00    -0.301 A  
HETATM   20  C   UNL     1     -11.689  11.101  68.441  1.00  0.00    -0.349 A  
HETATM   21  C   UNL     1     -11.705  10.745  69.799  1.00  0.00    -0.399 A  
BRANCH  19  22
HETATM   22  O   UNL     1     -10.787   9.481  71.577  1.00  0.00    -0.355 OA 
HETATM   23  C   UNL     1     -11.582   8.381  72.019  1.00  0.00    -0.351 C  
ENDBRANCH  19  22
BRANCH  21  24
HETATM   24  C   UNL     1     -12.606  11.508  70.747  1.00  0.00    -0.390 C  
BRANCH  24  25
HETATM   25  C   UNL     1     -12.440  13.009  70.829  1.00  0.00    -0.384 A  
HETATM   26  C   UNL     1     -12.963  13.739  71.907  1.00  0.00    -0.350 A  
HETATM   27  C   UNL     1     -12.974  15.138  71.895  1.00  0.00    -0.359 A  
HETATM   28  F   UNL     1     -13.507  13.078  72.941  1.00  0.00    -0.543 F  
HETATM   29  C   UNL     1     -12.459  15.832  70.802  1.00  0.00    -0.420 A  
HETATM   30 CL   UNL     1     -13.661  16.024  73.203  1.00  0.00    -0.633 Cl 
HETATM   31  C   UNL     1     -11.898  15.123  69.740  1.00  0.00    -0.364 A  
HETATM   32  C   UNL     1     -11.878  13.722  69.759  1.00  0.00    -0.394 A  
ENDBRANCH  24  25
ENDBRANCH  21  24
ENDBRANCH   1   8
TORSDOF 5
ENDMDL
MODEL       10
REMARK 921   NORMALIZED FREE ENERGY PREDICTED BY IDOCK:   -6.88 KCAL/MOL
REMARK 922        TOTAL FREE ENERGY PREDICTED BY IDOCK:  -10.03 KCAL/MOL
REMARK 923 INTER-LIGAND FREE ENERGY PREDICTED BY IDOCK:   -8.82 KCAL/MOL
REMARK 924 INTRA-LIGAND FREE ENERGY PREDICTED BY IDOCK:   -1.21 KCAL/MOL
REMARK 927      BINDING AFFINITY PREDICTED BY RF-SCORE:    0.00 PKD
ROOT
HETATM    1  C   UNL     1     -10.425  14.410  67.630  1.00  0.00    -0.245 C  
HETATM    2  C   UNL     1     -12.410  13.360  66.363  1.00  0.00    -0.381 C  
HETATM    3  C   UNL     1     -11.018  15.078  65.239  1.00  0.00    -0.391 C  
HETATM    4  C   UNL     1     -11.570  14.623  66.598  1.00  0.00    -0.359 C  
ENDROOT
BRANCH   1   5
HETATM    5  C   UNL     1      -9.665  15.723  67.951  1.00  0.00    -0.216 C  
HETATM    6  H   UNL     1      -7.831  16.433  67.754  1.00  0.00     0.000 HD 
HETATM    7  O   UNL     1      -8.297  15.628  67.558  1.00  0.00    -0.155 OA 
ENDBRANCH   1   5
BRANCH   1   8
HETATM    8  N   UNL     1     -10.929  13.759  68.899  1.00  0.00    -0.249 NA 
HETATM    9  C   UNL     1     -12.647  13.813  70.643  1.00  0.00    -0.386 C  
HETATM   10  C   UNL     1     -11.883  14.388  69.701  1.00  0.00    -0.321 C  
HETATM   11  C   UNL     1     -13.599  14.644  71.412  1.00  0.00    -0.404 C  
HETATM   12  C   UNL     1     -12.508  12.363  70.832  1.00  0.00    -0.274 C  
HETATM   13  C   UNL     1     -11.569  11.634  69.951  1.00  0.00    -0.366 A  
HETATM   14  O   UNL     1     -13.151  11.793  71.712  1.00  0.00    -0.463 OA 
HETATM   15  O   UNL     1     -13.778  15.835  71.193  1.00  0.00    -0.560 OA 
HETATM   16  O   UNL     1     -14.262  13.985  72.386  1.00  0.00    -0.587 OA 
HETATM   17  C   UNL     1     -10.758  12.353  69.055  1.00  0.00    -0.098 A  
HETATM   18  C   UNL     1      -9.794  11.603  68.363  1.00  0.00    -0.202 A  
HETATM   19  C   UNL     1      -9.700  10.202  68.458  1.00  0.00    -0.154 A  
HETATM   20  C   UNL     1     -11.501  10.236  70.055  1.00  0.00    -0.367 A  
HETATM   21  C   UNL     1     -10.573   9.497  69.304  1.00  0.00    -0.236 A  
BRANCH  19  22
HETATM   22  O   UNL     1      -8.755   9.463  67.789  1.00  0.00    -0.117 OA 
HETATM   23  C   UNL     1      -7.398   9.888  67.904  1.00  0.00    -0.088 C  
ENDBRANCH  19  22
BRANCH  21  24
HETATM   24  C   UNL     1     -10.480   8.001  69.519  1.00  0.00    -0.226 C  
BRANCH  24  25
HETATM   25  C   UNL     1     -10.641   7.476  70.928  1.00  0.00    -0.227 A  
HETATM   26  C   UNL     1      -9.719   7.802  71.933  1.00  0.00    -0.169 A  
HETATM   27  C   UNL     1      -9.760   7.173  73.183  1.00  0.00    -0.193 A  
HETATM   28  F   UNL     1      -8.753   8.695  71.670  1.00  0.00    -0.184 F  
HETATM   29  C   UNL     1     -10.728   6.206  73.448  1.00  0.00    -0.280 A  
HETATM   30 CL   UNL     1      -8.595   7.547  74.395  1.00  0.00    -0.254 Cl 
HETATM   31  C   UNL     1     -11.678   5.899  72.473  1.00  0.00    -0.288 A  
HETATM   32  C   UNL     1     -11.642   6.538  71.227  1.00  0.00    -0.381 A  
ENDBRANCH  24  25
ENDBRANCH  21  24
ENDBRANCH   1   8
TORSDOF 5
ENDMDL
MODEL       11
REMARK 921   NORMALIZED FREE ENERGY PREDICTED BY IDOCK:   -6.84 KCAL/MOL
REMARK 922        TOTAL FREE ENERGY PREDICTED BY IDOCK:   -9.98 KCAL/MOL
REMARK 923 INTER-LIGAND FREE ENERGY PREDICTED BY IDOCK:   -8.84 KCAL/MOL
REMARK 924 INTRA-LIGAND FREE ENERGY PREDICTED BY IDOCK:   -1.14 KCAL/MOL
REMARK 927      BINDING AFFINITY PREDICTED BY RF-SCORE:    0.00 PKD
ROOT
HETATM    1  C   UNL     1      -9.419   7.990  67.934  1.00  0.00    -0.145 C  
HETATM    2  C   UNL     1      -7.727   9.493  69.169  1.00  0.00    -0.081 C  
HETATM    3  C   UNL     1      -6.925   7.449  68.014  1.00  0.00    -0.075 C  
HETATM    4  C   UNL     1      -8.111   8.060  68.775  1.00  0.00    -0.125 C  
ENDROOT
BRANCH   1   5
HETATM    5  C   UNL     1      -9.863   6.531  67.650  1.00  0.00    -0.125 C  
HETATM    6  H   UNL     1     -11.434   5.607  66.887  1.00  0.00     0.000 HD 
HETATM    7  O   UNL     1     -11.162   6.500  67.061  1.00  0.00    -0.397 OA 
ENDBRANCH   1   5
BRANCH   1   8
HETATM    8  N   UNL     1     -10.540   8.775  68.577  1.00  0.00    -0.172 NA 
HETATM    9  C   UNL     1     -11.726   9.248  70.666  1.00  0.00    -0.276 C  
HETATM   10  C   UNL     1     -10.996   8.464  69.859  1.00  0.00    -0.166 C  
HETATM   11  C   UNL     1     -12.136   8.742  71.995  1.00  0.00    -0.377 C  
HETATM   12  C   UNL     1     -12.052  10.597  70.181  1.00  0.00    -0.333 C  
HETATM   13  C   UNL     1     -11.524  11.007  68.862  1.00  0.00    -0.364 A  
HETATM   14  O   UNL     1     -12.757  11.341  70.861  1.00  0.00    -0.347 OA 
HETATM   15  O   UNL     1     -11.789   7.654  72.433  1.00  0.00    -0.310 OA 
HETATM   16  O   UNL     1     -12.932   9.578  72.694  1.00  0.00    -0.294 OA 
HETATM   17  C   UNL     1     -10.840  10.072  68.066  1.00  0.00    -0.260 A  
HETATM   18  C   UNL     1     -10.502  10.498  66.772  1.00  0.00    -0.302 A  
HETATM   19  C   UNL     1     -10.722  11.811  66.316  1.00  0.00    -0.270 A  
HETATM   20  C   UNL     1     -11.745  12.326  68.433  1.00  0.00    -0.390 A  
HETATM   21  C   UNL     1     -11.339  12.751  67.158  1.00  0.00    -0.365 A  
BRANCH  19  22
HETATM   22  O   UNL     1     -10.399  12.232  65.049  1.00  0.00    -0.278 OA 
HETATM   23  C   UNL     1     -10.940  11.486  63.959  1.00  0.00    -0.383 C  
ENDBRANCH  19  22
BRANCH  21  24
HETATM   24  C   UNL     1     -11.681  14.157  66.710  1.00  0.00    -0.432 C  
BRANCH  24  25
HETATM   25  C   UNL     1     -10.617  15.223  66.848  1.00  0.00    -0.304 A  
HETATM   26  C   UNL     1     -10.770  16.287  67.749  1.00  0.00    -0.325 A  
HETATM   27  C   UNL     1      -9.881  17.368  67.747  1.00  0.00    -0.283 A  
HETATM   28  F   UNL     1     -11.816  16.287  68.590  1.00  0.00    -0.361 F  
HETATM   29  C   UNL     1      -8.822  17.401  66.841  1.00  0.00    -0.259 A  
HETATM   30 CL   UNL     1     -10.104  18.692  68.826  1.00  0.00    -0.424 Cl 
HETATM   31  C   UNL     1      -8.632  16.332  65.966  1.00  0.00    -0.246 A  
HETATM   32  C   UNL     1      -9.516  15.245  65.978  1.00  0.00    -0.372 A  
ENDBRANCH  24  25
ENDBRANCH  21  24
ENDBRANCH   1   8
TORSDOF 5
ENDMDL
MODEL       12
REMARK 921   NORMALIZED FREE ENERGY PREDICTED BY IDOCK:   -6.78 KCAL/MOL
REMARK 922        TOTAL FREE ENERGY PREDICTED BY IDOCK:   -9.91 KCAL/MOL
REMARK 923 INTER-LIGAND FREE ENERGY PREDICTED BY IDOCK:   -9.20 KCAL/MOL
REMARK 924 INTRA-LIGAND FREE ENERGY PREDICTED BY IDOCK:   -0.70 KCAL/MOL
REMARK 927      BINDING AFFINITY PREDICTED BY RF-SCORE:    0.00 PKD
ROOT
HETATM    1  C   UNL     1     -12.479  14.058  70.862  1.00  0.00    -0.369 C  
HETATM    2  C   UNL     1     -10.368  15.421  70.286  1.00  0.00    -0.205 C  
HETATM    3  C   UNL     1     -11.873  16.210  72.094  1.00  0.00    -0.626 C  
HETATM    4  C   UNL     1     -11.831  15.468  70.750  1.00  0.00    -0.406 C  
ENDROOT
BRANCH   1   5
HETATM    5  C   UNL     1     -13.989  14.127  71.208  1.00  0.00    -0.129 C  
HETATM    6  H   UNL     1     -15.158  13.667  72.735  1.00  0.00     0.000 HD 
HETATM    7  O   UNL     1     -14.233  13.625  72.522  1.00  0.00    -0.724 OA 
ENDBRANCH   1   5
BRANCH   1   8
HETATM    8  N   UNL     1     -12.254  13.238  69.611  1.00  0.00    -0.248 NA 
HETATM    9  C   UNL     1     -11.491  13.282  67.285  1.00  0.00    -0.378 C  
HETATM   10  C   UNL     1     -12.020  13.851  68.379  1.00  0.00    -0.356 C  
HETATM   11  C   UNL     1     -11.331  14.086  66.054  1.00  0.00    -0.328 C  
HETATM   12  C   UNL     1     -11.069  11.879  67.392  1.00  0.00    -0.279 C  
HETATM   13  C   UNL     1     -11.220  11.205  68.700  1.00  0.00    -0.314 A  
HETATM   14  O   UNL     1     -10.619  11.295  66.407  1.00  0.00    -0.249 OA 
HETATM   15  O   UNL     1     -11.600  15.278  65.992  1.00  0.00    -0.175 OA 
HETATM   16  O   UNL     1     -10.863  13.400  64.990  1.00  0.00    -0.298 OA 
HETATM   17  C   UNL     1     -11.864  11.874  69.756  1.00  0.00    -0.340 A  
HETATM   18  C   UNL     1     -12.097  11.115  70.913  1.00  0.00    -0.427 A  
HETATM   19  C   UNL     1     -11.623   9.799  71.073  1.00  0.00    -0.376 A  
HETATM   20  C   UNL     1     -10.728   9.897  68.841  1.00  0.00    -0.244 A  
HETATM   21  C   UNL     1     -10.914   9.177  70.032  1.00  0.00    -0.240 A  
BRANCH  19  22
HETATM   22  O   UNL     1     -11.852   9.049  72.201  1.00  0.00    -0.358 OA 
HETATM   23  C   UNL     1     -13.213   8.844  72.579  1.00  0.00    -0.382 C  
ENDBRANCH  19  22
BRANCH  21  24
HETATM   24  C   UNL     1     -10.443   7.740  70.101  1.00  0.00    -0.231 C  
BRANCH  24  25
HETATM   25  C   UNL     1     -10.076   7.051  68.806  1.00  0.00    -0.170 A  
HETATM   26  C   UNL     1      -8.840   7.284  68.186  1.00  0.00    -0.126 A  
HETATM   27  C   UNL     1      -8.572   6.797  66.902  1.00  0.00    -0.116 A  
HETATM   28  F   UNL     1      -7.921   8.032  68.818  1.00  0.00    -0.109 F  
HETATM   29  C   UNL     1      -9.539   6.064  66.217  1.00  0.00    -0.136 A  
HETATM   30 CL   UNL     1      -7.068   7.128  66.131  1.00  0.00    -0.072 Cl 
HETATM   31  C   UNL     1     -10.758   5.788  66.835  1.00  0.00    -0.381 A  
HETATM   32  C   UNL     1     -11.020   6.268  68.125  1.00  0.00    -0.412 A  
ENDBRANCH  24  25
ENDBRANCH  21  24
ENDBRANCH   1   8
TORSDOF 5
ENDMDL
MODEL       13
REMARK 921   NORMALIZED FREE ENERGY PREDICTED BY IDOCK:   -6.69 KCAL/MOL
REMARK 922        TOTAL FREE ENERGY PREDICTED BY IDOCK:   -9.79 KCAL/MOL
REMARK 923 INTER-LIGAND FREE ENERGY PREDICTED BY IDOCK:   -9.09 KCAL/MOL
REMARK 924 INTRA-LIGAND FREE ENERGY PREDICTED BY IDOCK:   -0.70 KCAL/MOL
REMARK 927      BINDING AFFINITY PREDICTED BY RF-SCORE:    0.00 PKD
ROOT
HETATM    1  C   UNL     1      -9.230   8.022  68.022  1.00  0.00    -0.135 C  
HETATM    2  C   UNL     1     -10.904   6.451  66.848  1.00  0.00    -0.428 C  
HETATM    3  C   UNL     1      -8.518   6.416  66.169  1.00  0.00    -0.140 C  
HETATM    4  C   UNL     1      -9.644   7.316  66.698  1.00  0.00    -0.236 C  
ENDROOT
BRANCH   1   5
HETATM    5  C   UNL     1      -8.034   8.989  67.827  1.00  0.00    -0.101 C  
HETATM    6  H   UNL     1      -6.733   9.948  68.965  1.00  0.00     0.000 HD 
HETATM    7  O   UNL     1      -7.466   9.356  69.084  1.00  0.00    -0.070 OA 
ENDBRANCH   1   5
BRANCH   1   8
HETATM    8  N   UNL     1     -10.398   8.737  68.664  1.00  0.00    -0.207 NA 
HETATM    9  C   UNL     1     -11.589   9.167  70.760  1.00  0.00    -0.329 C  
HETATM   10  C   UNL     1     -10.813   8.421  69.958  1.00  0.00    -0.225 C  
HETATM   11  C   UNL     1     -11.943   8.662  72.104  1.00  0.00    -0.379 C  
HETATM   12  C   UNL     1     -12.019  10.477  70.251  1.00  0.00    -0.325 C  
HETATM   13  C   UNL     1     -11.539  10.896  68.916  1.00  0.00    -0.378 A  
HETATM   14  O   UNL     1     -12.767  11.183  70.926  1.00  0.00    -0.357 OA 
HETATM   15  O   UNL     1     -11.512   7.612  72.560  1.00  0.00    -0.318 OA 
HETATM   16  O   UNL     1     -12.789   9.452  72.797  1.00  0.00    -0.222 OA 
HETATM   17  C   UNL     1     -10.798   9.996  68.130  1.00  0.00    -0.255 A  
HETATM   18  C   UNL     1     -10.509  10.418  66.823  1.00  0.00    -0.287 A  
HETATM   19  C   UNL     1     -10.831  11.701  66.343  1.00  0.00    -0.287 A  
HETATM   20  C   UNL     1     -11.862  12.186  68.463  1.00  0.00    -0.365 A  
HETATM   21  C   UNL     1     -11.505  12.612  67.174  1.00  0.00    -0.406 A  
BRANCH  19  22
HETATM   22  O   UNL     1     -10.555  12.117  65.063  1.00  0.00    -0.271 OA 
HETATM   23  C   UNL     1     -10.484  11.110  64.054  1.00  0.00    -0.383 C  
ENDBRANCH  19  22
BRANCH  21  24
HETATM   24  C   UNL     1     -11.954  13.978  66.702  1.00  0.00    -0.473 C  
BRANCH  24  25
HETATM   25  C   UNL     1     -11.171  15.184  67.172  1.00  0.00    -0.320 A  
HETATM   26  C   UNL     1     -10.042  15.633  66.472  1.00  0.00    -0.282 A  
HETATM   27  C   UNL     1      -9.212  16.627  67.002  1.00  0.00    -0.220 A  
HETATM   28  F   UNL     1      -9.728  15.060  65.299  1.00  0.00    -0.355 F  
HETATM   29  C   UNL     1      -9.500  17.191  68.243  1.00  0.00    -0.276 A  
HETATM   30 CL   UNL     1      -7.801  17.139  66.156  1.00  0.00    -0.339 Cl 
HETATM   31  C   UNL     1     -10.642  16.785  68.934  1.00  0.00    -0.350 A  
HETATM   32  C   UNL     1     -11.478  15.797  68.397  1.00  0.00    -0.367 A  
ENDBRANCH  24  25
ENDBRANCH  21  24
ENDBRANCH   1   8
TORSDOF 5
ENDMDL
MODEL       14
REMARK 921   NORMALIZED FREE ENERGY PREDICTED BY IDOCK:   -6.68 KCAL/MOL
REMARK 922        TOTAL FREE ENERGY PREDICTED BY IDOCK:   -9.77 KCAL/MOL
REMARK 923 INTER-LIGAND FREE ENERGY PREDICTED BY IDOCK:   -8.91 KCAL/MOL
REMARK 924 INTRA-LIGAND FREE ENERGY PREDICTED BY IDOCK:   -0.86 KCAL/MOL
REMARK 927      BINDING AFFINITY PREDICTED BY RF-SCORE:    0.00 PKD
ROOT
HETATM    1  C   UNL     1      -9.432   9.794  67.638  1.00  0.00    -0.144 C  
HETATM    2  C   UNL     1      -8.007   9.850  69.786  1.00  0.00    -0.181 C  
HETATM    3  C   UNL     1      -7.197   8.574  67.819  1.00  0.00    -0.084 C  
HETATM    4  C   UNL     1      -8.457   9.023  68.574  1.00  0.00    -0.128 C  
ENDROOT
BRANCH   1   5
HETATM    5  C   UNL     1      -9.976   8.907  66.489  1.00  0.00    -0.288 C  
HETATM    6  H   UNL     1     -10.217   9.041  64.531  1.00  0.00     0.000 HD 
HETATM    7  O   UNL     1      -9.884   9.584  65.236  1.00  0.00    -0.282 OA 
ENDBRANCH   1   5
BRANCH   1   8
HETATM    8  N   UNL     1     -10.569  10.425  68.412  1.00  0.00    -0.194 NA 
HETATM    9  C   UNL     1     -11.887  10.348  70.474  1.00  0.00    -0.430 C  
HETATM   10  C   UNL     1     -11.127   9.787  69.520  1.00  0.00    -0.192 C  
HETATM   11  C   UNL     1     -12.410   9.507  71.574  1.00  0.00    -0.380 C  
HETATM   12  C   UNL     1     -12.128  11.794  70.379  1.00  0.00    -0.352 C  
HETATM   13  C   UNL     1     -11.491  12.534  69.268  1.00  0.00    -0.353 A  
HETATM   14  O   UNL     1     -12.853  12.351  71.201  1.00  0.00    -0.317 OA 
HETATM   15  O   UNL     1     -12.135   8.322  71.700  1.00  0.00    -0.281 OA 
HETATM   16  O   UNL     1     -13.224  10.152  72.435  1.00  0.00    -0.344 OA 
HETATM   17  C   UNL     1     -10.784  11.827  68.279  1.00  0.00    -0.214 A  
HETATM   18  C   UNL     1     -10.337  12.585  67.185  1.00  0.00    -0.230 A  
HETATM   19  C   UNL     1     -10.477  13.984  67.114  1.00  0.00    -0.270 A  
HETATM   20  C   UNL     1     -11.632  13.930  69.224  1.00  0.00    -0.358 A  
HETATM   21  C   UNL     1     -11.120  14.678  68.153  1.00  0.00    -0.285 A  
BRANCH  19  22
HETATM   22  O   UNL     1     -10.047  14.730  66.044  1.00  0.00    -0.276 OA 
HETATM   23  C   UNL     1     -10.674  14.482  64.786  1.00  0.00    -0.393 C  
ENDBRANCH  19  22
BRANCH  21  24
HETATM   24  C   UNL     1     -11.377  16.169  68.109  1.00  0.00    -0.270 C  
BRANCH  24  25
HETATM   25  C   UNL     1     -10.200  17.098  68.302  1.00  0.00    -0.334 A  
HETATM   26  C   UNL     1     -10.249  18.431  67.869  1.00  0.00    -0.381 A  
HETATM   27  C   UNL     1      -9.105  19.237  67.877  1.00  0.00    -0.313 A  
HETATM   28  F   UNL     1     -11.405  18.922  67.393  1.00  0.00    -0.407 F  
HETATM   29  C   UNL     1      -7.890  18.720  68.322  1.00  0.00    -0.333 A  
HETATM   30 CL   UNL     1      -9.167  20.859  67.300  1.00  0.00    -0.390 Cl 
HETATM   31  C   UNL     1      -7.831  17.409  68.793  1.00  0.00    -0.250 A  
HETATM   32  C   UNL     1      -8.981  16.607  68.795  1.00  0.00    -0.253 A  
ENDBRANCH  24  25
ENDBRANCH  21  24
ENDBRANCH   1   8
TORSDOF 5
ENDMDL
MODEL       15
REMARK 921   NORMALIZED FREE ENERGY PREDICTED BY IDOCK:   -6.66 KCAL/MOL
REMARK 922        TOTAL FREE ENERGY PREDICTED BY IDOCK:   -9.75 KCAL/MOL
REMARK 923 INTER-LIGAND FREE ENERGY PREDICTED BY IDOCK:   -9.55 KCAL/MOL
REMARK 924 INTRA-LIGAND FREE ENERGY PREDICTED BY IDOCK:   -0.20 KCAL/MOL
REMARK 927      BINDING AFFINITY PREDICTED BY RF-SCORE:    0.00 PKD
ROOT
HETATM    1  C   UNL     1      -9.348   7.646  66.925  1.00  0.00    -0.161 C  
HETATM    2  C   UNL     1      -6.989   8.416  67.626  1.00  0.00    -0.075 C  
HETATM    3  C   UNL     1      -7.685   6.075  68.059  1.00  0.00    -0.101 C  
HETATM    4  C   UNL     1      -8.191   7.522  67.959  1.00  0.00    -0.124 C  
ENDROOT
BRANCH   1   5
HETATM    5  C   UNL     1     -10.602   6.835  67.341  1.00  0.00    -0.302 C  
HETATM    6  H   UNL     1     -11.580   5.237  66.711  1.00  0.00     0.000 HD 
HETATM    7  O   UNL     1     -10.812   5.734  66.457  1.00  0.00    -0.276 OA 
ENDBRANCH   1   5
BRANCH   1   8
HETATM    8  N   UNL     1      -9.708   9.091  66.661  1.00  0.00    -0.208 NA 
HETATM    9  C   UNL     1     -10.326  10.731  64.950  1.00  0.00    -0.369 C  
HETATM   10  C   UNL     1      -9.726   9.603  65.362  1.00  0.00    -0.295 C  
HETATM   11  C   UNL     1     -10.225  11.129  63.529  1.00  0.00    -0.390 C  
HETATM   12  C   UNL     1     -11.084  11.495  65.950  1.00  0.00    -0.214 C  
HETATM   13  C   UNL     1     -11.164  10.954  67.324  1.00  0.00    -0.307 A  
HETATM   14  O   UNL     1     -11.615  12.559  65.637  1.00  0.00    -0.350 OA 
HETATM   15  O   UNL     1      -9.669  10.446  62.679  1.00  0.00    -0.298 OA 
HETATM   16  O   UNL     1     -10.796  12.316  63.235  1.00  0.00    -0.435 OA 
HETATM   17  C   UNL     1     -10.426   9.806  67.663  1.00  0.00    -0.251 A  
HETATM   18  C   UNL     1     -10.442   9.444  69.019  1.00  0.00    -0.233 A  
HETATM   19  C   UNL     1     -11.231  10.106  69.979  1.00  0.00    -0.299 A  
HETATM   20  C   UNL     1     -11.967  11.623  68.262  1.00  0.00    -0.236 A  
HETATM   21  C   UNL     1     -12.021  11.204  69.601  1.00  0.00    -0.429 A  
BRANCH  19  22
HETATM   22  O   UNL     1     -11.246   9.760  71.308  1.00  0.00    -0.361 OA 
HETATM   23  C   UNL     1     -10.344   8.735  71.723  1.00  0.00    -0.343 C  
ENDBRANCH  19  22
BRANCH  21  24
HETATM   24  C   UNL     1     -12.832  12.013  70.591  1.00  0.00    -0.035 C  
BRANCH  24  25
HETATM   25  C   UNL     1     -12.335  13.395  70.953  1.00  0.00    -0.436 A  
HETATM   26  C   UNL     1     -12.695  14.000  72.165  1.00  0.00    -0.260 A  
HETATM   27  C   UNL     1     -12.392  15.342  72.421  1.00  0.00    -0.381 A  
HETATM   28  F   UNL     1     -13.388  13.290  73.071  1.00  0.00    -0.520 F  
HETATM   29  C   UNL     1     -11.720  16.101  71.466  1.00  0.00    -0.533 A  
HETATM   30 CL   UNL     1     -12.880  16.089  73.895  1.00  0.00    -0.664 Cl 
HETATM   31  C   UNL     1     -11.318  15.504  70.271  1.00  0.00    -0.348 A  
HETATM   32  C   UNL     1     -11.613  14.157  70.022  1.00  0.00    -0.315 A  
ENDBRANCH  24  25
ENDBRANCH  21  24
ENDBRANCH   1   8
TORSDOF 5
ENDMDL
MODEL       16
REMARK 921   NORMALIZED FREE ENERGY PREDICTED BY IDOCK:   -6.47 KCAL/MOL
REMARK 922        TOTAL FREE ENERGY PREDICTED BY IDOCK:   -9.50 KCAL/MOL
REMARK 923 INTER-LIGAND FREE ENERGY PREDICTED BY IDOCK:   -9.03 KCAL/MOL
REMARK 924 INTRA-LIGAND FREE ENERGY PREDICTED BY IDOCK:   -0.47 KCAL/MOL
REMARK 927      BINDING AFFINITY PREDICTED BY RF-SCORE:    0.00 PKD
ROOT
HETATM    1  C   UNL     1     -12.586  14.209  71.157  1.00  0.00    -0.367 C  
HETATM    2  C   UNL     1     -10.466  15.572  70.615  1.00  0.00    -0.053 C  
HETATM    3  C   UNL     1     -11.951  16.311  72.460  1.00  0.00    -0.648 C  
HETATM    4  C   UNL     1     -11.925  15.616  71.090  1.00  0.00    -0.457 C  
ENDROOT
BRANCH   1   5
HETATM    5  C   UNL     1     -14.093  14.279  71.517  1.00  0.00    -0.325 C  
HETATM    6  H   UNL     1     -15.294  13.561  72.912  1.00  0.00     0.000 HD 
HETATM    7  O   UNL     1     -14.372  13.518  72.691  1.00  0.00    -0.716 OA 
ENDBRANCH   1   5
BRANCH   1   8
HETATM    8  N   UNL     1     -12.376  13.431  69.877  1.00  0.00    -0.247 NA 
HETATM    9  C   UNL     1     -11.487  13.508  67.597  1.00  0.00    -0.351 C  
HETATM   10  C   UNL     1     -12.015  14.075  68.693  1.00  0.00    -0.354 C  
HETATM   11  C   UNL     1     -11.179  14.350  66.420  1.00  0.00    -0.345 C  
HETATM   12  C   UNL     1     -11.215  12.065  67.650  1.00  0.00    -0.282 C  
HETATM   13  C   UNL     1     -11.504  11.348  68.911  1.00  0.00    -0.363 A  
HETATM   14  O   UNL     1     -10.774  11.486  66.658  1.00  0.00    -0.245 OA 
HETATM   15  O   UNL     1     -11.323  15.565  66.410  1.00  0.00    -0.177 OA 
HETATM   16  O   UNL     1     -10.726  13.671  65.346  1.00  0.00    -0.289 OA 
HETATM   17  C   UNL     1     -12.135  12.029  69.967  1.00  0.00    -0.280 A  
HETATM   18  C   UNL     1     -12.506  11.242  71.069  1.00  0.00    -0.503 A  
HETATM   19  C   UNL     1     -12.177   9.878  71.182  1.00  0.00    -0.373 A  
HETATM   20  C   UNL     1     -11.156   9.992  69.005  1.00  0.00    -0.221 A  
HETATM   21  C   UNL     1     -11.478   9.238  70.145  1.00  0.00    -0.138 A  
BRANCH  19  22
HETATM   22  O   UNL     1     -12.542   9.102  72.255  1.00  0.00    -0.376 OA 
HETATM   23  C   UNL     1     -13.937   8.865  72.440  1.00  0.00    -0.448 C  
ENDBRANCH  19  22
BRANCH  21  24
HETATM   24  C   UNL     1     -11.160   7.758  70.160  1.00  0.00    -0.216 C  
BRANCH  24  25
HETATM   25  C   UNL     1      -9.835   7.323  70.745  1.00  0.00    -0.178 A  
HETATM   26  C   UNL     1      -9.507   5.965  70.867  1.00  0.00    -0.165 A  
HETATM   27  C   UNL     1      -8.370   5.557  71.573  1.00  0.00    -0.123 A  
HETATM   28  F   UNL     1     -10.328   5.044  70.340  1.00  0.00    -0.303 F  
HETATM   29  C   UNL     1      -7.539   6.504  72.169  1.00  0.00    -0.097 A  
HETATM   30 CL   UNL     1      -8.001   3.884  71.757  1.00  0.00    -0.069 Cl 
HETATM   31  C   UNL     1      -7.828   7.861  72.023  1.00  0.00    -0.123 A  
HETATM   32  C   UNL     1      -8.961   8.268  71.306  1.00  0.00    -0.200 A  
ENDBRANCH  24  25
ENDBRANCH  21  24
ENDBRANCH   1   8
TORSDOF 5
ENDMDL
MODEL       17
REMARK 921   NORMALIZED FREE ENERGY PREDICTED BY IDOCK:   -6.44 KCAL/MOL
REMARK 922        TOTAL FREE ENERGY PREDICTED BY IDOCK:   -9.47 KCAL/MOL
REMARK 923 INTER-LIGAND FREE ENERGY PREDICTED BY IDOCK:   -8.21 KCAL/MOL
REMARK 924 INTRA-LIGAND FREE ENERGY PREDICTED BY IDOCK:   -1.26 KCAL/MOL
REMARK 927      BINDING AFFINITY PREDICTED BY RF-SCORE:    0.00 PKD
ROOT
HETATM    1  C   UNL     1      -9.520   7.611  70.635  1.00  0.00    -0.163 C  
HETATM    2  C   UNL     1     -11.408   6.221  69.563  1.00  0.00    -0.475 C  
HETATM    3  C   UNL     1     -10.610   5.641  71.840  1.00  0.00    -0.287 C  
HETATM    4  C   UNL     1     -10.177   6.209  70.480  1.00  0.00    -0.251 C  
ENDROOT
BRANCH   1   5
HETATM    5  C   UNL     1      -8.207   7.561  71.460  1.00  0.00    -0.103 C  
HETATM    6  H   UNL     1      -7.266   8.699  72.774  1.00  0.00     0.000 HD 
HETATM    7  O   UNL     1      -8.070   8.729  72.268  1.00  0.00    -0.356 OA 
ENDBRANCH   1   5
BRANCH   1   8
HETATM    8  N   UNL     1      -9.286   8.271  69.295  1.00  0.00    -0.151 NA 
HETATM    9  C   UNL     1      -8.752   7.900  66.934  1.00  0.00    -0.136 C  
HETATM   10  C   UNL     1      -8.717   7.565  68.233  1.00  0.00    -0.123 C  
HETATM   11  C   UNL     1      -8.075   7.035  65.943  1.00  0.00    -0.119 C  
HETATM   12  C   UNL     1      -9.500   9.111  66.570  1.00  0.00    -0.208 C  
HETATM   13  C   UNL     1     -10.190   9.852  67.648  1.00  0.00    -0.255 A  
HETATM   14  O   UNL     1      -9.526   9.489  65.400  1.00  0.00    -0.249 OA 
HETATM   15  O   UNL     1      -7.529   5.980  66.237  1.00  0.00    -0.083 OA 
HETATM   16  O   UNL     1      -8.103   7.501  64.677  1.00  0.00    -0.138 OA 
HETATM   17  C   UNL     1     -10.015   9.456  68.986  1.00  0.00    -0.177 A  
HETATM   18  C   UNL     1     -10.584  10.297  69.954  1.00  0.00    -0.324 A  
HETATM   19  C   UNL     1     -11.380  11.412  69.629  1.00  0.00    -0.275 A  
HETATM   20  C   UNL     1     -10.989  10.953  67.299  1.00  0.00    -0.355 A  
HETATM   21  C   UNL     1     -11.604  11.744  68.283  1.00  0.00    -0.373 A  
BRANCH  19  22
HETATM   22  O   UNL     1     -11.934  12.242  70.572  1.00  0.00    -0.335 OA 
HETATM   23  C   UNL     1     -12.874  11.661  71.476  1.00  0.00    -0.364 C  
ENDBRANCH  19  22
BRANCH  21  24
HETATM   24  C   UNL     1     -12.382  12.971  67.857  1.00  0.00     0.147 C  
BRANCH  24  25
HETATM   25  C   UNL     1     -11.863  13.766  66.680  1.00  0.00    -0.445 A  
HETATM   26  C   UNL     1     -10.759  14.620  66.812  1.00  0.00    -0.301 A  
HETATM   27  C   UNL     1     -10.392  15.493  65.782  1.00  0.00    -0.363 A  
HETATM   28  F   UNL     1     -10.076  14.633  67.969  1.00  0.00    -0.217 F  
HETATM   29  C   UNL     1     -11.126  15.523  64.597  1.00  0.00    -0.373 A  
HETATM   30 CL   UNL     1      -9.062  16.571  65.972  1.00  0.00    -0.333 Cl 
HETATM   31  C   UNL     1     -12.203  14.652  64.433  1.00  0.00    -0.473 A  
HETATM   32  C   UNL     1     -12.561  13.771  65.462  1.00  0.00    -0.551 A  
ENDBRANCH  24  25
ENDBRANCH  21  24
ENDBRANCH   1   8
TORSDOF 5
ENDMDL
MODEL       18
REMARK 921   NORMALIZED FREE ENERGY PREDICTED BY IDOCK:   -6.43 KCAL/MOL
REMARK 922        TOTAL FREE ENERGY PREDICTED BY IDOCK:   -9.45 KCAL/MOL
REMARK 923 INTER-LIGAND FREE ENERGY PREDICTED BY IDOCK:   -8.34 KCAL/MOL
REMARK 924 INTRA-LIGAND FREE ENERGY PREDICTED BY IDOCK:   -1.11 KCAL/MOL
REMARK 927      BINDING AFFINITY PREDICTED BY RF-SCORE:    0.00 PKD
ROOT
HETATM    1  C   UNL     1     -10.199  15.088  68.738  1.00  0.00    -0.235 C  
HETATM    2  C   UNL     1      -8.128  14.874  67.218  1.00  0.00    -0.234 C  
HETATM    3  C   UNL     1      -8.075  16.449  69.134  1.00  0.00    -0.198 C  
HETATM    4  C   UNL     1      -8.989  15.809  68.078  1.00  0.00    -0.178 C  
ENDROOT
BRANCH   1   5
HETATM    5  C   UNL     1     -11.129  16.068  69.500  1.00  0.00    -0.333 C  
HETATM    6  H   UNL     1     -12.121  16.107  71.209  1.00  0.00     0.000 HD 
HETATM    7  O   UNL     1     -11.552  15.507  70.742  1.00  0.00    -0.299 OA 
ENDBRANCH   1   5
BRANCH   1   8
HETATM    8  N   UNL     1     -10.984  14.277  67.732  1.00  0.00    -0.259 NA 
HETATM    9  C   UNL     1     -11.798  14.174  65.425  1.00  0.00    -0.362 C  
HETATM   10  C   UNL     1     -11.399  14.835  66.522  1.00  0.00    -0.344 C  
HETATM   11  C   UNL     1     -12.221  14.937  64.230  1.00  0.00    -0.344 C  
HETATM   12  C   UNL     1     -11.758  12.706  65.472  1.00  0.00    -0.402 C  
HETATM   13  C   UNL     1     -11.250  12.063  66.703  1.00  0.00    -0.380 A  
HETATM   14  O   UNL     1     -12.156  12.049  64.510  1.00  0.00    -0.328 OA 
HETATM   15  O   UNL     1     -12.169  16.157  64.162  1.00  0.00    -0.700 OA 
HETATM   16  O   UNL     1     -12.677  14.179  63.211  1.00  0.00    -0.714 OA 
HETATM   17  C   UNL     1     -10.937  12.855  67.822  1.00  0.00    -0.243 A  
HETATM   18  C   UNL     1     -10.602  12.158  68.993  1.00  0.00    -0.117 A  
HETATM   19  C   UNL     1     -10.470  10.757  69.039  1.00  0.00    -0.215 A  
HETATM   20  C   UNL     1     -11.114  10.666  66.722  1.00  0.00    -0.103 A  
HETATM   21  C   UNL     1     -10.713   9.992  67.887  1.00  0.00    -0.322 A  
BRANCH  19  22
HETATM   22  O   UNL     1     -10.148  10.069  70.183  1.00  0.00    -0.255 OA 
HETATM   23  C   UNL     1     -11.204   9.823  71.112  1.00  0.00    -0.374 C  
ENDBRANCH  19  22
BRANCH  21  24
HETATM   24  C   UNL     1     -10.668   8.478  67.880  1.00  0.00    -0.148 C  
BRANCH  24  25
HETATM   25  C   UNL     1      -9.650   7.802  66.989  1.00  0.00    -0.238 A  
HETATM   26  C   UNL     1      -9.874   6.516  66.479  1.00  0.00    -0.111 A  
HETATM   27  C   UNL     1      -8.862   5.817  65.812  1.00  0.00    -0.146 A  
HETATM   28  F   UNL     1     -11.064   5.929  66.683  1.00  0.00    -0.345 F  
HETATM   29  C   UNL     1      -7.606   6.398  65.641  1.00  0.00    -0.086 A  
HETATM   30 CL   UNL     1      -9.132   4.218  65.230  1.00  0.00    -0.135 Cl 
HETATM   31  C   UNL     1      -7.380   7.693  66.106  1.00  0.00    -0.078 A  
HETATM   32  C   UNL     1      -8.398   8.395  66.765  1.00  0.00    -0.109 A  
ENDBRANCH  24  25
ENDBRANCH  21  24
ENDBRANCH   1   8
TORSDOF 5
ENDMDL
MODEL       19
REMARK 921   NORMALIZED FREE ENERGY PREDICTED BY IDOCK:   -6.42 KCAL/MOL
REMARK 922        TOTAL FREE ENERGY PREDICTED BY IDOCK:   -9.44 KCAL/MOL
REMARK 923 INTER-LIGAND FREE ENERGY PREDICTED BY IDOCK:   -8.23 KCAL/MOL
REMARK 924 INTRA-LIGAND FREE ENERGY PREDICTED BY IDOCK:   -1.21 KCAL/MOL
REMARK 927      BINDING AFFINITY PREDICTED BY RF-SCORE:    0.00 PKD
ROOT
HETATM    1  C   UNL     1      -9.510   6.216  72.201  1.00  0.00    -0.151 C  
HETATM    2  C   UNL     1      -9.914   5.200  69.866  1.00  0.00    -0.316 C  
HETATM    3  C   UNL     1     -10.026   3.738  71.868  1.00  0.00    -0.230 C  
HETATM    4  C   UNL     1      -9.342   4.978  71.274  1.00  0.00    -0.197 C  
ENDROOT
BRANCH   1   5
HETATM    5  C   UNL     1      -8.818   6.025  73.575  1.00  0.00    -0.125 C  
HETATM    6  H   UNL     1      -8.281   7.152  75.108  1.00  0.00     0.000 HD 
HETATM    7  O   UNL     1      -8.705   7.269  74.266  1.00  0.00    -0.186 OA 
ENDBRANCH   1   5
BRANCH   1   8
HETATM    8  N   UNL     1      -9.032   7.486  71.532  1.00  0.00    -0.131 NA 
HETATM    9  C   UNL     1      -7.456   8.441  69.920  1.00  0.00    -0.064 C  
HETATM   10  C   UNL     1      -7.835   7.516  70.815  1.00  0.00    -0.098 C  
HETATM   11  C   UNL     1      -6.135   8.319  69.265  1.00  0.00    -0.038 C  
HETATM   12  C   UNL     1      -8.409   9.518  69.620  1.00  0.00    -0.152 C  
HETATM   13  C   UNL     1      -9.726   9.489  70.292  1.00  0.00    -0.314 A  
HETATM   14  O   UNL     1      -8.095  10.417  68.841  1.00  0.00    -0.111 OA 
HETATM   15  O   UNL     1      -5.380   7.374  69.449  1.00  0.00    -0.015 OA 
HETATM   16  O   UNL     1      -5.819   9.341  68.441  1.00  0.00    -0.041 OA 
HETATM   17  C   UNL     1      -9.982   8.517  71.275  1.00  0.00    -0.221 A  
HETATM   18  C   UNL     1     -11.196   8.649  71.967  1.00  0.00    -0.434 A  
HETATM   19  C   UNL     1     -12.164   9.616  71.637  1.00  0.00    -0.402 A  
HETATM   20  C   UNL     1     -10.680  10.456  69.939  1.00  0.00    -0.331 A  
HETATM   21  C   UNL     1     -11.917  10.529  70.598  1.00  0.00    -0.455 A  
BRANCH  19  22
HETATM   22  O   UNL     1     -13.352   9.753  72.313  1.00  0.00    -0.443 OA 
HETATM   23  C   UNL     1     -14.309   8.705  72.164  1.00  0.00    -0.427 C  
ENDBRANCH  19  22
BRANCH  21  24
HETATM   24  C   UNL     1     -12.875  11.646  70.240  1.00  0.00     0.095 C  
BRANCH  24  25
HETATM   25  C   UNL     1     -12.473  13.062  70.585  1.00  0.00    -0.347 A  
HETATM   26  C   UNL     1     -12.920  13.677  71.763  1.00  0.00    -0.353 A  
HETATM   27  C   UNL     1     -12.704  15.040  71.994  1.00  0.00    -0.333 A  
HETATM   28  F   UNL     1     -13.611  12.952  72.657  1.00  0.00    -0.616 F  
HETATM   29  C   UNL     1     -12.034  15.812  71.047  1.00  0.00    -0.462 A  
HETATM   30 CL   UNL     1     -13.299  15.796  73.423  1.00  0.00    -0.629 Cl 
HETATM   31  C   UNL     1     -11.546  15.208  69.888  1.00  0.00    -0.329 A  
HETATM   32  C   UNL     1     -11.754  13.841  69.664  1.00  0.00    -0.379 A  
ENDBRANCH  24  25
ENDBRANCH  21  24
ENDBRANCH   1   8
TORSDOF 5
ENDMDL
MODEL       20
REMARK 921   NORMALIZED FREE ENERGY PREDICTED BY IDOCK:   -6.39 KCAL/MOL
REMARK 922        TOTAL FREE ENERGY PREDICTED BY IDOCK:   -9.39 KCAL/MOL
REMARK 923 INTER-LIGAND FREE ENERGY PREDICTED BY IDOCK:   -8.10 KCAL/MOL
REMARK 924 INTRA-LIGAND FREE ENERGY PREDICTED BY IDOCK:   -1.30 KCAL/MOL
REMARK 927      BINDING AFFINITY PREDICTED BY RF-SCORE:    0.00 PKD
ROOT
HETATM    1  C   UNL     1     -11.226  12.980  69.393  1.00  0.00    -0.145 C  
HETATM    2  C   UNL     1     -12.151  15.386  69.462  1.00  0.00    -0.332 C  
HETATM    3  C   UNL     1     -12.747  13.798  71.273  1.00  0.00    -0.450 C  
HETATM    4  C   UNL     1     -12.415  13.907  69.777  1.00  0.00    -0.240 C  
ENDROOT
BRANCH   1   5
HETATM    5  C   UNL     1     -11.555  11.478  69.599  1.00  0.00    -0.333 C  
HETATM    6  H   UNL     1     -10.616   9.746  69.450  1.00  0.00     0.000 HD 
HETATM    7  O   UNL     1     -10.415  10.665  69.323  1.00  0.00    -0.207 OA 
ENDBRANCH   1   5
BRANCH   1   8
HETATM    8  N   UNL     1     -10.752  13.235  67.980  1.00  0.00    -0.235 NA 
HETATM    9  C   UNL     1     -11.436  13.494  65.643  1.00  0.00    -0.330 C  
HETATM   10  C   UNL     1     -11.592  13.015  66.887  1.00  0.00    -0.366 C  
HETATM   11  C   UNL     1     -12.424  13.140  64.600  1.00  0.00    -0.373 C  
HETATM   12  C   UNL     1     -10.289  14.379  65.400  1.00  0.00    -0.378 C  
HETATM   13  C   UNL     1      -9.412  14.710  66.545  1.00  0.00    -0.319 A  
HETATM   14  O   UNL     1     -10.073  14.810  64.269  1.00  0.00     0.261 OA 
HETATM   15  O   UNL     1     -13.427  12.476  64.824  1.00  0.00    -0.645 OA 
HETATM   16  O   UNL     1     -12.133  13.608  63.368  1.00  0.00    -0.482 OA 
HETATM   17  C   UNL     1      -9.623  14.084  67.786  1.00  0.00    -0.216 A  
HETATM   18  C   UNL     1      -8.661  14.341  68.775  1.00  0.00    -0.096 A  
HETATM   19  C   UNL     1      -7.605  15.255  68.597  1.00  0.00    -0.129 A  
HETATM   20  C   UNL     1      -8.373  15.634  66.347  1.00  0.00    -0.215 A  
HETATM   21  C   UNL     1      -7.459  15.927  67.372  1.00  0.00    -0.217 A  
BRANCH  19  22
HETATM   22  O   UNL     1      -6.657  15.507  69.559  1.00  0.00    -0.150 OA 
HETATM   23  C   UNL     1      -6.131  14.381  70.261  1.00  0.00    -0.172 C  
ENDBRANCH  19  22
BRANCH  21  24
HETATM   24  C   UNL     1      -6.304  16.862  67.080  1.00  0.00    -0.229 C  
BRANCH  24  25
HETATM   25  C   UNL     1      -6.609  18.332  66.901  1.00  0.00    -0.208 A  
HETATM   26  C   UNL     1      -6.434  18.964  65.662  1.00  0.00    -0.266 A  
HETATM   27  C   UNL     1      -6.536  20.354  65.539  1.00  0.00    -0.254 A  
HETATM   28  F   UNL     1      -6.113  18.223  64.590  1.00  0.00    -0.207 F  
HETATM   29  C   UNL     1      -6.818  21.136  66.657  1.00  0.00    -0.226 A  
HETATM   30 CL   UNL     1      -6.274  21.125  64.021  1.00  0.00    -0.347 Cl 
HETATM   31  C   UNL     1      -7.035  20.521  67.890  1.00  0.00    -0.332 A  
HETATM   32  C   UNL     1      -6.943  19.128  68.008  1.00  0.00    -0.260 A  
ENDBRANCH  24  25
ENDBRANCH  21  24
ENDBRANCH   1   8
TORSDOF 5
ENDMDL
MODEL       21
REMARK 921   NORMALIZED FREE ENERGY PREDICTED BY IDOCK:   -6.38 KCAL/MOL
REMARK 922        TOTAL FREE ENERGY PREDICTED BY IDOCK:   -9.39 KCAL/MOL
REMARK 923 INTER-LIGAND FREE ENERGY PREDICTED BY IDOCK:   -8.14 KCAL/MOL
REMARK 924 INTRA-LIGAND FREE ENERGY PREDICTED BY IDOCK:   -1.25 KCAL/MOL
REMARK 927      BINDING AFFINITY PREDICTED BY RF-SCORE:    0.00 PKD
ROOT
HETATM    1  C   UNL     1     -10.582  12.063  68.689  1.00  0.00    -0.229 C  
HETATM    2  C   UNL     1     -11.814  14.032  69.809  1.00  0.00    -0.385 C  
HETATM    3  C   UNL     1     -12.115  11.737  70.704  1.00  0.00    -0.407 C  
HETATM    4  C   UNL     1     -11.866  12.547  69.423  1.00  0.00    -0.368 C  
ENDROOT
BRANCH   1   5
HETATM    5  C   UNL     1     -10.700  10.598  68.194  1.00  0.00    -0.225 C  
HETATM    6  H   UNL     1      -9.641   9.340  67.097  1.00  0.00     0.000 HD 
HETATM    7  O   UNL     1      -9.570  10.237  67.399  1.00  0.00    -0.154 OA 
ENDBRANCH   1   5
BRANCH   1   8
HETATM    8  N   UNL     1     -10.208  12.985  67.550  1.00  0.00    -0.219 NA 
HETATM    9  C   UNL     1     -11.061  14.455  65.786  1.00  0.00    -0.316 C  
HETATM   10  C   UNL     1     -11.162  13.411  66.625  1.00  0.00    -0.309 C  
HETATM   11  C   UNL     1     -12.173  14.750  64.857  1.00  0.00    -0.300 C  
HETATM   12  C   UNL     1      -9.841  15.270  65.870  1.00  0.00    -0.354 C  
HETATM   13  C   UNL     1      -8.833  14.909  66.890  1.00  0.00    -0.284 A  
HETATM   14  O   UNL     1      -9.676  16.210  65.095  1.00  0.00    -0.346 OA 
HETATM   15  O   UNL     1     -13.225  14.125  64.850  1.00  0.00    -0.579 OA 
HETATM   16  O   UNL     1     -11.938  15.771  64.005  1.00  0.00    -0.554 OA 
HETATM   17  C   UNL     1      -9.007  13.744  67.658  1.00  0.00    -0.194 A  
HETATM   18  C   UNL     1      -7.937  13.396  68.497  1.00  0.00    -0.107 A  
HETATM   19  C   UNL     1      -6.798  14.207  68.662  1.00  0.00    -0.101 A  
HETATM   20  C   UNL     1      -7.711  15.739  67.046  1.00  0.00    -0.267 A  
HETATM   21  C   UNL     1      -6.681  15.406  67.940  1.00  0.00    -0.177 A  
BRANCH  19  22
HETATM   22  O   UNL     1      -5.745  13.869  69.477  1.00  0.00    -0.086 OA 
HETATM   23  C   UNL     1      -5.986  13.872  70.884  1.00  0.00    -0.162 C  
ENDBRANCH  19  22
BRANCH  21  24
HETATM   24  C   UNL     1      -5.452  16.288  68.004  1.00  0.00    -0.119 C  
BRANCH  24  25
HETATM   25  C   UNL     1      -5.651  17.764  68.271  1.00  0.00    -0.158 A  
HETATM   26  C   UNL     1      -5.749  18.257  69.579  1.00  0.00    -0.235 A  
HETATM   27  C   UNL     1      -6.116  19.585  69.825  1.00  0.00    -0.288 A  
HETATM   28  F   UNL     1      -5.537  17.425  70.611  1.00  0.00    -0.234 F  
HETATM   29  C   UNL     1      -6.390  20.443  68.762  1.00  0.00    -0.338 A  
HETATM   30 CL   UNL     1      -6.279  20.170  71.438  1.00  0.00    -0.277 Cl 
HETATM   31  C   UNL     1      -6.257  19.980  67.453  1.00  0.00    -0.211 A  
HETATM   32  C   UNL     1      -5.879  18.653  67.209  1.00  0.00    -0.158 A  
ENDBRANCH  24  25
ENDBRANCH  21  24
ENDBRANCH   1   8
TORSDOF 5
ENDMDL
MODEL       22
REMARK 921   NORMALIZED FREE ENERGY PREDICTED BY IDOCK:   -6.31 KCAL/MOL
REMARK 922        TOTAL FREE ENERGY PREDICTED BY IDOCK:   -9.30 KCAL/MOL
REMARK 923 INTER-LIGAND FREE ENERGY PREDICTED BY IDOCK:   -8.76 KCAL/MOL
REMARK 924 INTRA-LIGAND FREE ENERGY PREDICTED BY IDOCK:   -0.54 KCAL/MOL
REMARK 927      BINDING AFFINITY PREDICTED BY RF-SCORE:    0.00 PKD
ROOT
HETATM    1  C   UNL     1     -10.301  11.540  66.057  1.00  0.00    -0.246 C  
HETATM    2  C   UNL     1     -12.500  12.647  65.289  1.00  0.00    -0.483 C  
HETATM    3  C   UNL     1     -10.921  11.762  63.591  1.00  0.00    -0.513 C  
HETATM    4  C   UNL     1     -11.014  12.408  64.981  1.00  0.00    -0.336 C  
ENDROOT
BRANCH   1   5
HETATM    5  C   UNL     1      -8.777  11.413  65.801  1.00  0.00    -0.062 C  
HETATM    6  H   UNL     1      -7.491   9.987  65.332  1.00  0.00     0.000 HD 
HETATM    7  O   UNL     1      -8.424  10.065  65.490  1.00  0.00    -0.136 OA 
ENDBRANCH   1   5
BRANCH   1   8
HETATM    8  N   UNL     1     -10.568  12.051  67.455  1.00  0.00    -0.217 NA 
HETATM    9  C   UNL     1     -11.476  13.895  68.786  1.00  0.00    -0.327 C  
HETATM   10  C   UNL     1     -10.905  13.386  67.683  1.00  0.00    -0.259 C  
HETATM   11  C   UNL     1     -11.748  15.348  68.858  1.00  0.00    -0.359 C  
HETATM   12  C   UNL     1     -11.829  12.954  69.858  1.00  0.00    -0.303 C  
HETATM   13  C   UNL     1     -11.568  11.516  69.634  1.00  0.00    -0.403 A  
HETATM   14  O   UNL     1     -12.313  13.373  70.908  1.00  0.00    -0.366 OA 
HETATM   15  O   UNL     1     -11.535  16.116  67.930  1.00  0.00    -0.248 OA 
HETATM   16  O   UNL     1     -12.251  15.768  70.038  1.00  0.00    -0.365 OA 
HETATM   17  C   UNL     1     -10.888  11.106  68.474  1.00  0.00    -0.203 A  
HETATM   18  C   UNL     1     -10.551   9.745  68.408  1.00  0.00    -0.264 A  
HETATM   19  C   UNL     1     -10.956   8.808  69.378  1.00  0.00    -0.030 A  
HETATM   20  C   UNL     1     -11.992  10.598  70.609  1.00  0.00    -0.466 A  
HETATM   21  C   UNL     1     -11.701   9.230  70.492  1.00  0.00    -0.225 A  
BRANCH  19  22
HETATM   22  O   UNL     1     -10.625   7.476  69.323  1.00  0.00    -0.223 OA 
HETATM   23  C   UNL     1      -9.475   7.125  68.553  1.00  0.00    -0.139 C  
ENDBRANCH  19  22
BRANCH  21  24
HETATM   24  C   UNL     1     -12.103   8.296  71.614  1.00  0.00    -0.346 C  
BRANCH  24  25
HETATM   25  C   UNL     1     -11.004   7.625  72.406  1.00  0.00    -0.353 A  
HETATM   26  C   UNL     1     -11.181   6.346  72.952  1.00  0.00    -0.186 A  
HETATM   27  C   UNL     1     -10.243   5.801  73.837  1.00  0.00    -0.250 A  
HETATM   28  F   UNL     1     -12.296   5.658  72.659  1.00  0.00    -0.317 F  
HETATM   29  C   UNL     1      -9.108   6.530  74.188  1.00  0.00    -0.185 A  
HETATM   30 CL   UNL     1     -10.493   4.248  74.538  1.00  0.00    -0.290 Cl 
HETATM   31  C   UNL     1      -8.896   7.787  73.622  1.00  0.00    -0.323 A  
HETATM   32  C   UNL     1      -9.831   8.326  72.729  1.00  0.00    -0.333 A  
ENDBRANCH  24  25
ENDBRANCH  21  24
ENDBRANCH   1   8
TORSDOF 5
ENDMDL
MODEL       23
REMARK 921   NORMALIZED FREE ENERGY PREDICTED BY IDOCK:   -6.28 KCAL/MOL
REMARK 922        TOTAL FREE ENERGY PREDICTED BY IDOCK:   -9.26 KCAL/MOL
REMARK 923 INTER-LIGAND FREE ENERGY PREDICTED BY IDOCK:   -8.52 KCAL/MOL
REMARK 924 INTRA-LIGAND FREE ENERGY PREDICTED BY IDOCK:   -0.74 KCAL/MOL
REMARK 927      BINDING AFFINITY PREDICTED BY RF-SCORE:    0.00 PKD
ROOT
HETATM    1  C   UNL     1      -9.452   8.681  67.745  1.00  0.00    -0.142 C  
HETATM    2  C   UNL     1      -7.716  10.331  68.700  1.00  0.00    -0.094 C  
HETATM    3  C   UNL     1      -6.959   8.138  67.820  1.00  0.00    -0.078 C  
HETATM    4  C   UNL     1      -8.118   8.859  68.525  1.00  0.00    -0.108 C  
ENDROOT
BRANCH   1   5
HETATM    5  C   UNL     1      -9.909   7.200  67.684  1.00  0.00    -0.147 C  
HETATM    6  H   UNL     1     -11.461   6.179  67.009  1.00  0.00     0.000 HD 
HETATM    7  O   UNL     1     -11.181   7.086  67.047  1.00  0.00    -0.328 OA 
ENDBRANCH   1   5
BRANCH   1   8
HETATM    8  N   UNL     1     -10.549   9.558  68.306  1.00  0.00    -0.222 NA 
HETATM    9  C   UNL     1     -11.785  10.194  70.322  1.00  0.00    -0.361 C  
HETATM   10  C   UNL     1     -11.071   9.332  69.581  1.00  0.00    -0.116 C  
HETATM   11  C   UNL     1     -12.274   9.773  71.654  1.00  0.00    -0.404 C  
HETATM   12  C   UNL     1     -12.013  11.534  69.765  1.00  0.00    -0.346 C  
HETATM   13  C   UNL     1     -11.412  11.853  68.452  1.00  0.00    -0.357 A  
HETATM   14  O   UNL     1     -12.698  12.348  70.382  1.00  0.00    -0.059 OA 
HETATM   15  O   UNL     1     -12.009   8.689  72.153  1.00  0.00    -0.343 OA 
HETATM   16  O   UNL     1     -13.046  10.685  72.282  1.00  0.00    -0.392 OA 
HETATM   17  C   UNL     1     -10.753  10.844  67.726  1.00  0.00    -0.235 A  
HETATM   18  C   UNL     1     -10.341  11.190  66.430  1.00  0.00    -0.300 A  
HETATM   19  C   UNL     1     -10.467  12.491  65.908  1.00  0.00    -0.265 A  
HETATM   20  C   UNL     1     -11.538  13.160  67.956  1.00  0.00    -0.371 A  
HETATM   21  C   UNL     1     -11.060  13.502  66.682  1.00  0.00    -0.309 A  
BRANCH  19  22
HETATM   22  O   UNL     1     -10.071  12.834  64.638  1.00  0.00    -0.293 OA 
HETATM   23  C   UNL     1     -10.589  12.051  63.563  1.00  0.00    -0.465 C  
ENDBRANCH  19  22
BRANCH  21  24
HETATM   24  C   UNL     1     -11.301  14.903  66.159  1.00  0.00    -0.307 C  
BRANCH  24  25
HETATM   25  C   UNL     1     -10.609  16.051  66.860  1.00  0.00    -0.300 A  
HETATM   26  C   UNL     1     -10.477  17.303  66.244  1.00  0.00    -0.268 A  
HETATM   27  C   UNL     1      -9.681  18.306  66.807  1.00  0.00    -0.322 A  
HETATM   28  F   UNL     1     -11.087  17.521  65.067  1.00  0.00    -0.398 F  
HETATM   29  C   UNL     1      -9.002  18.071  68.002  1.00  0.00    -0.274 A  
HETATM   30 CL   UNL     1      -9.489  19.825  66.019  1.00  0.00    -0.431 Cl 
HETATM   31  C   UNL     1      -9.154  16.845  68.649  1.00  0.00    -0.265 A  
HETATM   32  C   UNL     1      -9.961  15.846  68.088  1.00  0.00    -0.222 A  
ENDBRANCH  24  25
ENDBRANCH  21  24
ENDBRANCH   1   8
TORSDOF 5
ENDMDL
MODEL       24
REMARK 921   NORMALIZED FREE ENERGY PREDICTED BY IDOCK:   -6.27 KCAL/MOL
REMARK 922        TOTAL FREE ENERGY PREDICTED BY IDOCK:   -9.25 KCAL/MOL
REMARK 923 INTER-LIGAND FREE ENERGY PREDICTED BY IDOCK:   -8.80 KCAL/MOL
REMARK 924 INTRA-LIGAND FREE ENERGY PREDICTED BY IDOCK:   -0.45 KCAL/MOL
REMARK 927      BINDING AFFINITY PREDICTED BY RF-SCORE:    0.00 PKD
ROOT
HETATM    1  C   UNL     1     -10.789   7.580  71.187  1.00  0.00    -0.238 C  
HETATM    2  C   UNL     1      -8.428   7.891  72.174  1.00  0.00    -0.173 C  
HETATM    3  C   UNL     1     -10.291   7.212  73.664  1.00  0.00    -0.411 C  
HETATM    4  C   UNL     1      -9.938   8.027  72.410  1.00  0.00    -0.317 C  
ENDROOT
BRANCH   1   5
HETATM    5  C   UNL     1     -12.304   7.839  71.392  1.00  0.00    -0.323 C  
HETATM    6  H   UNL     1     -13.925   6.780  71.789  1.00  0.00     0.000 HD 
HETATM    7  O   UNL     1     -12.997   6.621  71.662  1.00  0.00    -0.300 OA 
ENDBRANCH   1   5
BRANCH   1   8
HETATM    8  N   UNL     1     -10.305   8.220  69.905  1.00  0.00    -0.213 NA 
HETATM    9  C   UNL     1      -9.591   7.816  67.598  1.00  0.00    -0.177 C  
HETATM   10  C   UNL     1      -9.753   7.451  68.879  1.00  0.00    -0.150 C  
HETATM   11  C   UNL     1      -8.967   6.869  66.647  1.00  0.00    -0.145 C  
HETATM   12  C   UNL     1     -10.082   9.145  67.208  1.00  0.00    -0.233 C  
HETATM   13  C   UNL     1     -10.750   9.969  68.239  1.00  0.00    -0.280 A  
HETATM   14  O   UNL     1      -9.919   9.547  66.058  1.00  0.00    -0.278 OA 
HETATM   15  O   UNL     1      -8.641   5.731  66.952  1.00  0.00    -0.111 OA 
HETATM   16  O   UNL     1      -8.781   7.362  65.404  1.00  0.00    -0.090 OA 
HETATM   17  C   UNL     1     -10.788   9.518  69.571  1.00  0.00    -0.222 A  
HETATM   18  C   UNL     1     -11.308  10.423  70.510  1.00  0.00    -0.424 A  
HETATM   19  C   UNL     1     -11.866  11.664  70.150  1.00  0.00    -0.344 A  
HETATM   20  C   UNL     1     -11.311  11.197  67.855  1.00  0.00    -0.378 A  
HETATM   21  C   UNL     1     -11.886  12.060  68.802  1.00  0.00    -0.358 A  
BRANCH  19  22
HETATM   22  O   UNL     1     -12.371  12.556  71.065  1.00  0.00    -0.351 OA 
HETATM   23  C   UNL     1     -13.358  12.066  71.972  1.00  0.00    -0.341 C  
ENDBRANCH  19  22
BRANCH  21  24
HETATM   24  C   UNL     1     -12.396  13.411  68.349  1.00  0.00     0.077 C  
BRANCH  24  25
HETATM   25  C   UNL     1     -11.832  13.990  67.071  1.00  0.00    -0.458 A  
HETATM   26  C   UNL     1     -10.674  14.781  67.082  1.00  0.00    -0.299 A  
HETATM   27  C   UNL     1     -10.257  15.467  65.936  1.00  0.00    -0.345 A  
HETATM   28  F   UNL     1      -9.987  14.919  68.227  1.00  0.00    -0.207 F  
HETATM   29  C   UNL     1     -10.993  15.371  64.757  1.00  0.00    -0.411 A  
HETATM   30 CL   UNL     1      -8.859  16.473  65.973  1.00  0.00    -0.327 Cl 
HETATM   31  C   UNL     1     -12.124  14.557  64.717  1.00  0.00    -0.454 A  
HETATM   32  C   UNL     1     -12.534  13.862  65.862  1.00  0.00    -0.519 A  
ENDBRANCH  24  25
ENDBRANCH  21  24
ENDBRANCH   1   8
TORSDOF 5
ENDMDL
MODEL       25
REMARK 921   NORMALIZED FREE ENERGY PREDICTED BY IDOCK:   -6.26 KCAL/MOL
REMARK 922        TOTAL FREE ENERGY PREDICTED BY IDOCK:   -9.23 KCAL/MOL
REMARK 923 INTER-LIGAND FREE ENERGY PREDICTED BY IDOCK:   -7.98 KCAL/MOL
REMARK 924 INTRA-LIGAND FREE ENERGY PREDICTED BY IDOCK:   -1.25 KCAL/MOL
REMARK 927      BINDING AFFINITY PREDICTED BY RF-SCORE:    0.00 PKD
ROOT
HETATM    1  C   UNL     1     -10.284  14.720  68.459  1.00  0.00    -0.232 C  
HETATM    2  C   UNL     1      -8.379  15.555  66.934  1.00  0.00    -0.290 C  
HETATM    3  C   UNL     1      -8.897  16.788  69.024  1.00  0.00    -0.181 C  
HETATM    4  C   UNL     1      -9.511  15.947  67.894  1.00  0.00    -0.213 C  
ENDROOT
BRANCH   1   5
HETATM    5  C   UNL     1     -11.501  15.134  69.326  1.00  0.00    -0.311 C  
HETATM    6  H   UNL     1     -13.108  14.274  70.090  1.00  0.00     0.000 HD 
HETATM    7  O   UNL     1     -12.362  14.021  69.558  1.00  0.00    -0.332 OA 
ENDBRANCH   1   5
BRANCH   1   8
HETATM    8  N   UNL     1     -10.707  13.772  67.359  1.00  0.00    -0.273 NA 
HETATM    9  C   UNL     1     -11.532  13.595  65.060  1.00  0.00    -0.338 C  
HETATM   10  C   UNL     1     -11.389  14.234  66.232  1.00  0.00    -0.346 C  
HETATM   11  C   UNL     1     -12.307  14.235  63.975  1.00  0.00    -0.244 C  
HETATM   12  C   UNL     1     -10.871  12.291  64.918  1.00  0.00    -0.302 C  
HETATM   13  C   UNL     1     -10.068  11.791  66.055  1.00  0.00    -0.263 A  
HETATM   14  O   UNL     1     -11.007  11.642  63.882  1.00  0.00    -0.353 OA 
HETATM   15  O   UNL     1     -12.782  15.360  64.063  1.00  0.00    -0.664 OA 
HETATM   16  O   UNL     1     -12.456  13.478  62.868  1.00  0.00    -0.601 OA 
HETATM   17  C   UNL     1     -10.057  12.507  67.266  1.00  0.00    -0.213 A  
HETATM   18  C   UNL     1      -9.391  11.891  68.337  1.00  0.00    -0.184 A  
HETATM   19  C   UNL     1      -8.675  10.687  68.203  1.00  0.00    -0.130 A  
HETATM   20  C   UNL     1      -9.351  10.595  65.895  1.00  0.00    -0.224 A  
HETATM   21  C   UNL     1      -8.636  10.029  66.962  1.00  0.00    -0.126 A  
BRANCH  19  22
HETATM   22  O   UNL     1      -8.026  10.076  69.248  1.00  0.00    -0.105 OA 
HETATM   23  C   UNL     1      -8.836   9.578  70.313  1.00  0.00    -0.243 C  
ENDBRANCH  19  22
BRANCH  21  24
HETATM   24  C   UNL     1      -7.955   8.692  66.762  1.00  0.00    -0.094 C  
BRANCH  24  25
HETATM   25  C   UNL     1      -8.811   7.446  66.803  1.00  0.00    -0.148 A  
HETATM   26  C   UNL     1      -8.406   6.266  66.163  1.00  0.00    -0.130 A  
HETATM   27  C   UNL     1      -9.274   5.175  66.042  1.00  0.00    -0.155 A  
HETATM   28  F   UNL     1      -7.182   6.207  65.614  1.00  0.00    -0.066 F  
HETATM   29  C   UNL     1     -10.564   5.247  66.563  1.00  0.00    -0.348 A  
HETATM   30 CL   UNL     1      -8.783   3.747  65.212  1.00  0.00    -0.114 Cl 
HETATM   31  C   UNL     1     -10.969   6.398  67.239  1.00  0.00    -0.474 A  
HETATM   32  C   UNL     1     -10.095   7.485  67.368  1.00  0.00    -0.282 A  
ENDBRANCH  24  25
ENDBRANCH  21  24
ENDBRANCH   1   8
TORSDOF 5
ENDMDL
MODEL       26
REMARK 921   NORMALIZED FREE ENERGY PREDICTED BY IDOCK:   -6.24 KCAL/MOL
REMARK 922        TOTAL FREE ENERGY PREDICTED BY IDOCK:   -9.21 KCAL/MOL
REMARK 923 INTER-LIGAND FREE ENERGY PREDICTED BY IDOCK:   -8.07 KCAL/MOL
REMARK 924 INTRA-LIGAND FREE ENERGY PREDICTED BY IDOCK:   -1.14 KCAL/MOL
REMARK 927      BINDING AFFINITY PREDICTED BY RF-SCORE:    0.00 PKD
ROOT
HETATM    1  C   UNL     1      -8.745   7.334  67.692  1.00  0.00    -0.125 C  
HETATM    2  C   UNL     1      -7.038   8.883  68.848  1.00  0.00    -0.066 C  
HETATM    3  C   UNL     1      -6.235   7.153  67.261  1.00  0.00    -0.045 C  
HETATM    4  C   UNL     1      -7.319   7.477  68.300  1.00  0.00    -0.096 C  
ENDROOT
BRANCH   1   5
HETATM    5  C   UNL     1      -9.059   5.879  67.258  1.00  0.00    -0.111 C  
HETATM    6  H   UNL     1      -9.477   4.915  65.583  1.00  0.00     0.000 HD 
HETATM    7  O   UNL     1      -9.284   5.806  65.850  1.00  0.00    -0.161 OA 
ENDBRANCH   1   5
BRANCH   1   8
HETATM    8  N   UNL     1      -9.808   7.853  68.633  1.00  0.00    -0.166 NA 
HETATM    9  C   UNL     1     -10.578   7.931  70.957  1.00  0.00    -0.232 C  
HETATM   10  C   UNL     1      -9.926   7.358  69.933  1.00  0.00    -0.188 C  
HETATM   11  C   UNL     1     -10.611   7.249  72.269  1.00  0.00    -0.224 C  
HETATM   12  C   UNL     1     -11.201   9.239  70.711  1.00  0.00    -0.288 C  
HETATM   13  C   UNL     1     -11.037   9.847  69.373  1.00  0.00    -0.237 A  
HETATM   14  O   UNL     1     -11.849   9.788  71.601  1.00  0.00    -0.389 OA 
HETATM   15  O   UNL     1     -10.016   6.204  72.496  1.00  0.00    -0.171 OA 
HETATM   16  O   UNL     1     -11.356   7.870  73.207  1.00  0.00    -0.312 OA 
HETATM   17  C   UNL     1     -10.405   9.117  68.351  1.00  0.00    -0.206 A  
HETATM   18  C   UNL     1     -10.421   9.705  67.077  1.00  0.00    -0.302 A  
HETATM   19  C   UNL     1     -10.931  10.995  66.834  1.00  0.00    -0.249 A  
HETATM   20  C   UNL     1     -11.543  11.139  69.158  1.00  0.00    -0.393 A  
HETATM   21  C   UNL     1     -11.490  11.737  67.888  1.00  0.00    -0.387 A  
BRANCH  19  22
HETATM   22  O   UNL     1     -10.955  11.573  65.589  1.00  0.00    -0.288 OA 
HETATM   23  C   UNL     1     -10.328  10.854  64.527  1.00  0.00    -0.348 C  
ENDBRANCH  19  22
BRANCH  21  24
HETATM   24  C   UNL     1     -12.129  13.094  67.690  1.00  0.00    -0.281 C  
BRANCH  24  25
HETATM   25  C   UNL     1     -11.503  14.282  68.386  1.00  0.00    -0.331 A  
HETATM   26  C   UNL     1     -11.849  14.615  69.703  1.00  0.00    -0.320 A  
HETATM   27  C   UNL     1     -11.415  15.813  70.283  1.00  0.00    -0.359 A  
HETATM   28  F   UNL     1     -12.651  13.792  70.397  1.00  0.00    -0.366 F  
HETATM   29  C   UNL     1     -10.625  16.698  69.552  1.00  0.00    -0.308 A  
HETATM   30 CL   UNL     1     -11.883  16.234  71.887  1.00  0.00    -0.576 Cl 
HETATM   31  C   UNL     1     -10.239  16.363  68.254  1.00  0.00    -0.255 A  
HETATM   32  C   UNL     1     -10.665  15.159  67.679  1.00  0.00    -0.285 A  
ENDBRANCH  24  25
ENDBRANCH  21  24
ENDBRANCH   1   8
TORSDOF 5
ENDMDL
MODEL       27
REMARK 921   NORMALIZED FREE ENERGY PREDICTED BY IDOCK:   -6.18 KCAL/MOL
REMARK 922        TOTAL FREE ENERGY PREDICTED BY IDOCK:   -9.13 KCAL/MOL
REMARK 923 INTER-LIGAND FREE ENERGY PREDICTED BY IDOCK:   -7.86 KCAL/MOL
REMARK 924 INTRA-LIGAND FREE ENERGY PREDICTED BY IDOCK:   -1.27 KCAL/MOL
REMARK 927      BINDING AFFINITY PREDICTED BY RF-SCORE:    0.00 PKD
ROOT
HETATM    1  C   UNL     1      -9.721   7.040  70.093  1.00  0.00    -0.175 C  
HETATM    2  C   UNL     1      -8.287   8.268  71.849  1.00  0.00    -0.206 C  
HETATM    3  C   UNL     1      -8.000   5.824  71.535  1.00  0.00    -0.113 C  
HETATM    4  C   UNL     1      -9.021   6.970  71.481  1.00  0.00    -0.139 C  
ENDROOT
BRANCH   1   5
HETATM    5  C   UNL     1     -10.561   5.772  69.791  1.00  0.00    -0.318 C  
HETATM    6  H   UNL     1     -11.653   5.067  68.301  1.00  0.00     0.000 HD 
HETATM    7  O   UNL     1     -11.139   5.843  68.487  1.00  0.00    -0.274 OA 
ENDBRANCH   1   5
BRANCH   1   8
HETATM    8  N   UNL     1     -10.565   8.287  69.954  1.00  0.00    -0.231 NA 
HETATM    9  C   UNL     1     -12.168   9.768  71.066  1.00  0.00    -0.436 C  
HETATM   10  C   UNL     1     -11.577   8.578  70.871  1.00  0.00    -0.263 C  
HETATM   11  C   UNL     1     -13.242   9.887  72.077  1.00  0.00    -0.456 C  
HETATM   12  C   UNL     1     -11.678  10.902  70.271  1.00  0.00    -0.347 C  
HETATM   13  C   UNL     1     -10.551  10.665  69.343  1.00  0.00    -0.270 A  
HETATM   14  O   UNL     1     -12.214  12.004  70.378  1.00  0.00    -0.334 OA 
HETATM   15  O   UNL     1     -13.587   8.964  72.801  1.00  0.00    -0.405 OA 
HETATM   16  O   UNL     1     -13.821  11.105  72.140  1.00  0.00    -0.016 OA 
HETATM   17  C   UNL     1     -10.066   9.359  69.158  1.00  0.00    -0.195 A  
HETATM   18  C   UNL     1      -9.098   9.199  68.155  1.00  0.00    -0.134 A  
HETATM   19  C   UNL     1      -8.548  10.282  67.442  1.00  0.00    -0.125 A  
HETATM   20  C   UNL     1     -10.011  11.761  68.652  1.00  0.00    -0.181 A  
HETATM   21  C   UNL     1      -8.995  11.589  67.698  1.00  0.00    -0.160 A  
BRANCH  19  22
HETATM   22  O   UNL     1      -7.605  10.132  66.455  1.00  0.00    -0.101 OA 
HETATM   23  C   UNL     1      -6.763   8.981  66.531  1.00  0.00    -0.075 C  
ENDBRANCH  19  22
BRANCH  21  24
HETATM   24  C   UNL     1      -8.510  12.792  66.917  1.00  0.00    -0.106 C  
BRANCH  24  25
HETATM   25  C   UNL     1      -9.542  13.644  66.214  1.00  0.00    -0.254 A  
HETATM   26  C   UNL     1     -10.427  13.088  65.280  1.00  0.00    -0.304 A  
HETATM   27  C   UNL     1     -11.253  13.900  64.495  1.00  0.00    -0.365 A  
HETATM   28  F   UNL     1     -10.441  11.757  65.103  1.00  0.00    -0.276 F  
HETATM   29  C   UNL     1     -11.208  15.286  64.634  1.00  0.00    -0.366 A  
HETATM   30 CL   UNL     1     -12.304  13.209  63.317  1.00  0.00    -0.512 Cl 
HETATM   31  C   UNL     1     -10.363  15.854  65.587  1.00  0.00    -0.413 A  
HETATM   32  C   UNL     1      -9.544  15.038  66.379  1.00  0.00    -0.314 A  
ENDBRANCH  24  25
ENDBRANCH  21  24
ENDBRANCH   1   8
TORSDOF 5
ENDMDL
MODEL       28
REMARK 921   NORMALIZED FREE ENERGY PREDICTED BY IDOCK:   -6.14 KCAL/MOL
REMARK 922        TOTAL FREE ENERGY PREDICTED BY IDOCK:   -9.08 KCAL/MOL
REMARK 923 INTER-LIGAND FREE ENERGY PREDICTED BY IDOCK:   -7.97 KCAL/MOL
REMARK 924 INTRA-LIGAND FREE ENERGY PREDICTED BY IDOCK:   -1.11 KCAL/MOL
REMARK 927      BINDING AFFINITY PREDICTED BY RF-SCORE:    0.00 PKD
ROOT
HETATM    1  C   UNL     1      -9.952  15.343  68.255  1.00  0.00    -0.214 C  
HETATM    2  C   UNL     1      -8.110  15.863  66.528  1.00  0.00    -0.270 C  
HETATM    3  C   UNL     1      -8.406  17.362  68.482  1.00  0.00    -0.271 C  
HETATM    4  C   UNL     1      -9.147  16.441  67.502  1.00  0.00    -0.196 C  
ENDROOT
BRANCH   1   5
HETATM    5  C   UNL     1     -11.079  15.937  69.139  1.00  0.00    -0.302 C  
HETATM    6  H   UNL     1     -11.607  15.909  71.044  1.00  0.00     0.000 HD 
HETATM    7  O   UNL     1     -10.917  15.544  70.502  1.00  0.00    -0.308 OA 
ENDBRANCH   1   5
BRANCH   1   8
HETATM    8  N   UNL     1     -10.507  14.305  67.306  1.00  0.00    -0.268 NA 
HETATM    9  C   UNL     1     -11.485  13.918  65.094  1.00  0.00    -0.324 C  
HETATM   10  C   UNL     1     -11.226  14.679  66.169  1.00  0.00    -0.341 C  
HETATM   11  C   UNL     1     -12.283  14.481  63.982  1.00  0.00    -0.229 C  
HETATM   12  C   UNL     1     -10.924  12.561  65.078  1.00  0.00    -0.294 C  
HETATM   13  C   UNL     1     -10.086  12.142  66.222  1.00  0.00    -0.247 A  
HETATM   14  O   UNL     1     -11.168  11.806  64.139  1.00  0.00    -0.339 OA 
HETATM   15  O   UNL     1     -12.674  15.640  63.957  1.00  0.00    -0.626 OA 
HETATM   16  O   UNL     1     -12.552  13.610  62.987  1.00  0.00    -0.729 OA 
HETATM   17  C   UNL     1      -9.950  12.993  67.333  1.00  0.00    -0.228 A  
HETATM   18  C   UNL     1      -9.261  12.461  68.434  1.00  0.00    -0.145 A  
HETATM   19  C   UNL     1      -8.637  11.199  68.410  1.00  0.00    -0.152 A  
HETATM   20  C   UNL     1      -9.463  10.884  66.172  1.00  0.00    -0.230 A  
HETATM   21  C   UNL     1      -8.722  10.397  67.260  1.00  0.00    -0.125 A  
BRANCH  19  22
HETATM   22  O   UNL     1      -7.966  10.671  69.486  1.00  0.00    -0.145 OA 
HETATM   23  C   UNL     1      -6.640  11.144  69.720  1.00  0.00    -0.138 C  
ENDBRANCH  19  22
BRANCH  21  24
HETATM   24  C   UNL     1      -8.146   8.999  67.188  1.00  0.00    -0.106 C  
BRANCH  24  25
HETATM   25  C   UNL     1      -9.107   7.832  67.238  1.00  0.00    -0.147 A  
HETATM   26  C   UNL     1      -9.923   7.612  68.356  1.00  0.00    -0.176 A  
HETATM   27  C   UNL     1     -10.673   6.437  68.483  1.00  0.00    -0.288 A  
HETATM   28  F   UNL     1      -9.940   8.522  69.343  1.00  0.00    -0.178 F  
HETATM   29  C   UNL     1     -10.620   5.463  67.488  1.00  0.00    -0.204 A  
HETATM   30 CL   UNL     1     -11.636   6.155  69.883  1.00  0.00    -0.396 Cl 
HETATM   31  C   UNL     1      -9.846   5.685  66.350  1.00  0.00    -0.184 A  
HETATM   32  C   UNL     1      -9.104   6.866  66.220  1.00  0.00    -0.170 A  
ENDBRANCH  24  25
ENDBRANCH  21  24
ENDBRANCH   1   8
TORSDOF 5
ENDMDL
MODEL       29
REMARK 921   NORMALIZED FREE ENERGY PREDICTED BY IDOCK:   -6.13 KCAL/MOL
REMARK 922        TOTAL FREE ENERGY PREDICTED BY IDOCK:   -9.06 KCAL/MOL
REMARK 923 INTER-LIGAND FREE ENERGY PREDICTED BY IDOCK:   -8.50 KCAL/MOL
REMARK 924 INTRA-LIGAND FREE ENERGY PREDICTED BY IDOCK:   -0.56 KCAL/MOL
REMARK 927      BINDING AFFINITY PREDICTED BY RF-SCORE:    0.00 PKD
ROOT
HETATM    1  C   UNL     1      -8.684  17.296  66.884  1.00  0.00    -0.240 C  
HETATM    2  C   UNL     1     -10.121  17.877  68.945  1.00  0.00    -0.349 C  
HETATM    3  C   UNL     1      -8.049  19.168  68.500  1.00  0.00    -0.394 C  
HETATM    4  C   UNL     1      -8.704  17.785  68.361  1.00  0.00    -0.292 C  
ENDROOT
BRANCH   1   5
HETATM    5  C   UNL     1      -7.243  17.088  66.349  1.00  0.00    -0.276 C  
HETATM    6  H   UNL     1      -6.052  17.918  65.008  1.00  0.00     0.000 HD 
HETATM    7  O   UNL     1      -6.934  18.045  65.336  1.00  0.00    -0.481 OA 
ENDBRANCH   1   5
BRANCH   1   8
HETATM    8  N   UNL     1      -9.510  16.043  66.699  1.00  0.00    -0.222 NA 
HETATM    9  C   UNL     1     -11.094  14.872  65.244  1.00  0.00    -0.382 C  
HETATM   10  C   UNL     1     -10.520  15.980  65.737  1.00  0.00    -0.374 C  
HETATM   11  C   UNL     1     -12.169  14.999  64.235  1.00  0.00    -0.293 C  
HETATM   12  C   UNL     1     -10.587  13.580  65.724  1.00  0.00    -0.283 C  
HETATM   13  C   UNL     1      -9.461  13.587  66.683  1.00  0.00    -0.271 A  
HETATM   14  O   UNL     1     -11.107  12.534  65.338  1.00  0.00    -0.287 OA 
HETATM   15  O   UNL     1     -12.528  16.072  63.770  1.00  0.00    -0.784 OA 
HETATM   16  O   UNL     1     -12.731  13.830  63.862  1.00  0.00    -0.673 OA 
HETATM   17  C   UNL     1      -8.994  14.810  67.196  1.00  0.00    -0.224 A  
HETATM   18  C   UNL     1      -8.025  14.722  68.208  1.00  0.00    -0.130 A  
HETATM   19  C   UNL     1      -7.459  13.501  68.621  1.00  0.00    -0.108 A  
HETATM   20  C   UNL     1      -8.903  12.359  67.072  1.00  0.00    -0.210 A  
HETATM   21  C   UNL     1      -7.888  12.297  68.039  1.00  0.00    -0.147 A  
BRANCH  19  22
HETATM   22  O   UNL     1      -6.515  13.407  69.615  1.00  0.00    -0.110 OA 
HETATM   23  C   UNL     1      -6.190  14.607  70.316  1.00  0.00    -0.173 C  
ENDBRANCH  19  22
BRANCH  21  24
HETATM   24  C   UNL     1      -7.384  10.941  68.487  1.00  0.00    -0.098 C  
BRANCH  24  25
HETATM   25  C   UNL     1      -8.407   9.889  68.852  1.00  0.00    -0.124 A  
HETATM   26  C   UNL     1      -8.981   9.066  67.874  1.00  0.00    -0.132 A  
HETATM   27  C   UNL     1     -10.056   8.223  68.178  1.00  0.00    -0.200 A  
HETATM   28  F   UNL     1      -8.521   9.128  66.614  1.00  0.00    -0.116 F  
HETATM   29  C   UNL     1     -10.574   8.191  69.471  1.00  0.00    -0.215 A  
HETATM   30 CL   UNL     1     -10.785   7.250  66.957  1.00  0.00    -0.425 Cl 
HETATM   31  C   UNL     1      -9.989   8.973  70.466  1.00  0.00    -0.263 A  
HETATM   32  C   UNL     1      -8.905   9.807  70.162  1.00  0.00    -0.226 A  
ENDBRANCH  24  25
ENDBRANCH  21  24
ENDBRANCH   1   8
TORSDOF 5
ENDMDL
MODEL       30
REMARK 921   NORMALIZED FREE ENERGY PREDICTED BY IDOCK:   -6.12 KCAL/MOL
REMARK 922        TOTAL FREE ENERGY PREDICTED BY IDOCK:   -9.05 KCAL/MOL
REMARK 923 INTER-LIGAND FREE ENERGY PREDICTED BY IDOCK:   -9.34 KCAL/MOL
REMARK 924 INTRA-LIGAND FREE ENERGY PREDICTED BY IDOCK:    0.29 KCAL/MOL
REMARK 927      BINDING AFFINITY PREDICTED BY RF-SCORE:    0.00 PKD
ROOT
HETATM    1  C   UNL     1     -10.547  12.259  64.009  1.00  0.00    -0.400 C  
HETATM    2  C   UNL     1      -8.278  11.086  64.356  1.00  0.00     0.344 C  
HETATM    3  C   UNL     1      -9.765  10.343  62.514  1.00  0.00    -0.136 C  
HETATM    4  C   UNL     1      -9.745  10.928  63.934  1.00  0.00    -0.352 C  
ENDROOT
BRANCH   1   5
HETATM    5  C   UNL     1     -12.054  12.061  63.702  1.00  0.00    -0.527 C  
HETATM    6  H   UNL     1     -13.597  13.181  63.182  1.00  0.00     0.000 HD 
HETATM    7  O   UNL     1     -12.674  13.303  63.370  1.00  0.00    -0.695 OA 
ENDBRANCH   1   5
BRANCH   1   8
HETATM    8  N   UNL     1     -10.358  12.952  65.339  1.00  0.00    -0.293 NA 
HETATM    9  C   UNL     1     -10.465  15.090  66.529  1.00  0.00    -0.285 C  
HETATM   10  C   UNL     1     -10.300  14.344  65.425  1.00  0.00    -0.378 C  
HETATM   11  C   UNL     1     -10.351  16.562  66.433  1.00  0.00    -0.311 C  
HETATM   12  C   UNL     1     -10.784  14.385  67.777  1.00  0.00    -0.248 C  
HETATM   13  C   UNL     1     -10.938  12.915  67.726  1.00  0.00    -0.269 A  
HETATM   14  O   UNL     1     -10.901  15.016  68.827  1.00  0.00    -0.233 OA 
HETATM   15  O   UNL     1     -10.174  17.154  65.377  1.00  0.00    -0.605 OA 
HETATM   16  O   UNL     1     -10.457  17.212  67.612  1.00  0.00    -0.335 OA 
HETATM   17  C   UNL     1     -10.659  12.229  66.530  1.00  0.00    -0.234 A  
HETATM   18  C   UNL     1     -10.687  10.828  66.606  1.00  0.00    -0.268 A  
HETATM   19  C   UNL     1     -11.077  10.131  67.765  1.00  0.00    -0.227 A  
HETATM   20  C   UNL     1     -11.340  12.242  68.890  1.00  0.00    -0.337 A  
HETATM   21  C   UNL     1     -11.425  10.841  68.926  1.00  0.00    -0.362 A  
BRANCH  19  22
HETATM   22  O   UNL     1     -11.101   8.760  67.847  1.00  0.00     0.031 OA 
HETATM   23  C   UNL     1     -10.400   8.037  66.835  1.00  0.00    -0.338 C  
ENDBRANCH  19  22
BRANCH  21  24
HETATM   24  C   UNL     1     -11.777  10.160  70.231  1.00  0.00    -0.361 C  
BRANCH  24  25
HETATM   25  C   UNL     1     -10.705   9.345  70.918  1.00  0.00    -0.393 A  
HETATM   26  C   UNL     1     -11.007   8.527  72.016  1.00  0.00    -0.340 A  
HETATM   27  C   UNL     1      -9.994   7.919  72.765  1.00  0.00    -0.283 A  
HETATM   28  F   UNL     1     -12.290   8.369  72.381  1.00  0.00    -0.364 F  
HETATM   29  C   UNL     1      -8.657   8.119  72.425  1.00  0.00    -0.245 A  
HETATM   30 CL   UNL     1     -10.374   6.953  74.140  1.00  0.00    -0.376 Cl 
HETATM   31  C   UNL     1      -8.340   8.896  71.311  1.00  0.00    -0.223 A  
HETATM   32  C   UNL     1      -9.357   9.495  70.556  1.00  0.00    -0.296 A  
ENDBRANCH  24  25
ENDBRANCH  21  24
ENDBRANCH   1   8
TORSDOF 5
ENDMDL
MODEL       31
REMARK 921   NORMALIZED FREE ENERGY PREDICTED BY IDOCK:   -6.11 KCAL/MOL
REMARK 922        TOTAL FREE ENERGY PREDICTED BY IDOCK:   -9.03 KCAL/MOL
REMARK 923 INTER-LIGAND FREE ENERGY PREDICTED BY IDOCK:   -8.04 KCAL/MOL
REMARK 924 INTRA-LIGAND FREE ENERGY PREDICTED BY IDOCK:   -0.99 KCAL/MOL
REMARK 927      BINDING AFFINITY PREDICTED BY RF-SCORE:    0.00 PKD
ROOT
HETATM    1  C   UNL     1     -10.742  11.849  64.284  1.00  0.00    -0.338 C  
HETATM    2  C   UNL     1     -12.845  13.025  65.201  1.00  0.00    -0.335 C  
HETATM    3  C   UNL     1     -12.955  11.867  63.010  1.00  0.00     0.179 C  
HETATM    4  C   UNL     1     -12.032  12.654  63.953  1.00  0.00    -0.558 C  
ENDROOT
BRANCH   1   5
HETATM    5  C   UNL     1      -9.868  11.590  63.029  1.00  0.00    -0.343 C  
HETATM    6  H   UNL     1      -9.013  10.045  62.140  1.00  0.00     0.000 HD 
HETATM    7  O   UNL     1      -9.548  10.204  62.909  1.00  0.00    -0.300 OA 
ENDBRANCH   1   5
BRANCH   1   8
HETATM    8  N   UNL     1      -9.932  12.514  65.373  1.00  0.00    -0.251 NA 
HETATM    9  C   UNL     1      -9.465  14.618  66.536  1.00  0.00    -0.319 C  
HETATM   10  C   UNL     1      -9.855  13.904  65.468  1.00  0.00    -0.185 C  
HETATM   11  C   UNL     1      -9.430  16.094  66.449  1.00  0.00    -0.295 C  
HETATM   12  C   UNL     1      -9.120  13.873  67.755  1.00  0.00    -0.191 C  
HETATM   13  C   UNL     1      -9.262  12.401  67.733  1.00  0.00    -0.193 A  
HETATM   14  O   UNL     1      -8.713  14.474  68.748  1.00  0.00    -0.174 OA 
HETATM   15  O   UNL     1      -9.803  16.716  65.464  1.00  0.00    -0.549 OA 
HETATM   16  O   UNL     1      -8.950  16.711  67.549  1.00  0.00    -0.199 OA 
HETATM   17  C   UNL     1      -9.599  11.753  66.532  1.00  0.00    -0.210 A  
HETATM   18  C   UNL     1      -9.569  10.350  66.562  1.00  0.00    -0.224 A  
HETATM   19  C   UNL     1      -9.331   9.614  67.738  1.00  0.00    -0.127 A  
HETATM   20  C   UNL     1      -9.031  11.688  68.921  1.00  0.00     0.074 A  
HETATM   21  C   UNL     1      -9.071  10.285  68.944  1.00  0.00    -0.168 A  
BRANCH  19  22
HETATM   22  O   UNL     1      -9.295   8.241  67.773  1.00  0.00    -0.137 OA 
HETATM   23  C   UNL     1     -10.346   7.547  67.101  1.00  0.00    -0.313 C  
ENDBRANCH  19  22
BRANCH  21  24
HETATM   24  C   UNL     1      -8.727   9.563  70.230  1.00  0.00    -0.270 C  
BRANCH  24  25
HETATM   25  C   UNL     1      -9.865   9.135  71.129  1.00  0.00    -0.371 A  
HETATM   26  C   UNL     1      -9.645   8.285  72.223  1.00  0.00    -0.285 A  
HETATM   27  C   UNL     1     -10.714   7.741  72.942  1.00  0.00    -0.385 A  
HETATM   28  F   UNL     1      -8.386   7.951  72.549  1.00  0.00    -0.123 F  
HETATM   29  C   UNL     1     -12.026   8.041  72.579  1.00  0.00    -0.384 A  
HETATM   30 CL   UNL     1     -10.434   6.662  74.255  1.00  0.00    -0.298 Cl 
HETATM   31  C   UNL     1     -12.262   8.917  71.519  1.00  0.00    -0.388 A  
HETATM   32  C   UNL     1     -11.190   9.469  70.807  1.00  0.00    -0.383 A  
ENDBRANCH  24  25
ENDBRANCH  21  24
ENDBRANCH   1   8
TORSDOF 5
ENDMDL
MODEL       32
REMARK 921   NORMALIZED FREE ENERGY PREDICTED BY IDOCK:   -6.10 KCAL/MOL
REMARK 922        TOTAL FREE ENERGY PREDICTED BY IDOCK:   -9.02 KCAL/MOL
REMARK 923 INTER-LIGAND FREE ENERGY PREDICTED BY IDOCK:   -7.99 KCAL/MOL
REMARK 924 INTRA-LIGAND FREE ENERGY PREDICTED BY IDOCK:   -1.03 KCAL/MOL
REMARK 927      BINDING AFFINITY PREDICTED BY RF-SCORE:    0.00 PKD
ROOT
HETATM    1  C   UNL     1      -9.610   6.917  69.909  1.00  0.00    -0.156 C  
HETATM    2  C   UNL     1      -7.871   8.658  70.682  1.00  0.00    -0.101 C  
HETATM    3  C   UNL     1      -7.534   6.265  71.245  1.00  0.00    -0.093 C  
HETATM    4  C   UNL     1      -8.599   7.347  71.012  1.00  0.00    -0.134 C  
ENDROOT
BRANCH   1   5
HETATM    5  C   UNL     1     -10.427   5.663  70.312  1.00  0.00    -0.293 C  
HETATM    6  H   UNL     1     -10.711   3.827  69.634  1.00  0.00     0.000 HD 
HETATM    7  O   UNL     1     -10.211   4.596  69.388  1.00  0.00    -0.184 OA 
ENDBRANCH   1   5
BRANCH   1   8
HETATM    8  N   UNL     1     -10.529   8.053  69.520  1.00  0.00    -0.225 NA 
HETATM    9  C   UNL     1     -11.868   9.932  70.341  1.00  0.00    -0.310 C  
HETATM   10  C   UNL     1     -11.283   8.732  70.479  1.00  0.00    -0.247 C  
HETATM   11  C   UNL     1     -12.647  10.493  71.467  1.00  0.00    -0.424 C  
HETATM   12  C   UNL     1     -11.666  10.638  69.069  1.00  0.00    -0.234 C  
HETATM   13  C   UNL     1     -10.808   9.999  68.048  1.00  0.00    -0.311 A  
HETATM   14  O   UNL     1     -12.217  11.720  68.873  1.00  0.00    -0.330 OA 
HETATM   15  O   UNL     1     -12.739   9.945  72.557  1.00  0.00    -0.196 OA 
HETATM   16  O   UNL     1     -13.257  11.666  71.199  1.00  0.00    -0.167 OA 
HETATM   17  C   UNL     1     -10.315   8.701  68.268  1.00  0.00    -0.207 A  
HETATM   18  C   UNL     1      -9.634   8.112  67.191  1.00  0.00    -0.227 A  
HETATM   19  C   UNL     1      -9.350   8.799  65.996  1.00  0.00    -0.232 A  
HETATM   20  C   UNL     1     -10.528  10.708  66.869  1.00  0.00    -0.304 A  
HETATM   21  C   UNL     1      -9.788  10.124  65.829  1.00  0.00    -0.331 A  
BRANCH  19  22
HETATM   22  O   UNL     1      -8.689   8.227  64.937  1.00  0.00    -0.105 OA 
HETATM   23  C   UNL     1      -7.323   7.868  65.142  1.00  0.00    -0.071 C  
ENDBRANCH  19  22
BRANCH  21  24
HETATM   24  C   UNL     1      -9.590  10.899  64.543  1.00  0.00    -0.312 C  
BRANCH  24  25
HETATM   25  C   UNL     1     -10.443  12.127  64.317  1.00  0.00    -0.373 A  
HETATM   26  C   UNL     1     -10.227  13.305  65.046  1.00  0.00    -0.297 A  
HETATM   27  C   UNL     1     -11.125  14.375  64.974  1.00  0.00    -0.380 A  
HETATM   28  F   UNL     1      -9.165  13.382  65.865  1.00  0.00    -0.155 F  
HETATM   29  C   UNL     1     -12.257  14.284  64.167  1.00  0.00    -0.410 A  
HETATM   30 CL   UNL     1     -10.874  15.800  65.909  1.00  0.00    -0.303 Cl 
HETATM   31  C   UNL     1     -12.467  13.136  63.403  1.00  0.00    -0.328 A  
HETATM   32  C   UNL     1     -11.560  12.070  63.469  1.00  0.00    -0.553 A  
ENDBRANCH  24  25
ENDBRANCH  21  24
ENDBRANCH   1   8
TORSDOF 5
ENDMDL
MODEL       33
REMARK 921   NORMALIZED FREE ENERGY PREDICTED BY IDOCK:   -6.03 KCAL/MOL
REMARK 922        TOTAL FREE ENERGY PREDICTED BY IDOCK:   -8.94 KCAL/MOL
REMARK 923 INTER-LIGAND FREE ENERGY PREDICTED BY IDOCK:   -8.06 KCAL/MOL
REMARK 924 INTRA-LIGAND FREE ENERGY PREDICTED BY IDOCK:   -0.88 KCAL/MOL
REMARK 927      BINDING AFFINITY PREDICTED BY RF-SCORE:    0.00 PKD
ROOT
HETATM    1  C   UNL     1      -9.202   6.833  70.416  1.00  0.00    -0.156 C  
HETATM    2  C   UNL     1     -10.844   6.444  68.466  1.00  0.00    -0.382 C  
HETATM    3  C   UNL     1      -9.998   4.499  69.754  1.00  0.00    -0.268 C  
HETATM    4  C   UNL     1      -9.637   5.903  69.246  1.00  0.00    -0.172 C  
ENDROOT
BRANCH   1   5
HETATM    5  C   UNL     1      -7.909   6.340  71.114  1.00  0.00    -0.111 C  
HETATM    6  H   UNL     1      -7.330   5.860  72.943  1.00  0.00     0.000 HD 
HETATM    7  O   UNL     1      -8.122   6.163  72.514  1.00  0.00    -0.104 OA 
ENDBRANCH   1   5
BRANCH   1   8
HETATM    8  N   UNL     1      -9.052   8.268  69.964  1.00  0.00    -0.149 NA 
HETATM    9  C   UNL     1      -8.149   9.751  68.237  1.00  0.00    -0.104 C  
HETATM   10  C   UNL     1      -8.155   8.616  68.952  1.00  0.00    -0.118 C  
HETATM   11  C   UNL     1      -7.105   9.956  67.209  1.00  0.00    -0.085 C  
HETATM   12  C   UNL     1      -9.219  10.722  68.505  1.00  0.00    -0.174 C  
HETATM   13  C   UNL     1     -10.243  10.368  69.511  1.00  0.00    -0.258 A  
HETATM   14  O   UNL     1      -9.235  11.799  67.910  1.00  0.00    -0.168 OA 
HETATM   15  O   UNL     1      -6.269   9.109  66.925  1.00  0.00    -0.060 OA 
HETATM   16  O   UNL     1      -7.142  11.161  66.602  1.00  0.00    -0.133 OA 
HETATM   17  C   UNL     1     -10.102   9.186  70.259  1.00  0.00    -0.206 A  
HETATM   18  C   UNL     1     -11.035   8.998  71.291  1.00  0.00    -0.384 A  
HETATM   19  C   UNL     1     -12.121   9.867  71.510  1.00  0.00    -0.410 A  
HETATM   20  C   UNL     1     -11.325  11.243  69.703  1.00  0.00    -0.359 A  
HETATM   21  C   UNL     1     -12.285  11.001  70.698  1.00  0.00    -0.481 A  
BRANCH  19  22
HETATM   22  O   UNL     1     -13.034   9.691  72.521  1.00  0.00    -0.331 OA 
HETATM   23  C   UNL     1     -14.063   8.726  72.306  1.00  0.00    -0.441 C  
ENDBRANCH  19  22
BRANCH  21  24
HETATM   24  C   UNL     1     -13.380  12.022  70.924  1.00  0.00     0.524 C  
BRANCH  24  25
HETATM   25  C   UNL     1     -12.975  13.413  71.360  1.00  0.00    -0.412 A  
HETATM   26  C   UNL     1     -12.345  14.296  70.473  1.00  0.00    -0.360 A  
HETATM   27  C   UNL     1     -11.805  15.507  70.920  1.00  0.00    -0.371 A  
HETATM   28  F   UNL     1     -12.215  13.947  69.183  1.00  0.00    -0.366 F  
HETATM   29  C   UNL     1     -11.890  15.855  72.267  1.00  0.00    -0.617 A  
HETATM   30 CL   UNL     1     -10.992  16.565  69.830  1.00  0.00    -0.336 Cl 
HETATM   31  C   UNL     1     -12.549  15.006  73.156  1.00  0.00    -0.578 A  
HETATM   32  C   UNL     1     -13.098  13.800  72.704  1.00  0.00    -0.489 A  
ENDBRANCH  24  25
ENDBRANCH  21  24
ENDBRANCH   1   8
TORSDOF 5
ENDMDL
MODEL       34
REMARK 921   NORMALIZED FREE ENERGY PREDICTED BY IDOCK:   -6.03 KCAL/MOL
REMARK 922        TOTAL FREE ENERGY PREDICTED BY IDOCK:   -8.93 KCAL/MOL
REMARK 923 INTER-LIGAND FREE ENERGY PREDICTED BY IDOCK:   -7.98 KCAL/MOL
REMARK 924 INTRA-LIGAND FREE ENERGY PREDICTED BY IDOCK:   -0.96 KCAL/MOL
REMARK 927      BINDING AFFINITY PREDICTED BY RF-SCORE:    0.00 PKD
ROOT
HETATM    1  C   UNL     1     -11.598  13.365  66.519  1.00  0.00    -0.357 C  
HETATM    2  C   UNL     1      -9.112  13.877  66.973  1.00  0.00    -0.259 C  
HETATM    3  C   UNL     1     -10.717  15.752  66.724  1.00  0.00    -0.293 C  
HETATM    4  C   UNL     1     -10.398  14.322  66.263  1.00  0.00    -0.297 C  
ENDROOT
BRANCH   1   5
HETATM    5  C   UNL     1     -12.853  13.757  65.697  1.00  0.00    -0.408 C  
HETATM    6  H   UNL     1     -13.297  14.152  63.812  1.00  0.00     0.000 HD 
HETATM    7  O   UNL     1     -12.529  13.913  64.316  1.00  0.00    -0.638 OA 
ENDBRANCH   1   5
BRANCH   1   8
HETATM    8  N   UNL     1     -11.225  11.921  66.271  1.00  0.00    -0.330 NA 
HETATM    9  C   UNL     1      -9.960  10.385  64.843  1.00  0.00    -0.409 C  
HETATM   10  C   UNL     1     -10.629  11.526  65.072  1.00  0.00    -0.297 C  
HETATM   11  C   UNL     1      -9.407  10.126  63.496  1.00  0.00    -0.290 C  
HETATM   12  C   UNL     1      -9.791   9.464  65.975  1.00  0.00    -0.296 C  
HETATM   13  C   UNL     1     -10.333   9.872  67.290  1.00  0.00    -0.303 A  
HETATM   14  O   UNL     1      -9.225   8.385  65.810  1.00  0.00    -0.182 OA 
HETATM   15  O   UNL     1      -9.471  10.933  62.578  1.00  0.00    -0.281 OA 
HETATM   16  O   UNL     1      -8.821   8.919  63.351  1.00  0.00    -0.106 OA 
HETATM   17  C   UNL     1     -11.089  11.053  67.393  1.00  0.00    -0.305 A  
HETATM   18  C   UNL     1     -11.689  11.290  68.640  1.00  0.00    -0.391 A  
HETATM   19  C   UNL     1     -11.469  10.472  69.764  1.00  0.00    -0.294 A  
HETATM   20  C   UNL     1     -10.090   9.047  68.400  1.00  0.00    -0.216 A  
HETATM   21  C   UNL     1     -10.646   9.338  69.656  1.00  0.00    -0.241 A  
BRANCH  19  22
HETATM   22  O   UNL     1     -12.057  10.696  70.985  1.00  0.00    -0.340 OA 
HETATM   23  C   UNL     1     -13.365  10.160  71.183  1.00  0.00    -0.295 C  
ENDBRANCH  19  22
BRANCH  21  24
HETATM   24  C   UNL     1     -10.427   8.368  70.797  1.00  0.00    -0.230 C  
BRANCH  24  25
HETATM   25  C   UNL     1      -9.046   7.777  70.971  1.00  0.00    -0.152 A  
HETATM   26  C   UNL     1      -8.758   6.471  70.550  1.00  0.00    -0.144 A  
HETATM   27  C   UNL     1      -7.543   5.859  70.875  1.00  0.00    -0.096 A  
HETATM   28  F   UNL     1      -9.688   5.784  69.868  1.00  0.00    -0.166 F  
HETATM   29  C   UNL     1      -6.593   6.546  71.627  1.00  0.00    -0.057 A  
HETATM   30 CL   UNL     1      -7.217   4.237  70.392  1.00  0.00    -0.041 Cl 
HETATM   31  C   UNL     1      -6.846   7.860  72.020  1.00  0.00    -0.066 A  
HETATM   32  C   UNL     1      -8.059   8.475  71.684  1.00  0.00    -0.195 A  
ENDBRANCH  24  25
ENDBRANCH  21  24
ENDBRANCH   1   8
TORSDOF 5
ENDMDL
MODEL       35
REMARK 921   NORMALIZED FREE ENERGY PREDICTED BY IDOCK:   -6.03 KCAL/MOL
REMARK 922        TOTAL FREE ENERGY PREDICTED BY IDOCK:   -8.93 KCAL/MOL
REMARK 923 INTER-LIGAND FREE ENERGY PREDICTED BY IDOCK:   -7.60 KCAL/MOL
REMARK 924 INTRA-LIGAND FREE ENERGY PREDICTED BY IDOCK:   -1.33 KCAL/MOL
REMARK 927      BINDING AFFINITY PREDICTED BY RF-SCORE:    0.00 PKD
ROOT
HETATM    1  C   UNL     1      -8.027   7.754  66.140  1.00  0.00    -0.105 C  
HETATM    2  C   UNL     1      -6.542   9.480  67.351  1.00  0.00    -0.070 C  
HETATM    3  C   UNL     1      -5.499   7.850  65.799  1.00  0.00    -0.029 C  
HETATM    4  C   UNL     1      -6.648   8.052  66.797  1.00  0.00    -0.056 C  
ENDROOT
BRANCH   1   5
HETATM    5  C   UNL     1      -8.165   6.274  65.699  1.00  0.00    -0.143 C  
HETATM    6  H   UNL     1      -8.196   5.253  64.007  1.00  0.00     0.000 HD 
HETATM    7  O   UNL     1      -8.112   6.159  64.278  1.00  0.00    -0.124 OA 
ENDBRANCH   1   5
BRANCH   1   8
HETATM    8  N   UNL     1      -9.174   8.154  67.041  1.00  0.00    -0.146 NA 
HETATM    9  C   UNL     1     -10.029   8.147  69.336  1.00  0.00    -0.188 C  
HETATM   10  C   UNL     1      -9.282   7.649  68.338  1.00  0.00    -0.140 C  
HETATM   11  C   UNL     1     -10.033   7.465  70.649  1.00  0.00    -0.186 C  
HETATM   12  C   UNL     1     -10.783   9.378  69.064  1.00  0.00    -0.187 C  
HETATM   13  C   UNL     1     -10.640  10.000  67.730  1.00  0.00    -0.311 A  
HETATM   14  O   UNL     1     -11.518   9.852  69.928  1.00  0.00    -0.236 OA 
HETATM   15  O   UNL     1      -9.335   6.492  70.901  1.00  0.00    -0.160 OA 
HETATM   16  O   UNL     1     -10.875   8.001  71.558  1.00  0.00    -0.225 OA 
HETATM   17  C   UNL     1      -9.896   9.344  66.733  1.00  0.00    -0.218 A  
HETATM   18  C   UNL     1      -9.932   9.926  65.457  1.00  0.00    -0.363 A  
HETATM   19  C   UNL     1     -10.572  11.152  65.191  1.00  0.00    -0.253 A  
HETATM   20  C   UNL     1     -11.277  11.228  67.491  1.00  0.00    -0.357 A  
HETATM   21  C   UNL     1     -11.245  11.828  66.222  1.00  0.00    -0.370 A  
BRANCH  19  22
HETATM   22  O   UNL     1     -10.615  11.724  63.943  1.00  0.00    -0.316 OA 
HETATM   23  C   UNL     1      -9.541  11.421  63.053  1.00  0.00    -0.376 C  
ENDBRANCH  19  22
BRANCH  21  24
HETATM   24  C   UNL     1     -12.023  13.107  65.996  1.00  0.00    -0.488 C  
BRANCH  24  25
HETATM   25  C   UNL     1     -11.516  14.371  66.652  1.00  0.00    -0.372 A  
HETATM   26  C   UNL     1     -10.446  15.093  66.106  1.00  0.00    -0.312 A  
HETATM   27  C   UNL     1      -9.857  16.153  66.805  1.00  0.00    -0.245 A  
HETATM   28  F   UNL     1      -9.949  14.724  64.914  1.00  0.00    -0.387 F  
HETATM   29  C   UNL     1     -10.333  16.509  68.065  1.00  0.00    -0.294 A  
HETATM   30 CL   UNL     1      -8.512  17.003  66.145  1.00  0.00    -0.296 Cl 
HETATM   31  C   UNL     1     -11.424  15.828  68.606  1.00  0.00    -0.389 A  
HETATM   32  C   UNL     1     -12.019  14.775  67.899  1.00  0.00    -0.260 A  
ENDBRANCH  24  25
ENDBRANCH  21  24
ENDBRANCH   1   8
TORSDOF 5
ENDMDL
MODEL       36
REMARK 921   NORMALIZED FREE ENERGY PREDICTED BY IDOCK:   -6.01 KCAL/MOL
REMARK 922        TOTAL FREE ENERGY PREDICTED BY IDOCK:   -8.90 KCAL/MOL
REMARK 923 INTER-LIGAND FREE ENERGY PREDICTED BY IDOCK:   -8.89 KCAL/MOL
REMARK 924 INTRA-LIGAND FREE ENERGY PREDICTED BY IDOCK:   -0.02 KCAL/MOL
REMARK 927      BINDING AFFINITY PREDICTED BY RF-SCORE:    0.00 PKD
ROOT
HETATM    1  C   UNL     1     -11.440  13.321  64.910  1.00  0.00    -0.318 C  
HETATM    2  C   UNL     1     -10.125  11.840  63.259  1.00  0.00    -0.448 C  
HETATM    3  C   UNL     1     -12.600  11.932  63.109  1.00  0.00    -0.329 C  
HETATM    4  C   UNL     1     -11.412  12.005  64.080  1.00  0.00    -0.484 C  
ENDROOT
BRANCH   1   5
HETATM    5  C   UNL     1     -12.686  13.414  65.829  1.00  0.00    -0.318 C  
HETATM    6  H   UNL     1     -14.360  14.463  65.915  1.00  0.00     0.000 HD 
HETATM    7  O   UNL     1     -13.596  14.405  65.352  1.00  0.00    -0.428 OA 
ENDBRANCH   1   5
BRANCH   1   8
HETATM    8  N   UNL     1     -10.170  13.506  65.709  1.00  0.00    -0.292 NA 
HETATM    9  C   UNL     1      -8.638  15.135  66.707  1.00  0.00    -0.297 C  
HETATM   10  C   UNL     1      -9.549  14.752  65.798  1.00  0.00    -0.254 C  
HETATM   11  C   UNL     1      -8.071  16.500  66.636  1.00  0.00    -0.278 C  
HETATM   12  C   UNL     1      -8.278  14.165  67.750  1.00  0.00    -0.169 C  
HETATM   13  C   UNL     1      -8.967  12.856  67.750  1.00  0.00    -0.191 A  
HETATM   14  O   UNL     1      -7.415  14.447  68.580  1.00  0.00    -0.113 OA 
HETATM   15  O   UNL     1      -8.437  17.336  65.822  1.00  0.00    -0.532 OA 
HETATM   16  O   UNL     1      -7.108  16.757  67.547  1.00  0.00    -0.133 OA 
HETATM   17  C   UNL     1      -9.844  12.533  66.699  1.00  0.00    -0.241 A  
HETATM   18  C   UNL     1     -10.341  11.221  66.697  1.00  0.00    -0.279 A  
HETATM   19  C   UNL     1     -10.084  10.302  67.732  1.00  0.00    -0.180 A  
HETATM   20  C   UNL     1      -8.705  11.961  68.799  1.00  0.00     0.056 A  
HETATM   21  C   UNL     1      -9.266  10.674  68.811  1.00  0.00    -0.182 A  
BRANCH  19  22
HETATM   22  O   UNL     1     -10.563   9.015  67.732  1.00  0.00    -0.246 OA 
HETATM   23  C   UNL     1     -10.264   8.210  66.592  1.00  0.00    -0.259 C  
ENDBRANCH  19  22
BRANCH  21  24
HETATM   24  C   UNL     1      -8.880   9.716  69.919  1.00  0.00    -0.240 C  
BRANCH  24  25
HETATM   25  C   UNL     1      -9.934   9.349  70.939  1.00  0.00    -0.353 A  
HETATM   26  C   UNL     1      -9.673   8.407  71.944  1.00  0.00    -0.261 A  
HETATM   27  C   UNL     1     -10.697   7.930  72.770  1.00  0.00    -0.371 A  
HETATM   28  F   UNL     1      -8.429   7.920  72.078  1.00  0.00    -0.116 F  
HETATM   29  C   UNL     1     -12.001   8.390  72.604  1.00  0.00    -0.346 A  
HETATM   30 CL   UNL     1     -10.375   6.738  73.972  1.00  0.00    -0.399 Cl 
HETATM   31  C   UNL     1     -12.271   9.357  71.636  1.00  0.00    -0.467 A  
HETATM   32  C   UNL     1     -11.242   9.842  70.817  1.00  0.00    -0.419 A  
ENDBRANCH  24  25
ENDBRANCH  21  24
ENDBRANCH   1   8
TORSDOF 5
ENDMDL
MODEL       37
REMARK 921   NORMALIZED FREE ENERGY PREDICTED BY IDOCK:   -6.01 KCAL/MOL
REMARK 922        TOTAL FREE ENERGY PREDICTED BY IDOCK:   -8.90 KCAL/MOL
REMARK 923 INTER-LIGAND FREE ENERGY PREDICTED BY IDOCK:   -7.69 KCAL/MOL
REMARK 924 INTRA-LIGAND FREE ENERGY PREDICTED BY IDOCK:   -1.21 KCAL/MOL
REMARK 927      BINDING AFFINITY PREDICTED BY RF-SCORE:    0.00 PKD
ROOT
HETATM    1  C   UNL     1      -9.713   7.486  71.446  1.00  0.00    -0.166 C  
HETATM    2  C   UNL     1     -11.834   6.342  70.528  1.00  0.00    -0.316 C  
HETATM    3  C   UNL     1     -11.112   5.883  72.857  1.00  0.00    -0.306 C  
HETATM    4  C   UNL     1     -10.608   6.213  71.444  1.00  0.00    -0.294 C  
ENDROOT
BRANCH   1   5
HETATM    5  C   UNL     1      -8.416   7.295  72.274  1.00  0.00    -0.115 C  
HETATM    6  H   UNL     1      -7.087   8.439  73.187  1.00  0.00     0.000 HD 
HETATM    7  O   UNL     1      -7.882   8.555  72.679  1.00  0.00    -0.289 OA 
ENDBRANCH   1   5
BRANCH   1   8
HETATM    8  N   UNL     1      -9.388   7.943  70.041  1.00  0.00    -0.157 NA 
HETATM    9  C   UNL     1      -8.736   7.229  67.791  1.00  0.00    -0.126 C  
HETATM   10  C   UNL     1      -8.781   7.083  69.125  1.00  0.00    -0.132 C  
HETATM   11  C   UNL     1      -8.029   6.219  66.974  1.00  0.00    -0.109 C  
HETATM   12  C   UNL     1      -9.431   8.389  67.217  1.00  0.00    -0.154 C  
HETATM   13  C   UNL     1     -10.160   9.288  68.137  1.00  0.00    -0.222 A  
HETATM   14  O   UNL     1      -9.383   8.596  66.005  1.00  0.00    -0.212 OA 
HETATM   15  O   UNL     1      -7.527   5.207  67.445  1.00  0.00    -0.081 OA 
HETATM   16  O   UNL     1      -7.975   6.500  65.655  1.00  0.00    -0.101 OA 
HETATM   17  C   UNL     1     -10.069   9.084  69.525  1.00  0.00    -0.197 A  
HETATM   18  C   UNL     1     -10.667  10.066  70.330  1.00  0.00    -0.369 A  
HETATM   19  C   UNL     1     -11.415  11.136  69.805  1.00  0.00    -0.312 A  
HETATM   20  C   UNL     1     -10.909  10.342  67.590  1.00  0.00    -0.361 A  
HETATM   21  C   UNL     1     -11.556  11.276  68.414  1.00  0.00    -0.378 A  
BRANCH  19  22
HETATM   22  O   UNL     1     -11.998  12.103  70.587  1.00  0.00    -0.322 OA 
HETATM   23  C   UNL     1     -12.934  11.664  71.571  1.00  0.00    -0.358 C  
ENDBRANCH  19  22
BRANCH  21  24
HETATM   24  C   UNL     1     -12.277  12.444  67.774  1.00  0.00     0.183 C  
BRANCH  24  25
HETATM   25  C   UNL     1     -11.440  13.552  67.175  1.00  0.00    -0.368 A  
HETATM   26  C   UNL     1     -11.914  14.322  66.104  1.00  0.00    -0.407 A  
HETATM   27  C   UNL     1     -11.077  15.218  65.430  1.00  0.00    -0.347 A  
HETATM   28  F   UNL     1     -13.180  14.155  65.689  1.00  0.00    -0.568 F  
HETATM   29  C   UNL     1      -9.747  15.360  65.821  1.00  0.00    -0.385 A  
HETATM   30 CL   UNL     1     -11.657  16.125  64.086  1.00  0.00    -0.210 Cl 
HETATM   31  C   UNL     1      -9.269  14.632  66.911  1.00  0.00    -0.267 A  
HETATM   32  C   UNL     1     -10.113  13.744  67.591  1.00  0.00    -0.242 A  
ENDBRANCH  24  25
ENDBRANCH  21  24
ENDBRANCH   1   8
TORSDOF 5
ENDMDL
MODEL       38
REMARK 921   NORMALIZED FREE ENERGY PREDICTED BY IDOCK:   -5.96 KCAL/MOL
REMARK 922        TOTAL FREE ENERGY PREDICTED BY IDOCK:   -8.84 KCAL/MOL
REMARK 923 INTER-LIGAND FREE ENERGY PREDICTED BY IDOCK:   -7.59 KCAL/MOL
REMARK 924 INTRA-LIGAND FREE ENERGY PREDICTED BY IDOCK:   -1.25 KCAL/MOL
REMARK 927      BINDING AFFINITY PREDICTED BY RF-SCORE:    0.00 PKD
ROOT
HETATM    1  C   UNL     1      -9.751   7.550  71.174  1.00  0.00    -0.162 C  
HETATM    2  C   UNL     1     -11.426   6.228  69.726  1.00  0.00    -0.449 C  
HETATM    3  C   UNL     1     -11.032   5.534  72.075  1.00  0.00    -0.276 C  
HETATM    4  C   UNL     1     -10.371   6.162  70.839  1.00  0.00    -0.267 C  
ENDROOT
BRANCH   1   5
HETATM    5  C   UNL     1      -8.600   7.450  72.208  1.00  0.00    -0.116 C  
HETATM    6  H   UNL     1      -7.799   8.586  73.613  1.00  0.00     0.000 HD 
HETATM    7  O   UNL     1      -8.504   8.647  72.979  1.00  0.00    -0.398 OA 
ENDBRANCH   1   5
BRANCH   1   8
HETATM    8  N   UNL     1      -9.289   8.271  69.927  1.00  0.00    -0.158 NA 
HETATM    9  C   UNL     1      -8.274   8.017  67.713  1.00  0.00    -0.129 C  
HETATM   10  C   UNL     1      -8.482   7.635  68.983  1.00  0.00    -0.132 C  
HETATM   11  C   UNL     1      -7.367   7.223  66.855  1.00  0.00    -0.092 C  
HETATM   12  C   UNL     1      -8.998   9.204  67.240  1.00  0.00    -0.123 C  
HETATM   13  C   UNL     1      -9.929   9.870  68.177  1.00  0.00    -0.175 A  
HETATM   14  O   UNL     1      -8.810   9.625  66.100  1.00  0.00    -0.142 OA 
HETATM   15  O   UNL     1      -6.834   6.185  67.223  1.00  0.00    -0.059 OA 
HETATM   16  O   UNL     1      -7.166   7.736  65.623  1.00  0.00    -0.065 OA 
HETATM   17  C   UNL     1     -10.005   9.431  69.510  1.00  0.00    -0.191 A  
HETATM   18  C   UNL     1     -10.800  10.207  70.368  1.00  0.00    -0.365 A  
HETATM   19  C   UNL     1     -11.574  11.294  69.920  1.00  0.00    -0.334 A  
HETATM   20  C   UNL     1     -10.701  10.944  67.705  1.00  0.00    -0.288 A  
HETATM   21  C   UNL     1     -11.542  11.667  68.566  1.00  0.00    -0.379 A  
BRANCH  19  22
HETATM   22  O   UNL     1     -12.350  12.061  70.755  1.00  0.00    -0.375 OA 
HETATM   23  C   UNL     1     -13.117  11.372  71.742  1.00  0.00    -0.418 C  
ENDBRANCH  19  22
BRANCH  21  24
HETATM   24  C   UNL     1     -12.283  12.872  68.026  1.00  0.00    -0.020 C  
BRANCH  24  25
HETATM   25  C   UNL     1     -11.610  14.222  68.127  1.00  0.00    -0.365 A  
HETATM   26  C   UNL     1     -10.758  14.685  67.115  1.00  0.00    -0.292 A  
HETATM   27  C   UNL     1      -9.993  15.844  67.288  1.00  0.00    -0.240 A  
HETATM   28  F   UNL     1     -10.639  13.973  65.983  1.00  0.00    -0.280 F  
HETATM   29  C   UNL     1     -10.070  16.561  68.480  1.00  0.00    -0.255 A  
HETATM   30 CL   UNL     1      -8.914  16.379  66.056  1.00  0.00    -0.353 Cl 
HETATM   31  C   UNL     1     -10.943  16.138  69.482  1.00  0.00    -0.341 A  
HETATM   32  C   UNL     1     -11.716  14.983  69.302  1.00  0.00    -0.349 A  
ENDBRANCH  24  25
ENDBRANCH  21  24
ENDBRANCH   1   8
TORSDOF 5
ENDMDL
MODEL       39
REMARK 921   NORMALIZED FREE ENERGY PREDICTED BY IDOCK:   -5.89 KCAL/MOL
REMARK 922        TOTAL FREE ENERGY PREDICTED BY IDOCK:   -8.75 KCAL/MOL
REMARK 923 INTER-LIGAND FREE ENERGY PREDICTED BY IDOCK:   -8.33 KCAL/MOL
REMARK 924 INTRA-LIGAND FREE ENERGY PREDICTED BY IDOCK:   -0.42 KCAL/MOL
REMARK 927      BINDING AFFINITY PREDICTED BY RF-SCORE:    0.00 PKD
ROOT
HETATM    1  C   UNL     1     -10.069  15.150  67.261  1.00  0.00    -0.235 C  
HETATM    2  C   UNL     1      -7.988  15.668  68.692  1.00  0.00    -0.152 C  
HETATM    3  C   UNL     1      -8.107  16.514  66.362  1.00  0.00    -0.362 C  
HETATM    4  C   UNL     1      -8.528  15.362  67.288  1.00  0.00    -0.214 C  
ENDROOT
BRANCH   1   5
HETATM    5  C   UNL     1     -10.584  14.719  65.863  1.00  0.00    -0.314 C  
HETATM    6  H   UNL     1     -11.190  15.596  64.198  1.00  0.00     0.000 HD 
HETATM    7  O   UNL     1     -10.875  15.859  65.055  1.00  0.00    -0.428 OA 
ENDBRANCH   1   5
BRANCH   1   8
HETATM    8  N   UNL     1     -10.517  14.170  68.322  1.00  0.00    -0.243 NA 
HETATM    9  C   UNL     1     -12.094  13.764  70.151  1.00  0.00    -0.429 C  
HETATM   10  C   UNL     1     -11.369  14.565  69.355  1.00  0.00    -0.279 C  
HETATM   11  C   UNL     1     -12.934  14.362  71.212  1.00  0.00    -0.344 C  
HETATM   12  C   UNL     1     -12.031  12.319  69.891  1.00  0.00    -0.306 C  
HETATM   13  C   UNL     1     -11.207  11.853  68.755  1.00  0.00    -0.314 A  
HETATM   14  O   UNL     1     -12.640  11.536  70.618  1.00  0.00    -0.304 OA 
HETATM   15  O   UNL     1     -13.055  15.569  71.370  1.00  0.00    -0.453 OA 
HETATM   16  O   UNL     1     -13.561  13.467  72.004  1.00  0.00    -0.435 OA 
HETATM   17  C   UNL     1     -10.422  12.776  68.041  1.00  0.00    -0.226 A  
HETATM   18  C   UNL     1      -9.560  12.232  67.076  1.00  0.00    -0.208 A  
HETATM   19  C   UNL     1      -9.546  10.863  66.746  1.00  0.00    -0.183 A  
HETATM   20  C   UNL     1     -11.217  10.485  68.436  1.00  0.00    -0.339 A  
HETATM   21  C   UNL     1     -10.395   9.971  67.421  1.00  0.00    -0.292 A  
BRANCH  19  22
HETATM   22  O   UNL     1      -8.700  10.324  65.808  1.00  0.00    -0.145 OA 
HETATM   23  C   UNL     1      -9.031  10.540  64.436  1.00  0.00    -0.211 C  
ENDBRANCH  19  22
BRANCH  21  24
HETATM   24  C   UNL     1     -10.378   8.476  67.178  1.00  0.00    -0.377 C  
BRANCH  24  25
HETATM   25  C   UNL     1     -10.062   7.571  68.347  1.00  0.00    -0.200 A  
HETATM   26  C   UNL     1      -8.769   7.506  68.885  1.00  0.00    -0.132 A  
HETATM   27  C   UNL     1      -8.431   6.539  69.838  1.00  0.00    -0.135 A  
HETATM   28  F   UNL     1      -7.831   8.354  68.436  1.00  0.00    -0.104 F  
HETATM   29  C   UNL     1      -9.385   5.620  70.271  1.00  0.00    -0.186 A  
HETATM   30 CL   UNL     1      -6.827   6.438  70.459  1.00  0.00    -0.060 Cl 
HETATM   31  C   UNL     1     -10.687   5.696  69.777  1.00  0.00    -0.401 A  
HETATM   32  C   UNL     1     -11.026   6.672  68.830  1.00  0.00    -0.325 A  
ENDBRANCH  24  25
ENDBRANCH  21  24
ENDBRANCH   1   8
TORSDOF 5
ENDMDL
MODEL       40
REMARK 921   NORMALIZED FREE ENERGY PREDICTED BY IDOCK:   -5.88 KCAL/MOL
REMARK 922        TOTAL FREE ENERGY PREDICTED BY IDOCK:   -8.75 KCAL/MOL
REMARK 923 INTER-LIGAND FREE ENERGY PREDICTED BY IDOCK:   -8.15 KCAL/MOL
REMARK 924 INTRA-LIGAND FREE ENERGY PREDICTED BY IDOCK:   -0.59 KCAL/MOL
REMARK 927      BINDING AFFINITY PREDICTED BY RF-SCORE:    0.00 PKD
ROOT
HETATM    1  C   UNL     1     -10.154   7.355  71.015  1.00  0.00    -0.190 C  
HETATM    2  C   UNL     1      -8.824   8.217  73.048  1.00  0.00    -0.302 C  
HETATM    3  C   UNL     1     -10.769   6.720  73.410  1.00  0.00    -0.332 C  
HETATM    4  C   UNL     1     -10.201   7.819  72.499  1.00  0.00    -0.320 C  
ENDROOT
BRANCH   1   5
HETATM    5  C   UNL     1     -11.566   7.076  70.436  1.00  0.00    -0.295 C  
HETATM    6  H   UNL     1     -12.359   6.003  68.979  1.00  0.00     0.000 HD 
HETATM    7  O   UNL     1     -11.495   6.174  69.333  1.00  0.00    -0.423 OA 
ENDBRANCH   1   5
BRANCH   1   8
HETATM    8  N   UNL     1      -9.403   8.338  70.145  1.00  0.00    -0.158 NA 
HETATM    9  C   UNL     1      -7.831   8.588  68.284  1.00  0.00    -0.106 C  
HETATM   10  C   UNL     1      -8.355   7.920  69.323  1.00  0.00    -0.136 C  
HETATM   11  C   UNL     1      -6.704   7.993  67.532  1.00  0.00    -0.069 C  
HETATM   12  C   UNL     1      -8.444   9.877  67.934  1.00  0.00    -0.121 C  
HETATM   13  C   UNL     1      -9.611  10.329  68.722  1.00  0.00    -0.175 A  
HETATM   14  O   UNL     1      -7.975  10.552  67.018  1.00  0.00    -0.114 OA 
HETATM   15  O   UNL     1      -6.254   6.881  67.769  1.00  0.00    -0.037 OA 
HETATM   16  O   UNL     1      -6.202   8.779  66.557  1.00  0.00    -0.059 OA 
HETATM   17  C   UNL     1     -10.022   9.587  69.843  1.00  0.00    -0.230 A  
HETATM   18  C   UNL     1     -11.041  10.160  70.619  1.00  0.00    -0.397 A  
HETATM   19  C   UNL     1     -11.704  11.347  70.256  1.00  0.00    -0.306 A  
HETATM   20  C   UNL     1     -10.265  11.509  68.333  1.00  0.00    -0.211 A  
HETATM   21  C   UNL     1     -11.327  12.031  69.088  1.00  0.00    -0.338 A  
BRANCH  19  22
HETATM   22  O   UNL     1     -12.698  11.916  71.014  1.00  0.00    -0.342 OA 
HETATM   23  C   UNL     1     -13.260  11.116  72.053  1.00  0.00    -0.323 C  
ENDBRANCH  19  22
BRANCH  21  24
HETATM   24  C   UNL     1     -11.939  13.354  68.676  1.00  0.00    -0.362 C  
BRANCH  24  25
HETATM   25  C   UNL     1     -11.543  13.932  67.336  1.00  0.00    -0.398 A  
HETATM   26  C   UNL     1     -10.449  14.802  67.217  1.00  0.00    -0.264 A  
HETATM   27  C   UNL     1     -10.193  15.481  66.020  1.00  0.00    -0.330 A  
HETATM   28  F   UNL     1      -9.669  15.022  68.287  1.00  0.00    -0.200 F  
HETATM   29  C   UNL     1     -11.029  15.298  64.920  1.00  0.00    -0.445 A  
HETATM   30 CL   UNL     1      -8.875  16.582  65.898  1.00  0.00    -0.253 Cl 
HETATM   31  C   UNL     1     -12.097  14.406  65.009  1.00  0.00    -0.417 A  
HETATM   32  C   UNL     1     -12.345  13.719  66.204  1.00  0.00    -0.496 A  
ENDBRANCH  24  25
ENDBRANCH  21  24
ENDBRANCH   1   8
TORSDOF 5
ENDMDL
MODEL       41
REMARK 921   NORMALIZED FREE ENERGY PREDICTED BY IDOCK:   -5.86 KCAL/MOL
REMARK 922        TOTAL FREE ENERGY PREDICTED BY IDOCK:   -8.72 KCAL/MOL
REMARK 923 INTER-LIGAND FREE ENERGY PREDICTED BY IDOCK:   -8.28 KCAL/MOL
REMARK 924 INTRA-LIGAND FREE ENERGY PREDICTED BY IDOCK:   -0.44 KCAL/MOL
REMARK 927      BINDING AFFINITY PREDICTED BY RF-SCORE:    0.00 PKD
ROOT
HETATM    1  C   UNL     1     -11.616  14.541  66.659  1.00  0.00    -0.375 C  
HETATM    2  C   UNL     1      -9.558  15.877  67.453  1.00  0.00    -0.221 C  
HETATM    3  C   UNL     1     -10.459  16.264  65.173  1.00  0.00    -0.254 C  
HETATM    4  C   UNL     1     -10.264  15.203  66.267  1.00  0.00    -0.300 C  
ENDROOT
BRANCH   1   5
HETATM    5  C   UNL     1     -12.255  13.758  65.483  1.00  0.00    -0.442 C  
HETATM    6  H   UNL     1     -13.758  13.991  64.222  1.00  0.00     0.000 HD 
HETATM    7  O   UNL     1     -13.367  14.470  64.943  1.00  0.00    -0.250 OA 
ENDBRANCH   1   5
BRANCH   1   8
HETATM    8  N   UNL     1     -11.472  13.655  67.877  1.00  0.00    -0.295 NA 
HETATM    9  C   UNL     1     -12.239  13.237  70.165  1.00  0.00    -0.376 C  
HETATM   10  C   UNL     1     -12.002  14.034  69.111  1.00  0.00    -0.360 C  
HETATM   11  C   UNL     1     -12.793  13.820  71.406  1.00  0.00    -0.369 C  
HETATM   12  C   UNL     1     -11.957  11.804  70.002  1.00  0.00    -0.344 C  
HETATM   13  C   UNL     1     -11.470  11.336  68.687  1.00  0.00    -0.362 A  
HETATM   14  O   UNL     1     -12.113  11.036  70.950  1.00  0.00    -0.342 OA 
HETATM   15  O   UNL     1     -13.111  14.997  71.510  1.00  0.00    -0.320 OA 
HETATM   16  O   UNL     1     -12.920  12.949  72.429  1.00  0.00    -0.294 OA 
HETATM   17  C   UNL     1     -11.178  12.274  67.680  1.00  0.00    -0.290 A  
HETATM   18  C   UNL     1     -10.584  11.761  66.517  1.00  0.00    -0.289 A  
HETATM   19  C   UNL     1     -10.386  10.384  66.301  1.00  0.00    -0.203 A  
HETATM   20  C   UNL     1     -11.292   9.958  68.489  1.00  0.00    -0.049 A  
HETATM   21  C   UNL     1     -10.756   9.459  67.291  1.00  0.00    -0.258 A  
BRANCH  19  22
HETATM   22  O   UNL     1      -9.800   9.876  65.167  1.00  0.00    -0.306 OA 
HETATM   23  C   UNL     1      -8.614  10.523  64.704  1.00  0.00    -0.161 C  
ENDBRANCH  19  22
BRANCH  21  24
HETATM   24  C   UNL     1     -10.502   7.972  67.164  1.00  0.00    -0.408 C  
BRANCH  24  25
HETATM   25  C   UNL     1      -9.546   7.330  68.145  1.00  0.00    -0.145 A  
HETATM   26  C   UNL     1     -10.005   6.446  69.132  1.00  0.00    -0.149 A  
HETATM   27  C   UNL     1      -9.158   5.997  70.151  1.00  0.00    -0.147 A  
HETATM   28  F   UNL     1     -11.294   6.069  69.124  1.00  0.00    -0.428 F  
HETATM   29  C   UNL     1      -7.833   6.425  70.197  1.00  0.00    -0.107 A  
HETATM   30 CL   UNL     1      -9.744   4.949  71.385  1.00  0.00    -0.225 Cl 
HETATM   31  C   UNL     1      -7.348   7.272  69.200  1.00  0.00    -0.087 A  
HETATM   32  C   UNL     1      -8.196   7.711  68.175  1.00  0.00    -0.124 A  
ENDBRANCH  24  25
ENDBRANCH  21  24
ENDBRANCH   1   8
TORSDOF 5
ENDMDL
MODEL       42
REMARK 921   NORMALIZED FREE ENERGY PREDICTED BY IDOCK:   -5.85 KCAL/MOL
REMARK 922        TOTAL FREE ENERGY PREDICTED BY IDOCK:   -8.70 KCAL/MOL
REMARK 923 INTER-LIGAND FREE ENERGY PREDICTED BY IDOCK:   -7.78 KCAL/MOL
REMARK 924 INTRA-LIGAND FREE ENERGY PREDICTED BY IDOCK:   -0.92 KCAL/MOL
REMARK 927      BINDING AFFINITY PREDICTED BY RF-SCORE:    0.00 PKD
ROOT
HETATM    1  C   UNL     1     -10.795  11.854  64.204  1.00  0.00    -0.356 C  
HETATM    2  C   UNL     1     -12.902  13.035  65.105  1.00  0.00    -0.335 C  
HETATM    3  C   UNL     1     -12.972  11.951  62.874  1.00  0.00     0.456 C  
HETATM    4  C   UNL     1     -12.062  12.691  63.867  1.00  0.00    -0.567 C  
ENDROOT
BRANCH   1   5
HETATM    5  C   UNL     1      -9.892  11.621  62.965  1.00  0.00    -0.305 C  
HETATM    6  H   UNL     1      -9.145  10.083  61.973  1.00  0.00     0.000 HD 
HETATM    7  O   UNL     1      -9.697  10.226  62.732  1.00  0.00    -0.294 OA 
ENDBRANCH   1   5
BRANCH   1   8
HETATM    8  N   UNL     1     -10.003  12.470  65.336  1.00  0.00    -0.251 NA 
HETATM    9  C   UNL     1      -9.528  14.528  66.574  1.00  0.00    -0.310 C  
HETATM   10  C   UNL     1      -9.901  13.855  65.475  1.00  0.00    -0.185 C  
HETATM   11  C   UNL     1      -9.462  16.006  66.532  1.00  0.00    -0.271 C  
HETATM   12  C   UNL     1      -9.234  13.741  67.779  1.00  0.00    -0.206 C  
HETATM   13  C   UNL     1      -9.404  12.274  67.710  1.00  0.00    -0.194 A  
HETATM   14  O   UNL     1      -8.844  14.304  68.801  1.00  0.00    -0.168 OA 
HETATM   15  O   UNL     1      -9.792  16.664  65.556  1.00  0.00    -0.549 OA 
HETATM   16  O   UNL     1      -9.001  16.580  67.664  1.00  0.00    -0.196 OA 
HETATM   17  C   UNL     1      -9.720  11.668  66.481  1.00  0.00    -0.206 A  
HETATM   18  C   UNL     1      -9.719  10.265  66.469  1.00  0.00    -0.243 A  
HETATM   19  C   UNL     1      -9.529   9.490  67.629  1.00  0.00    -0.131 A  
HETATM   20  C   UNL     1      -9.223  11.522  68.882  1.00  0.00     0.005 A  
HETATM   21  C   UNL     1      -9.291  10.120  68.862  1.00  0.00    -0.179 A  
BRANCH  19  22
HETATM   22  O   UNL     1      -9.522   8.116  67.624  1.00  0.00    -0.141 OA 
HETATM   23  C   UNL     1     -10.651   7.463  67.045  1.00  0.00    -0.344 C  
ENDBRANCH  19  22
BRANCH  21  24
HETATM   24  C   UNL     1      -8.999   9.353  70.134  1.00  0.00    -0.256 C  
BRANCH  24  25
HETATM   25  C   UNL     1     -10.097   8.484  70.707  1.00  0.00    -0.237 A  
HETATM   26  C   UNL     1     -11.265   9.048  71.239  1.00  0.00    -0.315 A  
HETATM   27  C   UNL     1     -12.194   8.266  71.933  1.00  0.00    -0.337 A  
HETATM   28  F   UNL     1     -11.465  10.371  71.121  1.00  0.00    -0.401 F  
HETATM   29  C   UNL     1     -11.969   6.901  72.105  1.00  0.00    -0.302 A  
HETATM   30 CL   UNL     1     -13.604   8.977  72.622  1.00  0.00    -0.480 Cl 
HETATM   31  C   UNL     1     -10.832   6.317  71.548  1.00  0.00    -0.303 A  
HETATM   32  C   UNL     1      -9.909   7.100  70.844  1.00  0.00    -0.182 A  
ENDBRANCH  24  25
ENDBRANCH  21  24
ENDBRANCH   1   8
TORSDOF 5
ENDMDL
MODEL       43
REMARK 921   NORMALIZED FREE ENERGY PREDICTED BY IDOCK:   -5.84 KCAL/MOL
REMARK 922        TOTAL FREE ENERGY PREDICTED BY IDOCK:   -8.68 KCAL/MOL
REMARK 923 INTER-LIGAND FREE ENERGY PREDICTED BY IDOCK:   -8.15 KCAL/MOL
REMARK 924 INTRA-LIGAND FREE ENERGY PREDICTED BY IDOCK:   -0.54 KCAL/MOL
REMARK 927      BINDING AFFINITY PREDICTED BY RF-SCORE:    0.00 PKD
ROOT
HETATM    1  C   UNL     1     -10.064  13.677  67.382  1.00  0.00    -0.241 C  
HETATM    2  C   UNL     1     -12.277  13.010  66.239  1.00  0.00    -0.390 C  
HETATM    3  C   UNL     1     -10.606  14.342  64.978  1.00  0.00    -0.444 C  
HETATM    4  C   UNL     1     -11.182  14.078  66.377  1.00  0.00    -0.321 C  
ENDROOT
BRANCH   1   5
HETATM    5  C   UNL     1      -9.035  14.815  67.606  1.00  0.00    -0.182 C  
HETATM    6  H   UNL     1      -9.055  16.780  67.815  1.00  0.00     0.000 HD 
HETATM    7  O   UNL     1      -9.685  16.083  67.678  1.00  0.00    -0.222 OA 
ENDBRANCH   1   5
BRANCH   1   8
HETATM    8  N   UNL     1     -10.639  13.208  68.700  1.00  0.00    -0.252 NA 
HETATM    9  C   UNL     1     -12.405  13.551  70.362  1.00  0.00    -0.397 C  
HETATM   10  C   UNL     1     -11.585  13.972  69.387  1.00  0.00    -0.297 C  
HETATM   11  C   UNL     1     -13.337  14.512  70.992  1.00  0.00    -0.327 C  
HETATM   12  C   UNL     1     -12.343  12.129  70.727  1.00  0.00    -0.297 C  
HETATM   13  C   UNL     1     -11.416  11.257  69.974  1.00  0.00    -0.359 A  
HETATM   14  O   UNL     1     -13.041  11.699  71.645  1.00  0.00    -0.445 OA 
HETATM   15  O   UNL     1     -13.450  15.674  70.627  1.00  0.00    -0.476 OA 
HETATM   16  O   UNL     1     -14.061  14.006  72.013  1.00  0.00    -0.464 OA 
HETATM   17  C   UNL     1     -10.543  11.824  69.028  1.00  0.00    -0.136 A  
HETATM   18  C   UNL     1      -9.597  10.953  68.466  1.00  0.00    -0.187 A  
HETATM   19  C   UNL     1      -9.576   9.571  68.731  1.00  0.00    -0.157 A  
HETATM   20  C   UNL     1     -11.421   9.880  70.245  1.00  0.00    -0.349 A  
HETATM   21  C   UNL     1     -10.509   9.014  69.622  1.00  0.00    -0.227 A  
BRANCH  19  22
HETATM   22  O   UNL     1      -8.650   8.714  68.188  1.00  0.00    -0.138 OA 
HETATM   23  C   UNL     1      -8.217   8.986  66.856  1.00  0.00    -0.116 C  
ENDBRANCH  19  22
BRANCH  21  24
HETATM   24  C   UNL     1     -10.497   7.552  70.017  1.00  0.00    -0.231 C  
BRANCH  24  25
HETATM   25  C   UNL     1     -10.351   6.522  68.919  1.00  0.00    -0.225 A  
HETATM   26  C   UNL     1      -9.338   5.553  68.965  1.00  0.00    -0.121 A  
HETATM   27  C   UNL     1      -9.085   4.721  67.869  1.00  0.00    -0.116 A  
HETATM   28  F   UNL     1      -8.569   5.461  70.062  1.00  0.00    -0.111 F  
HETATM   29  C   UNL     1      -9.844   4.844  66.707  1.00  0.00    -0.220 A  
HETATM   30 CL   UNL     1      -7.809   3.565  67.918  1.00  0.00    -0.072 Cl 
HETATM   31  C   UNL     1     -10.882   5.775  66.660  1.00  0.00    -0.290 A  
HETATM   32  C   UNL     1     -11.141   6.600  67.762  1.00  0.00    -0.332 A  
ENDBRANCH  24  25
ENDBRANCH  21  24
ENDBRANCH   1   8
TORSDOF 5
ENDMDL
MODEL       44
REMARK 921   NORMALIZED FREE ENERGY PREDICTED BY IDOCK:   -5.83 KCAL/MOL
REMARK 922        TOTAL FREE ENERGY PREDICTED BY IDOCK:   -8.68 KCAL/MOL
REMARK 923 INTER-LIGAND FREE ENERGY PREDICTED BY IDOCK:   -7.56 KCAL/MOL
REMARK 924 INTRA-LIGAND FREE ENERGY PREDICTED BY IDOCK:   -1.11 KCAL/MOL
REMARK 927      BINDING AFFINITY PREDICTED BY RF-SCORE:    0.00 PKD
ROOT
HETATM    1  C   UNL     1      -8.088   8.519  65.076  1.00  0.00    -0.148 C  
HETATM    2  C   UNL     1      -6.771  10.390  66.265  1.00  0.00    -0.112 C  
HETATM    3  C   UNL     1      -5.800   9.303  64.258  1.00  0.00    -0.071 C  
HETATM    4  C   UNL     1      -6.692   9.069  65.486  1.00  0.00    -0.072 C  
ENDROOT
BRANCH   1   5
HETATM    5  C   UNL     1      -8.000   7.125  64.402  1.00  0.00    -0.101 C  
HETATM    6  H   UNL     1      -8.123   6.376  62.577  1.00  0.00     0.000 HD 
HETATM    7  O   UNL     1      -8.177   7.230  62.990  1.00  0.00    -0.078 OA 
ENDBRANCH   1   5
BRANCH   1   8
HETATM    8  N   UNL     1      -9.044   8.489  66.247  1.00  0.00    -0.173 NA 
HETATM    9  C   UNL     1      -9.408   7.674  68.528  1.00  0.00    -0.147 C  
HETATM   10  C   UNL     1      -8.859   7.597  67.306  1.00  0.00    -0.120 C  
HETATM   11  C   UNL     1      -9.110   6.622  69.525  1.00  0.00    -0.144 C  
HETATM   12  C   UNL     1     -10.261   8.836  68.811  1.00  0.00    -0.206 C  
HETATM   13  C   UNL     1     -10.425   9.854  67.751  1.00  0.00    -0.292 A  
HETATM   14  O   UNL     1     -10.825   8.934  69.900  1.00  0.00    -0.229 OA 
HETATM   15  O   UNL     1      -8.330   5.704  69.317  1.00  0.00    -0.104 OA 
HETATM   16  O   UNL     1      -9.772   6.752  70.694  1.00  0.00    -0.172 OA 
HETATM   17  C   UNL     1      -9.870   9.627  66.479  1.00  0.00    -0.235 A  
HETATM   18  C   UNL     1     -10.194  10.569  65.491  1.00  0.00    -0.325 A  
HETATM   19  C   UNL     1     -10.934  11.737  65.759  1.00  0.00    -0.301 A  
HETATM   20  C   UNL     1     -11.156  11.016  68.044  1.00  0.00    -0.343 A  
HETATM   21  C   UNL     1     -11.413  11.980  67.056  1.00  0.00    -0.402 A  
BRANCH  19  22
HETATM   22  O   UNL     1     -11.259  12.660  64.795  1.00  0.00    -0.286 OA 
HETATM   23  C   UNL     1     -10.771  12.420  63.475  1.00  0.00    -0.430 C  
ENDBRANCH  19  22
BRANCH  21  24
HETATM   24  C   UNL     1     -12.282  13.171  67.402  1.00  0.00    -0.195 C  
BRANCH  24  25
HETATM   25  C   UNL     1     -11.646  14.317  68.158  1.00  0.00    -0.365 A  
HETATM   26  C   UNL     1     -11.868  14.492  69.531  1.00  0.00    -0.329 A  
HETATM   27  C   UNL     1     -11.436  15.647  70.191  1.00  0.00    -0.348 A  
HETATM   28  F   UNL     1     -12.551  13.555  70.208  1.00  0.00    -0.354 F  
HETATM   29  C   UNL     1     -10.772  16.649  69.485  1.00  0.00    -0.306 A  
HETATM   30 CL   UNL     1     -11.754  15.873  71.869  1.00  0.00    -0.546 Cl 
HETATM   31  C   UNL     1     -10.508  16.473  68.127  1.00  0.00    -0.313 A  
HETATM   32  C   UNL     1     -10.931  15.310  67.471  1.00  0.00    -0.315 A  
ENDBRANCH  24  25
ENDBRANCH  21  24
ENDBRANCH   1   8
TORSDOF 5
ENDMDL
MODEL       45
REMARK 921   NORMALIZED FREE ENERGY PREDICTED BY IDOCK:   -5.81 KCAL/MOL
REMARK 922        TOTAL FREE ENERGY PREDICTED BY IDOCK:   -8.65 KCAL/MOL
REMARK 923 INTER-LIGAND FREE ENERGY PREDICTED BY IDOCK:   -8.06 KCAL/MOL
REMARK 924 INTRA-LIGAND FREE ENERGY PREDICTED BY IDOCK:   -0.59 KCAL/MOL
REMARK 927      BINDING AFFINITY PREDICTED BY RF-SCORE:    0.00 PKD
ROOT
HETATM    1  C   UNL     1      -9.508  10.255  66.842  1.00  0.00    -0.169 C  
HETATM    2  C   UNL     1      -7.578   9.763  65.205  1.00  0.00    -0.119 C  
HETATM    3  C   UNL     1      -7.900   8.301  67.184  1.00  0.00    -0.097 C  
HETATM    4  C   UNL     1      -8.050   9.740  66.666  1.00  0.00    -0.116 C  
ENDROOT
BRANCH   1   5
HETATM    5  C   UNL     1      -9.927  10.344  68.333  1.00  0.00    -0.162 C  
HETATM    6  H   UNL     1     -11.578  10.684  69.366  1.00  0.00     0.000 HD 
HETATM    7  O   UNL     1     -11.321  10.630  68.453  1.00  0.00    -0.272 OA 
ENDBRANCH   1   5
BRANCH   1   8
HETATM    8  N   UNL     1      -9.721  11.580  66.146  1.00  0.00    -0.215 NA 
HETATM    9  C   UNL     1     -11.188  12.861  64.661  1.00  0.00    -0.353 C  
HETATM   10  C   UNL     1     -10.667  11.716  65.128  1.00  0.00    -0.296 C  
HETATM   11  C   UNL     1     -12.174  12.814  63.559  1.00  0.00    -0.525 C  
HETATM   12  C   UNL     1     -10.760  14.109  65.308  1.00  0.00    -0.364 C  
HETATM   13  C   UNL     1      -9.820  14.016  66.446  1.00  0.00    -0.306 A  
HETATM   14  O   UNL     1     -11.172  15.190  64.890  1.00  0.00    -0.391 OA 
HETATM   15  O   UNL     1     -12.596  11.770  63.082  1.00  0.00    -0.514 OA 
HETATM   16  O   UNL     1     -12.576  14.023  63.112  1.00  0.00    -0.733 OA 
HETATM   17  C   UNL     1      -9.275  12.768  66.796  1.00  0.00    -0.225 A  
HETATM   18  C   UNL     1      -8.283  12.788  67.788  1.00  0.00    -0.176 A  
HETATM   19  C   UNL     1      -7.920  13.956  68.486  1.00  0.00    -0.137 A  
HETATM   20  C   UNL     1      -9.483  15.192  67.135  1.00  0.00    -0.224 A  
HETATM   21  C   UNL     1      -8.535  15.179  68.171  1.00  0.00    -0.152 A  
BRANCH  19  22
HETATM   22  O   UNL     1      -6.946  13.983  69.454  1.00  0.00    -0.110 OA 
HETATM   23  C   UNL     1      -5.971  12.942  69.422  1.00  0.00    -0.103 C  
ENDBRANCH  19  22
BRANCH  21  24
HETATM   24  C   UNL     1      -8.141  16.489  68.820  1.00  0.00    -0.244 C  
BRANCH  24  25
HETATM   25  C   UNL     1      -7.173  17.385  68.081  1.00  0.00    -0.199 A  
HETATM   26  C   UNL     1      -7.308  18.780  68.110  1.00  0.00    -0.259 A  
HETATM   27  C   UNL     1      -6.532  19.599  67.283  1.00  0.00    -0.194 A  
HETATM   28  F   UNL     1      -8.236  19.330  68.910  1.00  0.00    -0.373 F  
HETATM   29  C   UNL     1      -5.604  19.033  66.411  1.00  0.00    -0.174 A  
HETATM   30 CL   UNL     1      -6.739  21.309  67.293  1.00  0.00    -0.420 Cl 
HETATM   31  C   UNL     1      -5.427  17.649  66.399  1.00  0.00    -0.230 A  
HETATM   32  C   UNL     1      -6.198  16.832  67.236  1.00  0.00    -0.207 A  
ENDBRANCH  24  25
ENDBRANCH  21  24
ENDBRANCH   1   8
TORSDOF 5
ENDMDL
MODEL       46
REMARK 921   NORMALIZED FREE ENERGY PREDICTED BY IDOCK:   -5.75 KCAL/MOL
REMARK 922        TOTAL FREE ENERGY PREDICTED BY IDOCK:   -8.58 KCAL/MOL
REMARK 923 INTER-LIGAND FREE ENERGY PREDICTED BY IDOCK:   -7.46 KCAL/MOL
REMARK 924 INTRA-LIGAND FREE ENERGY PREDICTED BY IDOCK:   -1.12 KCAL/MOL
REMARK 927      BINDING AFFINITY PREDICTED BY RF-SCORE:    0.00 PKD
ROOT
HETATM    1  C   UNL     1      -9.144   9.803  66.111  1.00  0.00    -0.161 C  
HETATM    2  C   UNL     1      -6.866  10.293  65.008  1.00  0.00    -0.111 C  
HETATM    3  C   UNL     1      -8.104   8.235  64.386  1.00  0.00    -0.145 C  
HETATM    4  C   UNL     1      -7.824   9.215  65.535  1.00  0.00    -0.095 C  
ENDROOT
BRANCH   1   5
HETATM    5  C   UNL     1     -10.046   8.716  66.752  1.00  0.00    -0.296 C  
HETATM    6  H   UNL     1     -11.562   8.640  68.018  1.00  0.00     0.000 HD 
HETATM    7  O   UNL     1     -11.010   9.305  67.625  1.00  0.00    -0.204 OA 
ENDBRANCH   1   5
BRANCH   1   8
HETATM    8  N   UNL     1      -8.877  10.924  67.091  1.00  0.00    -0.135 NA 
HETATM    9  C   UNL     1      -7.374  11.758  68.835  1.00  0.00    -0.093 C  
HETATM   10  C   UNL     1      -7.943  10.776  68.118  1.00  0.00    -0.114 C  
HETATM   11  C   UNL     1      -6.411  11.411  69.903  1.00  0.00    -0.118 C  
HETATM   12  C   UNL     1      -7.727  13.140  68.485  1.00  0.00    -0.117 C  
HETATM   13  C   UNL     1      -8.651  13.356  67.350  1.00  0.00    -0.204 A  
HETATM   14  O   UNL     1      -7.270  14.076  69.139  1.00  0.00    -0.110 OA 
HETATM   15  O   UNL     1      -6.050  10.265  70.134  1.00  0.00    -0.064 OA 
HETATM   16  O   UNL     1      -5.957  12.464  70.614  1.00  0.00    -0.238 OA 
HETATM   17  C   UNL     1      -9.252  12.249  66.724  1.00  0.00    -0.210 A  
HETATM   18  C   UNL     1     -10.224  12.545  65.756  1.00  0.00    -0.289 A  
HETATM   19  C   UNL     1     -10.516  13.858  65.339  1.00  0.00    -0.345 A  
HETATM   20  C   UNL     1      -8.917  14.673  66.943  1.00  0.00    -0.275 A  
HETATM   21  C   UNL     1      -9.846  14.945  65.926  1.00  0.00    -0.362 A  
BRANCH  19  22
HETATM   22  O   UNL     1     -11.470  14.155  64.397  1.00  0.00    -0.377 OA 
HETATM   23  C   UNL     1     -12.075  13.055  63.718  1.00  0.00    -0.502 C  
ENDBRANCH  19  22
BRANCH  21  24
HETATM   24  C   UNL     1     -10.162  16.386  65.588  1.00  0.00    -0.349 C  
BRANCH  24  25
HETATM   25  C   UNL     1      -9.676  17.460  66.535  1.00  0.00    -0.302 A  
HETATM   26  C   UNL     1      -8.334  17.866  66.543  1.00  0.00    -0.262 A  
HETATM   27  C   UNL     1      -7.844  18.721  67.537  1.00  0.00    -0.233 A  
HETATM   28  F   UNL     1      -7.498  17.384  65.610  1.00  0.00    -0.293 F  
HETATM   29  C   UNL     1      -8.692  19.185  68.540  1.00  0.00    -0.401 A  
HETATM   30 CL   UNL     1      -6.183  19.177  67.565  1.00  0.00    -0.201 Cl 
HETATM   31  C   UNL     1     -10.039  18.824  68.524  1.00  0.00    -0.444 A  
HETATM   32  C   UNL     1     -10.530  17.977  67.521  1.00  0.00    -0.408 A  
ENDBRANCH  24  25
ENDBRANCH  21  24
ENDBRANCH   1   8
TORSDOF 5
ENDMDL
MODEL       47
REMARK 921   NORMALIZED FREE ENERGY PREDICTED BY IDOCK:   -5.75 KCAL/MOL
REMARK 922        TOTAL FREE ENERGY PREDICTED BY IDOCK:   -8.57 KCAL/MOL
REMARK 923 INTER-LIGAND FREE ENERGY PREDICTED BY IDOCK:   -7.92 KCAL/MOL
REMARK 924 INTRA-LIGAND FREE ENERGY PREDICTED BY IDOCK:   -0.65 KCAL/MOL
REMARK 927      BINDING AFFINITY PREDICTED BY RF-SCORE:    0.00 PKD
ROOT
HETATM    1  C   UNL     1     -10.590   8.615  68.635  1.00  0.00    -0.129 C  
HETATM    2  C   UNL     1      -9.421   8.256  66.364  1.00  0.00    -0.287 C  
HETATM    3  C   UNL     1     -10.982   6.527  67.219  1.00  0.00    -0.475 C  
HETATM    4  C   UNL     1      -9.962   7.596  67.641  1.00  0.00    -0.225 C  
ENDROOT
BRANCH   1   5
HETATM    5  C   UNL     1     -11.017   7.952  69.970  1.00  0.00    -0.207 C  
HETATM    6  H   UNL     1     -12.041   8.454  71.585  1.00  0.00     0.000 HD 
HETATM    7  O   UNL     1     -11.779   8.859  70.767  1.00  0.00    -0.280 OA 
ENDBRANCH   1   5
BRANCH   1   8
HETATM    8  N   UNL     1      -9.669   9.787  68.889  1.00  0.00    -0.165 NA 
HETATM    9  C   UNL     1      -7.404  10.468  69.523  1.00  0.00    -0.148 C  
HETATM   10  C   UNL     1      -8.438   9.613  69.524  1.00  0.00    -0.159 C  
HETATM   11  C   UNL     1      -6.175  10.121  70.270  1.00  0.00    -0.103 C  
HETATM   12  C   UNL     1      -7.550  11.702  68.738  1.00  0.00    -0.119 C  
HETATM   13  C   UNL     1      -8.804  11.898  67.980  1.00  0.00    -0.177 A  
HETATM   14  O   UNL     1      -6.651  12.540  68.738  1.00  0.00    -0.077 OA 
HETATM   15  O   UNL     1      -6.021   9.055  70.848  1.00  0.00    -0.036 OA 
HETATM   16  O   UNL     1      -5.226  11.081  70.268  1.00  0.00    -0.056 OA 
HETATM   17  C   UNL     1      -9.855  10.975  68.123  1.00  0.00    -0.176 A  
HETATM   18  C   UNL     1     -11.059  11.311  67.485  1.00  0.00    -0.346 A  
HETATM   19  C   UNL     1     -11.197  12.440  66.655  1.00  0.00    -0.315 A  
HETATM   20  C   UNL     1      -8.915  13.024  67.148  1.00  0.00    -0.223 A  
HETATM   21  C   UNL     1     -10.109  13.308  66.466  1.00  0.00    -0.275 A  
BRANCH  19  22
HETATM   22  O   UNL     1     -12.375  12.778  66.034  1.00  0.00    -0.547 OA 
HETATM   23  C   UNL     1     -12.511  12.413  64.661  1.00  0.00    -0.420 C  
ENDBRANCH  19  22
BRANCH  21  24
HETATM   24  C   UNL     1     -10.205  14.582  65.654  1.00  0.00    -0.379 C  
BRANCH  24  25
HETATM   25  C   UNL     1     -10.260  15.897  66.401  1.00  0.00    -0.311 A  
HETATM   26  C   UNL     1     -10.619  17.085  65.750  1.00  0.00    -0.211 A  
HETATM   27  C   UNL     1     -10.493  18.325  66.387  1.00  0.00    -0.366 A  
HETATM   28  F   UNL     1     -11.043  17.032  64.477  1.00  0.00    -0.397 F  
HETATM   29  C   UNL     1     -10.005  18.394  67.691  1.00  0.00    -0.355 A  
HETATM   30 CL   UNL     1     -10.893  19.784  65.563  1.00  0.00    -0.435 Cl 
HETATM   31  C   UNL     1      -9.681  17.218  68.367  1.00  0.00    -0.293 A  
HETATM   32  C   UNL     1      -9.819  15.977  67.731  1.00  0.00    -0.231 A  
ENDBRANCH  24  25
ENDBRANCH  21  24
ENDBRANCH   1   8
TORSDOF 5
ENDMDL
MODEL       48
REMARK 921   NORMALIZED FREE ENERGY PREDICTED BY IDOCK:   -5.74 KCAL/MOL
REMARK 922        TOTAL FREE ENERGY PREDICTED BY IDOCK:   -8.56 KCAL/MOL
REMARK 923 INTER-LIGAND FREE ENERGY PREDICTED BY IDOCK:   -7.87 KCAL/MOL
REMARK 924 INTRA-LIGAND FREE ENERGY PREDICTED BY IDOCK:   -0.69 KCAL/MOL
REMARK 927      BINDING AFFINITY PREDICTED BY RF-SCORE:    0.00 PKD
ROOT
HETATM    1  C   UNL     1      -9.419   7.480  68.834  1.00  0.00    -0.145 C  
HETATM    2  C   UNL     1      -7.836   8.889  70.303  1.00  0.00    -0.104 C  
HETATM    3  C   UNL     1      -7.206   6.562  69.718  1.00  0.00    -0.078 C  
HETATM    4  C   UNL     1      -8.396   7.490  70.006  1.00  0.00    -0.136 C  
ENDROOT
BRANCH   1   5
HETATM    5  C   UNL     1     -10.068   6.087  68.628  1.00  0.00    -0.168 C  
HETATM    6  H   UNL     1     -11.871   5.286  68.748  1.00  0.00     0.000 HD 
HETATM    7  O   UNL     1     -11.473   6.139  68.875  1.00  0.00    -0.305 OA 
ENDBRANCH   1   5
BRANCH   1   8
HETATM    8  N   UNL     1     -10.479   8.544  69.007  1.00  0.00    -0.218 NA 
HETATM    9  C   UNL     1     -11.890   9.738  70.613  1.00  0.00    -0.360 C  
HETATM   10  C   UNL     1     -11.183   8.673  70.205  1.00  0.00    -0.184 C  
HETATM   11  C   UNL     1     -12.591   9.688  71.916  1.00  0.00    -0.396 C  
HETATM   12  C   UNL     1     -11.897  10.917  69.737  1.00  0.00    -0.345 C  
HETATM   13  C   UNL     1     -11.100  10.864  68.493  1.00  0.00    -0.311 A  
HETATM   14  O   UNL     1     -12.566  11.904  70.041  1.00  0.00    -0.065 OA 
HETATM   15  O   UNL     1     -12.511   8.740  72.684  1.00  0.00    -0.361 OA 
HETATM   16  O   UNL     1     -13.335  10.779  72.195  1.00  0.00    -0.442 OA 
HETATM   17  C   UNL     1     -10.465   9.664  68.125  1.00  0.00    -0.222 A  
HETATM   18  C   UNL     1      -9.854   9.656  66.862  1.00  0.00    -0.257 A  
HETATM   19  C   UNL     1      -9.769  10.798  66.044  1.00  0.00    -0.217 A  
HETATM   20  C   UNL     1     -11.019  12.019  67.699  1.00  0.00    -0.287 A  
HETATM   21  C   UNL     1     -10.345  12.007  66.468  1.00  0.00    -0.240 A  
BRANCH  19  22
HETATM   22  O   UNL     1      -9.177  10.795  64.805  1.00  0.00    -0.199 OA 
HETATM   23  C   UNL     1      -8.037   9.952  64.633  1.00  0.00    -0.152 C  
ENDBRANCH  19  22
BRANCH  21  24
HETATM   24  C   UNL     1     -10.364  13.254  65.609  1.00  0.00    -0.292 C  
BRANCH  24  25
HETATM   25  C   UNL     1      -9.841  14.539  66.212  1.00  0.00    -0.322 A  
HETATM   26  C   UNL     1     -10.404  15.779  65.878  1.00  0.00    -0.354 A  
HETATM   27  C   UNL     1      -9.808  16.977  66.286  1.00  0.00    -0.294 A  
HETATM   28  F   UNL     1     -11.505  15.812  65.110  1.00  0.00    -0.283 F  
HETATM   29  C   UNL     1      -8.636  16.953  67.040  1.00  0.00    -0.229 A  
HETATM   30 CL   UNL     1     -10.482  18.496  65.832  1.00  0.00    -0.457 Cl 
HETATM   31  C   UNL     1      -8.085  15.728  67.415  1.00  0.00    -0.193 A  
HETATM   32  C   UNL     1      -8.689  14.530  67.014  1.00  0.00    -0.256 A  
ENDBRANCH  24  25
ENDBRANCH  21  24
ENDBRANCH   1   8
TORSDOF 5
ENDMDL
MODEL       49
REMARK 921   NORMALIZED FREE ENERGY PREDICTED BY IDOCK:   -5.72 KCAL/MOL
REMARK 922        TOTAL FREE ENERGY PREDICTED BY IDOCK:   -8.53 KCAL/MOL
REMARK 923 INTER-LIGAND FREE ENERGY PREDICTED BY IDOCK:   -7.21 KCAL/MOL
REMARK 924 INTRA-LIGAND FREE ENERGY PREDICTED BY IDOCK:   -1.32 KCAL/MOL
REMARK 927      BINDING AFFINITY PREDICTED BY RF-SCORE:    0.00 PKD
ROOT
HETATM    1  C   UNL     1      -9.119   7.215  68.342  1.00  0.00    -0.127 C  
HETATM    2  C   UNL     1     -11.120   6.277  67.013  1.00  0.00    -0.379 C  
HETATM    3  C   UNL     1     -10.093   4.901  68.805  1.00  0.00    -0.169 C  
HETATM    4  C   UNL     1      -9.800   5.957  67.729  1.00  0.00    -0.138 C  
ENDROOT
BRANCH   1   5
HETATM    5  C   UNL     1      -7.729   6.899  68.950  1.00  0.00    -0.110 C  
HETATM    6  H   UNL     1      -6.512   7.684  70.295  1.00  0.00     0.000 HD 
HETATM    7  O   UNL     1      -7.363   7.878  69.922  1.00  0.00    -0.071 OA 
ENDBRANCH   1   5
BRANCH   1   8
HETATM    8  N   UNL     1      -9.021   8.343  67.339  1.00  0.00    -0.133 NA 
HETATM    9  C   UNL     1      -8.714   8.916  64.978  1.00  0.00    -0.200 C  
HETATM   10  C   UNL     1      -8.551   8.117  66.044  1.00  0.00    -0.147 C  
HETATM   11  C   UNL     1      -8.128   8.521  63.678  1.00  0.00    -0.154 C  
HETATM   12  C   UNL     1      -9.504  10.141  65.168  1.00  0.00    -0.260 C  
HETATM   13  C   UNL     1     -10.093  10.388  66.502  1.00  0.00    -0.285 A  
HETATM   14  O   UNL     1      -9.646  10.931  64.236  1.00  0.00    -0.231 OA 
HETATM   15  O   UNL     1      -7.547   7.459  63.500  1.00  0.00    -0.107 OA 
HETATM   16  O   UNL     1      -8.282   9.430  62.692  1.00  0.00    -0.139 OA 
HETATM   17  C   UNL     1      -9.787   9.523  67.567  1.00  0.00    -0.167 A  
HETATM   18  C   UNL     1     -10.267   9.910  68.829  1.00  0.00    -0.205 A  
HETATM   19  C   UNL     1     -11.100  11.028  69.021  1.00  0.00    -0.244 A  
HETATM   20  C   UNL     1     -10.932  11.502  66.668  1.00  0.00    -0.349 A  
HETATM   21  C   UNL     1     -11.456  11.834  67.927  1.00  0.00    -0.387 A  
BRANCH  19  22
HETATM   22  O   UNL     1     -11.568  11.414  70.254  1.00  0.00    -0.307 OA 
HETATM   23  C   UNL     1     -12.400  10.488  70.952  1.00  0.00    -0.390 C  
ENDBRANCH  19  22
BRANCH  21  24
HETATM   24  C   UNL     1     -12.281  13.095  68.069  1.00  0.00    -0.091 C  
BRANCH  24  25
HETATM   25  C   UNL     1     -11.549  14.401  68.286  1.00  0.00    -0.359 A  
HETATM   26  C   UNL     1     -11.236  15.244  67.210  1.00  0.00    -0.306 A  
HETATM   27  C   UNL     1     -10.402  16.355  67.382  1.00  0.00    -0.295 A  
HETATM   28  F   UNL     1     -11.705  14.947  65.988  1.00  0.00    -0.350 F  
HETATM   29  C   UNL     1      -9.868  16.641  68.637  1.00  0.00    -0.252 A  
HETATM   30 CL   UNL     1      -9.986  17.358  66.045  1.00  0.00    -0.265 Cl 
HETATM   31  C   UNL     1     -10.202  15.836  69.726  1.00  0.00    -0.291 A  
HETATM   32  C   UNL     1     -11.046  14.731  69.554  1.00  0.00    -0.302 A  
ENDBRANCH  24  25
ENDBRANCH  21  24
ENDBRANCH   1   8
TORSDOF 5
ENDMDL
MODEL       50
REMARK 921   NORMALIZED FREE ENERGY PREDICTED BY IDOCK:   -5.71 KCAL/MOL
REMARK 922        TOTAL FREE ENERGY PREDICTED BY IDOCK:   -8.52 KCAL/MOL
REMARK 923 INTER-LIGAND FREE ENERGY PREDICTED BY IDOCK:   -7.92 KCAL/MOL
REMARK 924 INTRA-LIGAND FREE ENERGY PREDICTED BY IDOCK:   -0.60 KCAL/MOL
REMARK 927      BINDING AFFINITY PREDICTED BY RF-SCORE:    0.00 PKD
ROOT
HETATM    1  C   UNL     1     -10.104   7.414  71.202  1.00  0.00    -0.186 C  
HETATM    2  C   UNL     1      -8.679   8.266  73.175  1.00  0.00    -0.291 C  
HETATM    3  C   UNL     1     -10.657   6.839  73.627  1.00  0.00    -0.347 C  
HETATM    4  C   UNL     1     -10.086   7.904  72.679  1.00  0.00    -0.343 C  
ENDROOT
BRANCH   1   5
HETATM    5  C   UNL     1     -11.543   7.172  70.676  1.00  0.00    -0.314 C  
HETATM    6  H   UNL     1     -12.420   6.099  69.267  1.00  0.00     0.000 HD 
HETATM    7  O   UNL     1     -11.538   6.248  69.589  1.00  0.00    -0.430 OA 
ENDBRANCH   1   5
BRANCH   1   8
HETATM    8  N   UNL     1      -9.353   8.358  70.291  1.00  0.00    -0.162 NA 
HETATM    9  C   UNL     1      -7.787   8.526  68.415  1.00  0.00    -0.106 C  
HETATM   10  C   UNL     1      -8.310   7.903  69.483  1.00  0.00    -0.131 C  
HETATM   11  C   UNL     1      -6.666   7.897  67.684  1.00  0.00    -0.068 C  
HETATM   12  C   UNL     1      -8.396   9.803  68.016  1.00  0.00    -0.110 C  
HETATM   13  C   UNL     1      -9.557  10.292  68.790  1.00  0.00    -0.175 A  
HETATM   14  O   UNL     1      -7.928  10.438  67.073  1.00  0.00    -0.113 OA 
HETATM   15  O   UNL     1      -6.219   6.793  67.963  1.00  0.00    -0.030 OA 
HETATM   16  O   UNL     1      -6.164   8.641  66.676  1.00  0.00    -0.056 OA 
HETATM   17  C   UNL     1      -9.967   9.597  69.942  1.00  0.00    -0.241 A  
HETATM   18  C   UNL     1     -10.980  10.206  70.698  1.00  0.00    -0.357 A  
HETATM   19  C   UNL     1     -11.640  11.380  70.290  1.00  0.00    -0.243 A  
HETATM   20  C   UNL     1     -10.208  11.458  68.357  1.00  0.00    -0.206 A  
HETATM   21  C   UNL     1     -11.265  12.015  69.095  1.00  0.00    -0.305 A  
BRANCH  19  22
HETATM   22  O   UNL     1     -12.628  11.984  71.029  1.00  0.00    -0.364 OA 
HETATM   23  C   UNL     1     -13.298  11.178  71.998  1.00  0.00    -0.278 C  
ENDBRANCH  19  22
BRANCH  21  24
HETATM   24  C   UNL     1     -11.873  13.323  68.632  1.00  0.00    -0.380 C  
BRANCH  24  25
HETATM   25  C   UNL     1     -11.424  13.882  67.301  1.00  0.00    -0.369 A  
HETATM   26  C   UNL     1     -11.841  13.304  66.094  1.00  0.00    -0.390 A  
HETATM   27  C   UNL     1     -11.285  13.700  64.872  1.00  0.00    -0.342 A  
HETATM   28  F   UNL     1     -12.753  12.319  66.121  1.00  0.00    -0.012 F  
HETATM   29  C   UNL     1     -10.299  14.685  64.840  1.00  0.00    -0.382 A  
HETATM   30 CL   UNL     1     -11.771  12.951  63.399  1.00  0.00    -0.573 Cl 
HETATM   31  C   UNL     1      -9.901  15.299  66.027  1.00  0.00    -0.357 A  
HETATM   32  C   UNL     1     -10.468  14.909  67.248  1.00  0.00    -0.263 A  
ENDBRANCH  24  25
ENDBRANCH  21  24
ENDBRANCH   1   8
TORSDOF 5
ENDMDL
MODEL       51
REMARK 921   NORMALIZED FREE ENERGY PREDICTED BY IDOCK:   -5.70 KCAL/MOL
REMARK 922        TOTAL FREE ENERGY PREDICTED BY IDOCK:   -8.51 KCAL/MOL
REMARK 923 INTER-LIGAND FREE ENERGY PREDICTED BY IDOCK:   -7.45 KCAL/MOL
REMARK 924 INTRA-LIGAND FREE ENERGY PREDICTED BY IDOCK:   -1.06 KCAL/MOL
REMARK 927      BINDING AFFINITY PREDICTED BY RF-SCORE:    0.00 PKD
ROOT
HETATM    1  C   UNL     1     -10.123   7.273  72.266  1.00  0.00    -0.189 C  
HETATM    2  C   UNL     1     -10.655   5.698  70.296  1.00  0.00    -0.370 C  
HETATM    3  C   UNL     1     -11.188   4.978  72.610  1.00  0.00    -0.239 C  
HETATM    4  C   UNL     1     -10.209   5.804  71.761  1.00  0.00    -0.245 C  
ENDROOT
BRANCH   1   5
HETATM    5  C   UNL     1      -9.553   7.372  73.705  1.00  0.00    -0.284 C  
HETATM    6  H   UNL     1      -8.421   8.616  74.743  1.00  0.00     0.000 HD 
HETATM    7  O   UNL     1      -8.770   8.555  73.862  1.00  0.00    -0.227 OA 
ENDBRANCH   1   5
BRANCH   1   8
HETATM    8  N   UNL     1      -9.334   8.146  71.316  1.00  0.00    -0.149 NA 
HETATM    9  C   UNL     1      -7.530   8.202  69.661  1.00  0.00    -0.086 C  
HETATM   10  C   UNL     1      -8.146   7.694  70.740  1.00  0.00    -0.103 C  
HETATM   11  C   UNL     1      -6.260   7.600  69.200  1.00  0.00    -0.035 C  
HETATM   12  C   UNL     1      -8.186   9.325  68.978  1.00  0.00    -0.111 C  
HETATM   13  C   UNL     1      -9.489   9.791  69.499  1.00  0.00    -0.226 A  
HETATM   14  O   UNL     1      -7.643   9.858  68.011  1.00  0.00    -0.085 OA 
HETATM   15  O   UNL     1      -5.761   6.610  69.716  1.00  0.00    -0.014 OA 
HETATM   16  O   UNL     1      -5.684   8.234  68.156  1.00  0.00    -0.033 OA 
HETATM   17  C   UNL     1     -10.000   9.239  70.687  1.00  0.00    -0.273 A  
HETATM   18  C   UNL     1     -11.165   9.837  71.191  1.00  0.00    -0.444 A  
HETATM   19  C   UNL     1     -11.862  10.852  70.509  1.00  0.00    -0.360 A  
HETATM   20  C   UNL     1     -10.172  10.796  68.796  1.00  0.00    -0.207 A  
HETATM   21  C   UNL     1     -11.373  11.336  69.284  1.00  0.00    -0.354 A  
BRANCH  19  22
HETATM   22  O   UNL     1     -12.999  11.445  71.000  1.00  0.00    -0.307 OA 
HETATM   23  C   UNL     1     -12.848  12.300  72.133  1.00  0.00    -0.047 C  
ENDBRANCH  19  22
BRANCH  21  24
HETATM   24  C   UNL     1     -12.022  12.479  68.533  1.00  0.00    -0.266 C  
BRANCH  24  25
HETATM   25  C   UNL     1     -11.361  12.958  67.260  1.00  0.00    -0.356 A  
HETATM   26  C   UNL     1     -10.459  14.031  67.271  1.00  0.00    -0.268 A  
HETATM   27  C   UNL     1      -9.990  14.594  66.079  1.00  0.00    -0.316 A  
HETATM   28  F   UNL     1     -10.081  14.557  68.448  1.00  0.00    -0.214 F  
HETATM   29  C   UNL     1     -10.417  14.088  64.852  1.00  0.00    -0.453 A  
HETATM   30 CL   UNL     1      -8.918  15.942  66.103  1.00  0.00    -0.376 Cl 
HETATM   31  C   UNL     1     -11.283  12.995  64.823  1.00  0.00    -0.344 A  
HETATM   32  C   UNL     1     -11.742  12.426  66.019  1.00  0.00    -0.469 A  
ENDBRANCH  24  25
ENDBRANCH  21  24
ENDBRANCH   1   8
TORSDOF 5
ENDMDL
MODEL       52
REMARK 921   NORMALIZED FREE ENERGY PREDICTED BY IDOCK:   -5.69 KCAL/MOL
REMARK 922        TOTAL FREE ENERGY PREDICTED BY IDOCK:   -8.50 KCAL/MOL
REMARK 923 INTER-LIGAND FREE ENERGY PREDICTED BY IDOCK:   -8.46 KCAL/MOL
REMARK 924 INTRA-LIGAND FREE ENERGY PREDICTED BY IDOCK:   -0.04 KCAL/MOL
REMARK 927      BINDING AFFINITY PREDICTED BY RF-SCORE:    0.00 PKD
ROOT
HETATM    1  C   UNL     1      -8.914   7.338  67.826  1.00  0.00    -0.126 C  
HETATM    2  C   UNL     1     -10.656   5.835  66.664  1.00  0.00    -0.347 C  
HETATM    3  C   UNL     1      -8.356   5.969  65.745  1.00  0.00    -0.142 C  
HETATM    4  C   UNL     1      -9.445   6.761  66.483  1.00  0.00    -0.193 C  
ENDROOT
BRANCH   1   5
HETATM    5  C   UNL     1      -7.773   8.368  67.618  1.00  0.00    -0.099 C  
HETATM    6  H   UNL     1      -6.181   9.000  68.604  1.00  0.00     0.000 HD 
HETATM    7  O   UNL     1      -6.880   8.370  68.731  1.00  0.00    -0.060 OA 
ENDBRANCH   1   5
BRANCH   1   8
HETATM    8  N   UNL     1     -10.027   7.933  68.659  1.00  0.00    -0.185 NA 
HETATM    9  C   UNL     1     -10.978   8.124  70.908  1.00  0.00    -0.266 C  
HETATM   10  C   UNL     1     -10.271   7.489  69.960  1.00  0.00    -0.215 C  
HETATM   11  C   UNL     1     -11.147   7.490  72.234  1.00  0.00    -0.273 C  
HETATM   12  C   UNL     1     -11.522   9.446  70.570  1.00  0.00    -0.262 C  
HETATM   13  C   UNL     1     -11.224  10.000  69.232  1.00  0.00    -0.213 A  
HETATM   14  O   UNL     1     -12.216  10.051  71.386  1.00  0.00    -0.362 OA 
HETATM   15  O   UNL     1     -10.619   6.430  72.542  1.00  0.00    -0.201 OA 
HETATM   16  O   UNL     1     -11.939   8.173  73.087  1.00  0.00    -0.192 OA 
HETATM   17  C   UNL     1     -10.543   9.209  68.289  1.00  0.00    -0.174 A  
HETATM   18  C   UNL     1     -10.430   9.752  67.000  1.00  0.00    -0.295 A  
HETATM   19  C   UNL     1     -10.863  11.052  66.675  1.00  0.00    -0.225 A  
HETATM   20  C   UNL     1     -11.655  11.303  68.934  1.00  0.00    -0.386 A  
HETATM   21  C   UNL     1     -11.472  11.853  67.656  1.00  0.00    -0.387 A  
BRANCH  19  22
HETATM   22  O   UNL     1     -10.760  11.587  65.414  1.00  0.00    -0.280 OA 
HETATM   23  C   UNL     1      -9.844  10.961  64.516  1.00  0.00    -0.300 C  
ENDBRANCH  19  22
BRANCH  21  24
HETATM   24  C   UNL     1     -12.035  13.228  67.362  1.00  0.00    -0.383 C  
BRANCH  24  25
HETATM   25  C   UNL     1     -11.861  14.304  68.410  1.00  0.00    -0.373 A  
HETATM   26  C   UNL     1     -11.180  15.495  68.120  1.00  0.00    -0.343 A  
HETATM   27  C   UNL     1     -10.857  16.407  69.131  1.00  0.00    -0.329 A  
HETATM   28  F   UNL     1     -10.789  15.735  66.858  1.00  0.00    -0.314 F  
HETATM   29  C   UNL     1     -11.213  16.142  70.452  1.00  0.00    -0.394 A  
HETATM   30 CL   UNL     1      -9.980  17.846  68.771  1.00  0.00    -0.376 Cl 
HETATM   31  C   UNL     1     -11.926  14.981  70.751  1.00  0.00    -0.371 A  
HETATM   32  C   UNL     1     -12.258  14.075  69.736  1.00  0.00    -0.396 A  
ENDBRANCH  24  25
ENDBRANCH  21  24
ENDBRANCH   1   8
TORSDOF 5
ENDMDL
MODEL       53
REMARK 921   NORMALIZED FREE ENERGY PREDICTED BY IDOCK:   -5.66 KCAL/MOL
REMARK 922        TOTAL FREE ENERGY PREDICTED BY IDOCK:   -8.45 KCAL/MOL
REMARK 923 INTER-LIGAND FREE ENERGY PREDICTED BY IDOCK:   -7.49 KCAL/MOL
REMARK 924 INTRA-LIGAND FREE ENERGY PREDICTED BY IDOCK:   -0.97 KCAL/MOL
REMARK 927      BINDING AFFINITY PREDICTED BY RF-SCORE:    0.00 PKD
ROOT
HETATM    1  C   UNL     1      -8.600   6.539  69.553  1.00  0.00    -0.134 C  
HETATM    2  C   UNL     1     -11.006   5.828  68.960  1.00  0.00    -0.280 C  
HETATM    3  C   UNL     1      -9.597   4.324  70.341  1.00  0.00    -0.265 C  
HETATM    4  C   UNL     1      -9.564   5.366  69.213  1.00  0.00    -0.198 C  
ENDROOT
BRANCH   1   5
HETATM    5  C   UNL     1      -7.126   6.075  69.682  1.00  0.00    -0.069 C  
HETATM    6  H   UNL     1      -5.473   6.697  70.570  1.00  0.00     0.000 HD 
HETATM    7  O   UNL     1      -6.376   6.981  70.490  1.00  0.00    -0.037 OA 
ENDBRANCH   1   5
BRANCH   1   8
HETATM    8  N   UNL     1      -8.720   7.669  68.556  1.00  0.00    -0.128 NA 
HETATM    9  C   UNL     1      -8.617   8.286  66.189  1.00  0.00    -0.156 C  
HETATM   10  C   UNL     1      -8.285   7.519  67.239  1.00  0.00    -0.115 C  
HETATM   11  C   UNL     1      -8.042   7.984  64.859  1.00  0.00    -0.147 C  
HETATM   12  C   UNL     1      -9.572   9.377  66.426  1.00  0.00    -0.224 C  
HETATM   13  C   UNL     1     -10.127   9.531  67.789  1.00  0.00    -0.244 A  
HETATM   14  O   UNL     1      -9.876  10.138  65.509  1.00  0.00    -0.258 OA 
HETATM   15  O   UNL     1      -7.318   7.022  64.645  1.00  0.00    -0.077 OA 
HETATM   16  O   UNL     1      -8.378   8.861  63.889  1.00  0.00    -0.168 OA 
HETATM   17  C   UNL     1      -9.643   8.721  68.831  1.00  0.00    -0.158 A  
HETATM   18  C   UNL     1     -10.114   9.029  70.117  1.00  0.00    -0.220 A  
HETATM   19  C   UNL     1     -11.095  10.009  70.359  1.00  0.00    -0.327 A  
HETATM   20  C   UNL     1     -11.114  10.506  68.004  1.00  0.00    -0.361 A  
HETATM   21  C   UNL     1     -11.620  10.754  69.290  1.00  0.00    -0.376 A  
BRANCH  19  22
HETATM   22  O   UNL     1     -11.556  10.319  71.615  1.00  0.00    -0.191 OA 
HETATM   23  C   UNL     1     -12.601   9.504  72.143  1.00  0.00    -0.334 C  
ENDBRANCH  19  22
BRANCH  21  24
HETATM   24  C   UNL     1     -12.617  11.877  69.481  1.00  0.00     0.257 C  
BRANCH  24  25
HETATM   25  C   UNL     1     -12.137  13.146  70.149  1.00  0.00    -0.392 A  
HETATM   26  C   UNL     1     -12.630  13.537  71.402  1.00  0.00    -0.308 A  
HETATM   27  C   UNL     1     -12.330  14.795  71.936  1.00  0.00    -0.345 A  
HETATM   28  F   UNL     1     -13.444  12.707  72.073  1.00  0.00    -0.527 F  
HETATM   29  C   UNL     1     -11.528  15.684  71.223  1.00  0.00    -0.469 A  
HETATM   30 CL   UNL     1     -12.978  15.285  73.455  1.00  0.00    -0.630 Cl 
HETATM   31  C   UNL     1     -10.996  15.296  69.993  1.00  0.00    -0.306 A  
HETATM   32  C   UNL     1     -11.289  14.031  69.466  1.00  0.00    -0.298 A  
ENDBRANCH  24  25
ENDBRANCH  21  24
ENDBRANCH   1   8
TORSDOF 5
ENDMDL
MODEL       54
REMARK 921   NORMALIZED FREE ENERGY PREDICTED BY IDOCK:   -5.64 KCAL/MOL
REMARK 922        TOTAL FREE ENERGY PREDICTED BY IDOCK:   -8.43 KCAL/MOL
REMARK 923 INTER-LIGAND FREE ENERGY PREDICTED BY IDOCK:   -7.22 KCAL/MOL
REMARK 924 INTRA-LIGAND FREE ENERGY PREDICTED BY IDOCK:   -1.21 KCAL/MOL
REMARK 927      BINDING AFFINITY PREDICTED BY RF-SCORE:    0.00 PKD
ROOT
HETATM    1  C   UNL     1     -10.420  11.136  64.390  1.00  0.00    -0.353 C  
HETATM    2  C   UNL     1     -12.127  12.441  65.816  1.00  0.00    -0.381 C  
HETATM    3  C   UNL     1     -12.582  12.071  63.405  1.00  0.00    -0.592 C  
HETATM    4  C   UNL     1     -11.466  12.287  64.439  1.00  0.00    -0.417 C  
ENDROOT
BRANCH   1   5
HETATM    5  C   UNL     1      -9.671  11.073  63.034  1.00  0.00    -0.354 C  
HETATM    6  H   UNL     1      -9.022   9.681  61.790  1.00  0.00     0.000 HD 
HETATM    7  O   UNL     1      -9.480   9.720  62.621  1.00  0.00    -0.238 OA 
ENDBRANCH   1   5
BRANCH   1   8
HETATM    8  N   UNL     1      -9.440  11.222  65.539  1.00  0.00    -0.225 NA 
HETATM    9  C   UNL     1      -8.372  12.707  67.167  1.00  0.00    -0.172 C  
HETATM   10  C   UNL     1      -8.963  12.454  65.989  1.00  0.00     0.115 C  
HETATM   11  C   UNL     1      -7.912  14.081  67.469  1.00  0.00    -0.187 C  
HETATM   12  C   UNL     1      -8.246  11.588  68.111  1.00  0.00    -0.149 C  
HETATM   13  C   UNL     1      -8.808  10.279  67.717  1.00  0.00    -0.125 A  
HETATM   14  O   UNL     1      -7.672  11.754  69.187  1.00  0.00    -0.026 OA 
HETATM   15  O   UNL     1      -8.098  15.029  66.719  1.00  0.00    -0.182 OA 
HETATM   16  O   UNL     1      -7.263  14.211  68.645  1.00  0.00    -0.103 OA 
HETATM   17  C   UNL     1      -9.331  10.109  66.423  1.00  0.00    -0.169 A  
HETATM   18  C   UNL     1      -9.708   8.801  66.080  1.00  0.00    -0.320 A  
HETATM   19  C   UNL     1      -9.681   7.731  66.995  1.00  0.00    -0.197 A  
HETATM   20  C   UNL     1      -8.782   9.230  68.650  1.00  0.00    -0.132 A  
HETATM   21  C   UNL     1      -9.226   7.943  68.307  1.00  0.00    -0.137 A  
BRANCH  19  22
HETATM   22  O   UNL     1     -10.044   6.449  66.664  1.00  0.00    -0.176 OA 
HETATM   23  C   UNL     1      -9.155   5.720  65.818  1.00  0.00    -0.109 C  
ENDBRANCH  19  22
BRANCH  21  24
HETATM   24  C   UNL     1      -9.093   6.827  69.321  1.00  0.00    -0.139 C  
BRANCH  24  25
HETATM   25  C   UNL     1      -9.887   6.935  70.604  1.00  0.00    -0.191 A  
HETATM   26  C   UNL     1     -11.279   6.769  70.611  1.00  0.00    -0.312 A  
HETATM   27  C   UNL     1     -12.034   7.049  71.755  1.00  0.00    -0.326 A  
HETATM   28  F   UNL     1     -11.898   6.382  69.484  1.00  0.00    -0.465 F  
HETATM   29  C   UNL     1     -11.406   7.501  72.914  1.00  0.00    -0.355 A  
HETATM   30 CL   UNL     1     -13.749   6.886  71.740  1.00  0.00    -0.327 Cl 
HETATM   31  C   UNL     1     -10.018   7.633  72.937  1.00  0.00    -0.319 A  
HETATM   32  C   UNL     1      -9.262   7.341  71.793  1.00  0.00    -0.153 A  
ENDBRANCH  24  25
ENDBRANCH  21  24
ENDBRANCH   1   8
TORSDOF 5
ENDMDL
MODEL       55
REMARK 921   NORMALIZED FREE ENERGY PREDICTED BY IDOCK:   -5.63 KCAL/MOL
REMARK 922        TOTAL FREE ENERGY PREDICTED BY IDOCK:   -8.41 KCAL/MOL
REMARK 923 INTER-LIGAND FREE ENERGY PREDICTED BY IDOCK:   -7.74 KCAL/MOL
REMARK 924 INTRA-LIGAND FREE ENERGY PREDICTED BY IDOCK:   -0.67 KCAL/MOL
REMARK 927      BINDING AFFINITY PREDICTED BY RF-SCORE:    0.00 PKD
ROOT
HETATM    1  C   UNL     1      -8.516   6.722  67.399  1.00  0.00    -0.121 C  
HETATM    2  C   UNL     1     -10.349   5.167  66.466  1.00  0.00    -0.336 C  
HETATM    3  C   UNL     1      -8.088   5.136  65.444  1.00  0.00    -0.118 C  
HETATM    4  C   UNL     1      -9.122   6.032  66.143  1.00  0.00    -0.159 C  
ENDROOT
BRANCH   1   5
HETATM    5  C   UNL     1      -7.358   7.690  67.041  1.00  0.00    -0.090 C  
HETATM    6  H   UNL     1      -5.811   8.514  67.955  1.00  0.00     0.000 HD 
HETATM    7  O   UNL     1      -6.520   7.922  68.174  1.00  0.00    -0.051 OA 
ENDBRANCH   1   5
BRANCH   1   8
HETATM    8  N   UNL     1      -9.574   7.432  68.213  1.00  0.00    -0.149 NA 
HETATM    9  C   UNL     1     -10.383   7.925  70.471  1.00  0.00    -0.205 C  
HETATM   10  C   UNL     1      -9.737   7.165  69.573  1.00  0.00    -0.157 C  
HETATM   11  C   UNL     1     -10.470   7.473  71.877  1.00  0.00    -0.202 C  
HETATM   12  C   UNL     1     -10.946   9.197  69.997  1.00  0.00    -0.220 C  
HETATM   13  C   UNL     1     -10.732   9.566  68.581  1.00  0.00    -0.218 A  
HETATM   14  O   UNL     1     -11.587   9.910  70.767  1.00  0.00    -0.295 OA 
HETATM   15  O   UNL     1      -9.924   6.458  72.290  1.00  0.00    -0.166 OA 
HETATM   16  O   UNL     1     -11.206   8.270  72.680  1.00  0.00    -0.378 OA 
HETATM   17  C   UNL     1     -10.112   8.653  67.710  1.00  0.00    -0.211 A  
HETATM   18  C   UNL     1     -10.079   9.021  66.356  1.00  0.00    -0.351 A  
HETATM   19  C   UNL     1     -10.530  10.270  65.891  1.00  0.00    -0.097 A  
HETATM   20  C   UNL     1     -11.179  10.823  68.141  1.00  0.00    -0.365 A  
HETATM   21  C   UNL     1     -11.076  11.198  66.793  1.00  0.00    -0.280 A  
BRANCH  19  22
HETATM   22  O   UNL     1     -10.506  10.634  64.566  1.00  0.00    -0.345 OA 
HETATM   23  C   UNL     1      -9.310  10.355  63.839  1.00  0.00    -0.279 C  
ENDBRANCH  19  22
BRANCH  21  24
HETATM   24  C   UNL     1     -11.655  12.528  66.355  1.00  0.00    -0.449 C  
BRANCH  24  25
HETATM   25  C   UNL     1     -10.905  13.786  66.732  1.00  0.00    -0.284 A  
HETATM   26  C   UNL     1     -11.188  14.470  67.922  1.00  0.00    -0.295 A  
HETATM   27  C   UNL     1     -10.631  15.727  68.184  1.00  0.00    -0.275 A  
HETATM   28  F   UNL     1     -12.049  13.928  68.799  1.00  0.00    -0.356 F  
HETATM   29  C   UNL     1      -9.778  16.320  67.255  1.00  0.00    -0.237 A  
HETATM   30 CL   UNL     1     -11.022  16.580  69.629  1.00  0.00    -0.320 Cl 
HETATM   31  C   UNL     1      -9.453  15.635  66.085  1.00  0.00    -0.376 A  
HETATM   32  C   UNL     1     -10.003  14.372  65.830  1.00  0.00    -0.354 A  
ENDBRANCH  24  25
ENDBRANCH  21  24
ENDBRANCH   1   8
TORSDOF 5
ENDMDL
MODEL       56
REMARK 921   NORMALIZED FREE ENERGY PREDICTED BY IDOCK:   -5.60 KCAL/MOL
REMARK 922        TOTAL FREE ENERGY PREDICTED BY IDOCK:   -8.37 KCAL/MOL
REMARK 923 INTER-LIGAND FREE ENERGY PREDICTED BY IDOCK:   -7.80 KCAL/MOL
REMARK 924 INTRA-LIGAND FREE ENERGY PREDICTED BY IDOCK:   -0.57 KCAL/MOL
REMARK 927      BINDING AFFINITY PREDICTED BY RF-SCORE:    0.00 PKD
ROOT
HETATM    1  C   UNL     1      -9.734   5.782  72.072  1.00  0.00    -0.154 C  
HETATM    2  C   UNL     1      -9.838   6.468  74.555  1.00  0.00    -0.355 C  
HETATM    3  C   UNL     1     -10.920   4.357  73.828  1.00  0.00    -0.357 C  
HETATM    4  C   UNL     1     -10.565   5.785  73.388  1.00  0.00    -0.283 C  
ENDROOT
BRANCH   1   5
HETATM    5  C   UNL     1     -10.529   5.204  70.872  1.00  0.00    -0.187 C  
HETATM    6  H   UNL     1     -10.286   5.009  68.920  1.00  0.00     0.000 HD 
HETATM    7  O   UNL     1      -9.800   5.363  69.655  1.00  0.00    -0.160 OA 
ENDBRANCH   1   5
BRANCH   1   8
HETATM    8  N   UNL     1      -9.198   7.157  71.746  1.00  0.00    -0.140 NA 
HETATM    9  C   UNL     1      -7.333   8.413  70.773  1.00  0.00    -0.060 C  
HETATM   10  C   UNL     1      -7.860   7.345  71.391  1.00  0.00    -0.095 C  
HETATM   11  C   UNL     1      -5.882   8.445  70.490  1.00  0.00    -0.028 C  
HETATM   12  C   UNL     1      -8.255   9.488  70.383  1.00  0.00    -0.190 C  
HETATM   13  C   UNL     1      -9.696   9.304  70.662  1.00  0.00    -0.334 A  
HETATM   14  O   UNL     1      -7.819  10.510  69.854  1.00  0.00    -0.117 OA 
HETATM   15  O   UNL     1      -5.130   7.511  70.735  1.00  0.00    -0.023 OA 
HETATM   16  O   UNL     1      -5.442   9.595  69.937  1.00  0.00    -0.032 OA 
HETATM   17  C   UNL     1     -10.124   8.181  71.390  1.00  0.00    -0.198 A  
HETATM   18  C   UNL     1     -11.484   8.157  71.738  1.00  0.00    -0.337 A  
HETATM   19  C   UNL     1     -12.404   9.128  71.300  1.00  0.00    -0.315 A  
HETATM   20  C   UNL     1     -10.597  10.279  70.204  1.00  0.00    -0.303 A  
HETATM   21  C   UNL     1     -11.966  10.202  70.508  1.00  0.00    -0.400 A  
BRANCH  19  22
HETATM   22  O   UNL     1     -13.734   9.113  71.642  1.00  0.00    -0.382 OA 
HETATM   23  C   UNL     1     -14.343   7.835  71.826  1.00  0.00    -0.470 C  
ENDBRANCH  19  22
BRANCH  21  24
HETATM   24  C   UNL     1     -12.880  11.325  70.067  1.00  0.00     0.052 C  
BRANCH  24  25
HETATM   25  C   UNL     1     -12.761  12.656  70.775  1.00  0.00    -0.213 A  
HETATM   26  C   UNL     1     -12.037  13.716  70.212  1.00  0.00    -0.357 A  
HETATM   27  C   UNL     1     -11.771  14.879  70.943  1.00  0.00    -0.323 A  
HETATM   28  F   UNL     1     -11.549  13.586  68.968  1.00  0.00    -0.264 F  
HETATM   29  C   UNL     1     -12.228  15.000  72.254  1.00  0.00    -0.439 A  
HETATM   30 CL   UNL     1     -10.840  16.156  70.258  1.00  0.00    -0.324 Cl 
HETATM   31  C   UNL     1     -12.985  13.972  72.816  1.00  0.00    -0.473 A  
HETATM   32  C   UNL     1     -13.260  12.814  72.078  1.00  0.00    -0.538 A  
ENDBRANCH  24  25
ENDBRANCH  21  24
ENDBRANCH   1   8
TORSDOF 5
ENDMDL
MODEL       57
REMARK 921   NORMALIZED FREE ENERGY PREDICTED BY IDOCK:   -5.58 KCAL/MOL
REMARK 922        TOTAL FREE ENERGY PREDICTED BY IDOCK:   -8.35 KCAL/MOL
REMARK 923 INTER-LIGAND FREE ENERGY PREDICTED BY IDOCK:   -8.31 KCAL/MOL
REMARK 924 INTRA-LIGAND FREE ENERGY PREDICTED BY IDOCK:   -0.04 KCAL/MOL
REMARK 927      BINDING AFFINITY PREDICTED BY RF-SCORE:    0.00 PKD
ROOT
HETATM    1  C   UNL     1     -10.708  12.580  67.749  1.00  0.00    -0.219 C  
HETATM    2  C   UNL     1      -8.367  13.092  68.702  1.00  0.00     0.027 C  
HETATM    3  C   UNL     1      -8.610  12.543  66.295  1.00  0.00     0.221 C  
HETATM    4  C   UNL     1      -9.184  12.271  67.693  1.00  0.00    -0.183 C  
ENDROOT
BRANCH   1   5
HETATM    5  C   UNL     1     -11.534  11.656  66.816  1.00  0.00    -0.225 C  
HETATM    6  H   UNL     1     -12.852  11.859  65.358  1.00  0.00     0.000 HD 
HETATM    7  O   UNL     1     -12.347  12.424  65.930  1.00  0.00    -0.638 OA 
ENDBRANCH   1   5
BRANCH   1   8
HETATM    8  N   UNL     1     -11.239  12.524  69.164  1.00  0.00    -0.253 NA 
HETATM    9  C   UNL     1     -12.687  13.606  70.816  1.00  0.00    -0.338 C  
HETATM   10  C   UNL     1     -11.896  13.617  69.732  1.00  0.00    -0.327 C  
HETATM   11  C   UNL     1     -13.291  14.872  71.286  1.00  0.00    -0.421 C  
HETATM   12  C   UNL     1     -12.933  12.308  71.458  1.00  0.00    -0.289 C  
HETATM   13  C   UNL     1     -12.325  11.105  70.849  1.00  0.00    -0.500 A  
HETATM   14  O   UNL     1     -13.613  12.247  72.481  1.00  0.00    -0.335 OA 
HETATM   15  O   UNL     1     -13.158  15.937  70.699  1.00  0.00    -0.467 OA 
HETATM   16  O   UNL     1     -14.005  14.765  72.427  1.00  0.00    -0.447 OA 
HETATM   17  C   UNL     1     -11.445  11.246  69.762  1.00  0.00    -0.310 A  
HETATM   18  C   UNL     1     -10.800  10.074  69.338  1.00  0.00    -0.270 A  
HETATM   19  C   UNL     1     -11.085   8.805  69.877  1.00  0.00    -0.123 A  
HETATM   20  C   UNL     1     -12.633   9.848  71.395  1.00  0.00    -0.497 A  
HETATM   21  C   UNL     1     -12.026   8.679  70.912  1.00  0.00    -0.220 A  
BRANCH  19  22
HETATM   22  O   UNL     1     -10.453   7.655  69.470  1.00  0.00    -0.220 OA 
HETATM   23  C   UNL     1      -9.059   7.544  69.758  1.00  0.00    -0.140 C  
ENDBRANCH  19  22
BRANCH  21  24
HETATM   24  C   UNL     1     -12.326   7.361  71.595  1.00  0.00    -0.373 C  
BRANCH  24  25
HETATM   25  C   UNL     1     -11.225   6.717  72.408  1.00  0.00    -0.302 A  
HETATM   26  C   UNL     1     -10.254   7.492  73.056  1.00  0.00    -0.306 A  
HETATM   27  C   UNL     1      -9.134   6.900  73.651  1.00  0.00    -0.155 A  
HETATM   28  F   UNL     1     -10.378   8.829  73.059  1.00  0.00    -0.174 F  
HETATM   29  C   UNL     1      -8.970   5.517  73.608  1.00  0.00    -0.124 A  
HETATM   30 CL   UNL     1      -7.923   7.865  74.405  1.00  0.00    -0.258 Cl 
HETATM   31  C   UNL     1      -9.947   4.727  73.003  1.00  0.00    -0.187 A  
HETATM   32  C   UNL     1     -11.072   5.322  72.417  1.00  0.00    -0.260 A  
ENDBRANCH  24  25
ENDBRANCH  21  24
ENDBRANCH   1   8
TORSDOF 5
ENDMDL
MODEL       58
REMARK 921   NORMALIZED FREE ENERGY PREDICTED BY IDOCK:   -5.52 KCAL/MOL
REMARK 922        TOTAL FREE ENERGY PREDICTED BY IDOCK:   -8.28 KCAL/MOL
REMARK 923 INTER-LIGAND FREE ENERGY PREDICTED BY IDOCK:   -7.64 KCAL/MOL
REMARK 924 INTRA-LIGAND FREE ENERGY PREDICTED BY IDOCK:   -0.64 KCAL/MOL
REMARK 927      BINDING AFFINITY PREDICTED BY RF-SCORE:    0.00 PKD
ROOT
HETATM    1  C   UNL     1      -9.709  16.194  66.703  1.00  0.00    -0.244 C  
HETATM    2  C   UNL     1     -11.440  16.192  68.614  1.00  0.00    -0.340 C  
HETATM    3  C   UNL     1      -9.823  18.066  68.435  1.00  0.00    -0.369 C  
HETATM    4  C   UNL     1     -10.014  16.562  68.183  1.00  0.00    -0.248 C  
ENDROOT
BRANCH   1   5
HETATM    5  C   UNL     1      -8.230  16.457  66.319  1.00  0.00    -0.308 C  
HETATM    6  H   UNL     1      -7.195  17.844  65.364  1.00  0.00     0.000 HD 
HETATM    7  O   UNL     1      -8.101  17.682  65.598  1.00  0.00    -0.518 OA 
ENDBRANCH   1   5
BRANCH   1   8
HETATM    8  N   UNL     1     -10.097  14.766  66.390  1.00  0.00    -0.269 NA 
HETATM    9  C   UNL     1     -11.092  13.268  64.729  1.00  0.00    -0.359 C  
HETATM   10  C   UNL     1     -10.933  14.465  65.314  1.00  0.00    -0.350 C  
HETATM   11  C   UNL     1     -12.041  13.131  63.602  1.00  0.00    -0.513 C  
HETATM   12  C   UNL     1     -10.276  12.156  65.235  1.00  0.00    -0.274 C  
HETATM   13  C   UNL     1      -9.314  12.439  66.322  1.00  0.00    -0.189 A  
HETATM   14  O   UNL     1     -10.415  11.028  64.766  1.00  0.00    -0.317 OA 
HETATM   15  O   UNL     1     -12.654  14.075  63.123  1.00  0.00    -0.733 OA 
HETATM   16  O   UNL     1     -12.184  11.872  63.137  1.00  0.00    -0.448 OA 
HETATM   17  C   UNL     1      -9.292  13.714  66.916  1.00  0.00    -0.257 A  
HETATM   18  C   UNL     1      -8.456  13.856  68.034  1.00  0.00    -0.173 A  
HETATM   19  C   UNL     1      -7.597  12.834  68.484  1.00  0.00    -0.120 A  
HETATM   20  C   UNL     1      -8.459  11.409  66.746  1.00  0.00    -0.165 A  
HETATM   21  C   UNL     1      -7.581  11.593  67.826  1.00  0.00    -0.121 A  
BRANCH  19  22
HETATM   22  O   UNL     1      -6.781  12.965  69.581  1.00  0.00    -0.040 OA 
HETATM   23  C   UNL     1      -6.159  14.234  69.779  1.00  0.00    -0.132 C  
ENDBRANCH  19  22
BRANCH  21  24
HETATM   24  C   UNL     1      -6.745  10.423  68.299  1.00  0.00    -0.061 C  
BRANCH  24  25
HETATM   25  C   UNL     1      -7.417   9.370  69.153  1.00  0.00    -0.073 A  
HETATM   26  C   UNL     1      -8.087   8.285  68.572  1.00  0.00    -0.123 A  
HETATM   27  C   UNL     1      -8.863   7.415  69.347  1.00  0.00    -0.137 A  
HETATM   28  F   UNL     1      -8.021   8.111  67.242  1.00  0.00    -0.105 F  
HETATM   29  C   UNL     1      -8.979   7.619  70.721  1.00  0.00    -0.149 A  
HETATM   30 CL   UNL     1      -9.720   6.111  68.616  1.00  0.00    -0.135 Cl 
HETATM   31  C   UNL     1      -8.287   8.670  71.321  1.00  0.00    -0.211 A  
HETATM   32  C   UNL     1      -7.502   9.532  70.545  1.00  0.00    -0.159 A  
ENDBRANCH  24  25
ENDBRANCH  21  24
ENDBRANCH   1   8
TORSDOF 5
ENDMDL
MODEL       59
REMARK 921   NORMALIZED FREE ENERGY PREDICTED BY IDOCK:   -5.51 KCAL/MOL
REMARK 922        TOTAL FREE ENERGY PREDICTED BY IDOCK:   -8.27 KCAL/MOL
REMARK 923 INTER-LIGAND FREE ENERGY PREDICTED BY IDOCK:   -7.72 KCAL/MOL
REMARK 924 INTRA-LIGAND FREE ENERGY PREDICTED BY IDOCK:   -0.55 KCAL/MOL
REMARK 927      BINDING AFFINITY PREDICTED BY RF-SCORE:    0.00 PKD
ROOT
HETATM    1  C   UNL     1      -9.076  17.732  68.092  1.00  0.00    -0.274 C  
HETATM    2  C   UNL     1      -7.626  18.457  66.087  1.00  0.00    -0.270 C  
HETATM    3  C   UNL     1      -9.516  19.895  66.809  1.00  0.00    -0.510 C  
HETATM    4  C   UNL     1      -9.030  18.441  66.708  1.00  0.00    -0.291 C  
ENDROOT
BRANCH   1   5
HETATM    5  C   UNL     1     -10.519  17.611  68.648  1.00  0.00    -0.317 C  
HETATM    6  H   UNL     1     -11.444  16.655  70.110  1.00  0.00     0.000 HD 
HETATM    7  O   UNL     1     -10.560  16.729  69.769  1.00  0.00    -0.287 OA 
ENDBRANCH   1   5
BRANCH   1   8
HETATM    8  N   UNL     1      -8.404  16.378  68.050  1.00  0.00    -0.175 NA 
HETATM    9  C   UNL     1      -6.978  14.799  69.263  1.00  0.00    -0.149 C  
HETATM   10  C   UNL     1      -7.415  16.035  68.974  1.00  0.00    -0.202 C  
HETATM   11  C   UNL     1      -5.903  14.626  70.265  1.00  0.00    -0.146 C  
HETATM   12  C   UNL     1      -7.630  13.676  68.577  1.00  0.00    -0.130 C  
HETATM   13  C   UNL     1      -8.740  13.979  67.647  1.00  0.00    -0.189 A  
HETATM   14  O   UNL     1      -7.238  12.526  68.771  1.00  0.00    -0.106 OA 
HETATM   15  O   UNL     1      -5.424  15.554  70.901  1.00  0.00    -0.135 OA 
HETATM   16  O   UNL     1      -5.484  13.353  70.426  1.00  0.00    -0.115 OA 
HETATM   17  C   UNL     1      -9.057  15.317  67.357  1.00  0.00    -0.192 A  
HETATM   18  C   UNL     1     -10.022  15.516  66.357  1.00  0.00    -0.300 A  
HETATM   19  C   UNL     1     -10.724  14.459  65.749  1.00  0.00    -0.307 A  
HETATM   20  C   UNL     1      -9.435  12.908  67.062  1.00  0.00    -0.235 A  
HETATM   21  C   UNL     1     -10.443  13.131  66.112  1.00  0.00    -0.287 A  
BRANCH  19  22
HETATM   22  O   UNL     1     -11.665  14.647  64.766  1.00  0.00    -0.391 OA 
HETATM   23  C   UNL     1     -11.777  15.960  64.217  1.00  0.00    -0.132 C  
ENDBRANCH  19  22
BRANCH  21  24
HETATM   24  C   UNL     1     -11.099  11.940  65.445  1.00  0.00    -0.360 C  
BRANCH  24  25
HETATM   25  C   UNL     1     -10.256  11.092  64.520  1.00  0.00    -0.406 A  
HETATM   26  C   UNL     1      -9.674   9.896  64.962  1.00  0.00    -0.288 A  
HETATM   27  C   UNL     1      -8.748   9.207  64.171  1.00  0.00    -0.141 A  
HETATM   28  F   UNL     1      -9.975   9.435  66.187  1.00  0.00    -0.291 F  
HETATM   29  C   UNL     1      -8.390   9.705  62.920  1.00  0.00    -0.165 A  
HETATM   30 CL   UNL     1      -8.003   7.762  64.743  1.00  0.00    -0.138 Cl 
HETATM   31  C   UNL     1      -8.990  10.872  62.447  1.00  0.00    -0.353 A  
HETATM   32  C   UNL     1      -9.925  11.554  63.236  1.00  0.00    -0.435 A  
ENDBRANCH  24  25
ENDBRANCH  21  24
ENDBRANCH   1   8
TORSDOF 5
ENDMDL
MODEL       60
REMARK 921   NORMALIZED FREE ENERGY PREDICTED BY IDOCK:   -5.47 KCAL/MOL
REMARK 922        TOTAL FREE ENERGY PREDICTED BY IDOCK:   -8.21 KCAL/MOL
REMARK 923 INTER-LIGAND FREE ENERGY PREDICTED BY IDOCK:   -7.22 KCAL/MOL
REMARK 924 INTRA-LIGAND FREE ENERGY PREDICTED BY IDOCK:   -0.98 KCAL/MOL
REMARK 927      BINDING AFFINITY PREDICTED BY RF-SCORE:    0.00 PKD
ROOT
HETATM    1  C   UNL     1      -9.300   6.046  71.898  1.00  0.00    -0.150 C  
HETATM    2  C   UNL     1     -10.028   5.226  69.564  1.00  0.00    -0.297 C  
HETATM    3  C   UNL     1     -10.093   3.655  71.484  1.00  0.00    -0.102 C  
HETATM    4  C   UNL     1      -9.348   4.860  70.891  1.00  0.00    -0.210 C  
ENDROOT
BRANCH   1   5
HETATM    5  C   UNL     1      -8.501   5.701  73.181  1.00  0.00    -0.117 C  
HETATM    6  H   UNL     1      -8.052   6.572  74.898  1.00  0.00     0.000 HD 
HETATM    7  O   UNL     1      -8.541   6.783  74.111  1.00  0.00    -0.131 OA 
ENDBRANCH   1   5
BRANCH   1   8
HETATM    8  N   UNL     1      -8.762   7.305  71.254  1.00  0.00    -0.127 NA 
HETATM    9  C   UNL     1      -7.163   8.214  69.637  1.00  0.00    -0.065 C  
HETATM   10  C   UNL     1      -7.578   7.287  70.514  1.00  0.00    -0.088 C  
HETATM   11  C   UNL     1      -5.864   8.036  68.953  1.00  0.00    -0.035 C  
HETATM   12  C   UNL     1      -8.058   9.352  69.385  1.00  0.00    -0.105 C  
HETATM   13  C   UNL     1      -9.362   9.378  70.083  1.00  0.00    -0.276 A  
HETATM   14  O   UNL     1      -7.708  10.253  68.625  1.00  0.00    -0.086 OA 
HETATM   15  O   UNL     1      -5.161   7.045  69.096  1.00  0.00    -0.013 OA 
HETATM   16  O   UNL     1      -5.505   9.061  68.151  1.00  0.00    -0.038 OA 
HETATM   17  C   UNL     1      -9.656   8.395  71.044  1.00  0.00    -0.169 A  
HETATM   18  C   UNL     1     -10.848   8.576  71.763  1.00  0.00    -0.374 A  
HETATM   19  C   UNL     1     -11.765   9.605  71.479  1.00  0.00    -0.400 A  
HETATM   20  C   UNL     1     -10.266  10.407  69.775  1.00  0.00    -0.228 A  
HETATM   21  C   UNL     1     -11.485  10.532  70.461  1.00  0.00    -0.433 A  
BRANCH  19  22
HETATM   22  O   UNL     1     -12.930   9.791  72.182  1.00  0.00    -0.407 OA 
HETATM   23  C   UNL     1     -13.787   8.659  72.328  1.00  0.00    -0.403 C  
ENDBRANCH  19  22
BRANCH  21  24
HETATM   24  C   UNL     1     -12.383  11.711  70.152  1.00  0.00    -0.297 C  
BRANCH  24  25
HETATM   25  C   UNL     1     -11.940  12.678  69.078  1.00  0.00    -0.282 A  
HETATM   26  C   UNL     1     -11.691  14.026  69.373  1.00  0.00    -0.315 A  
HETATM   27  C   UNL     1     -11.462  14.959  68.355  1.00  0.00    -0.318 A  
HETATM   28  F   UNL     1     -11.724  14.432  70.652  1.00  0.00    -0.320 F  
HETATM   29  C   UNL     1     -11.478  14.556  67.021  1.00  0.00    -0.383 A  
HETATM   30 CL   UNL     1     -11.203  16.621  68.726  1.00  0.00    -0.273 Cl 
HETATM   31  C   UNL     1     -11.683  13.212  66.712  1.00  0.00    -0.439 A  
HETATM   32  C   UNL     1     -11.901  12.277  67.733  1.00  0.00    -0.341 A  
ENDBRANCH  24  25
ENDBRANCH  21  24
ENDBRANCH   1   8
TORSDOF 5
ENDMDL
MODEL       61
REMARK 921   NORMALIZED FREE ENERGY PREDICTED BY IDOCK:   -5.45 KCAL/MOL
REMARK 922        TOTAL FREE ENERGY PREDICTED BY IDOCK:   -8.18 KCAL/MOL
REMARK 923 INTER-LIGAND FREE ENERGY PREDICTED BY IDOCK:   -7.65 KCAL/MOL
REMARK 924 INTRA-LIGAND FREE ENERGY PREDICTED BY IDOCK:   -0.53 KCAL/MOL
REMARK 927      BINDING AFFINITY PREDICTED BY RF-SCORE:    0.00 PKD
ROOT
HETATM    1  C   UNL     1     -11.253  13.666  65.711  1.00  0.00    -0.295 C  
HETATM    2  C   UNL     1      -9.844  12.105  64.218  1.00  0.00    -0.174 C  
HETATM    3  C   UNL     1     -12.154  12.694  63.528  1.00  0.00    -0.648 C  
HETATM    4  C   UNL     1     -11.246  12.447  64.743  1.00  0.00    -0.353 C  
ENDROOT
BRANCH   1   5
HETATM    5  C   UNL     1     -12.652  13.922  66.330  1.00  0.00    -0.330 C  
HETATM    6  H   UNL     1     -14.429  14.532  65.716  1.00  0.00     0.000 HD 
HETATM    7  O   UNL     1     -13.572  14.376  65.338  1.00  0.00    -0.428 OA 
ENDBRANCH   1   5
BRANCH   1   8
HETATM    8  N   UNL     1     -10.206  13.527  66.793  1.00  0.00    -0.260 NA 
HETATM    9  C   UNL     1      -8.963  11.956  68.202  1.00  0.00    -0.185 C  
HETATM   10  C   UNL     1     -10.031  12.323  67.477  1.00  0.00    -0.199 C  
HETATM   11  C   UNL     1      -8.960  10.639  68.875  1.00  0.00    -0.168 C  
HETATM   12  C   UNL     1      -7.832  12.892  68.255  1.00  0.00    -0.142 C  
HETATM   13  C   UNL     1      -7.932  14.149  67.481  1.00  0.00    -0.202 A  
HETATM   14  O   UNL     1      -6.846  12.627  68.941  1.00  0.00    -0.093 OA 
HETATM   15  O   UNL     1      -9.864   9.824  68.757  1.00  0.00    -0.160 OA 
HETATM   16  O   UNL     1      -7.874  10.401  69.640  1.00  0.00    -0.156 OA 
HETATM   17  C   UNL     1      -9.134  14.466  66.824  1.00  0.00    -0.257 A  
HETATM   18  C   UNL     1      -9.195  15.739  66.237  1.00  0.00    -0.368 A  
HETATM   19  C   UNL     1      -8.096  16.618  66.197  1.00  0.00    -0.238 A  
HETATM   20  C   UNL     1      -6.819  15.004  67.444  1.00  0.00    -0.144 A  
HETATM   21  C   UNL     1      -6.880  16.246  66.794  1.00  0.00    -0.123 A  
BRANCH  19  22
HETATM   22  O   UNL     1      -8.151  17.867  65.629  1.00  0.00    -0.514 OA 
HETATM   23  C   UNL     1      -9.159  18.755  66.111  1.00  0.00    -0.141 C  
ENDBRANCH  19  22
BRANCH  21  24
HETATM   24  C   UNL     1      -5.681  17.168  66.860  1.00  0.00    -0.221 C  
BRANCH  24  25
HETATM   25  C   UNL     1      -5.712  18.303  67.860  1.00  0.00    -0.160 A  
HETATM   26  C   UNL     1      -5.499  18.071  69.226  1.00  0.00    -0.196 A  
HETATM   27  C   UNL     1      -5.710  19.080  70.172  1.00  0.00    -0.249 A  
HETATM   28  F   UNL     1      -5.137  16.844  69.633  1.00  0.00    -0.131 F  
HETATM   29  C   UNL     1      -6.137  20.343  69.764  1.00  0.00    -0.353 A  
HETATM   30 CL   UNL     1      -5.490  18.772  71.853  1.00  0.00    -0.206 Cl 
HETATM   31  C   UNL     1      -6.315  20.602  68.405  1.00  0.00    -0.341 A  
HETATM   32  C   UNL     1      -6.092  19.593  67.459  1.00  0.00    -0.210 A  
ENDBRANCH  24  25
ENDBRANCH  21  24
ENDBRANCH   1   8
TORSDOF 5
ENDMDL
MODEL       62
REMARK 921   NORMALIZED FREE ENERGY PREDICTED BY IDOCK:   -5.43 KCAL/MOL
REMARK 922        TOTAL FREE ENERGY PREDICTED BY IDOCK:   -8.16 KCAL/MOL
REMARK 923 INTER-LIGAND FREE ENERGY PREDICTED BY IDOCK:   -7.08 KCAL/MOL
REMARK 924 INTRA-LIGAND FREE ENERGY PREDICTED BY IDOCK:   -1.08 KCAL/MOL
REMARK 927      BINDING AFFINITY PREDICTED BY RF-SCORE:    0.00 PKD
ROOT
HETATM    1  C   UNL     1      -9.863  10.749  64.624  1.00  0.00    -0.307 C  
HETATM    2  C   UNL     1     -11.521  12.171  65.994  1.00  0.00    -0.427 C  
HETATM    3  C   UNL     1     -11.696  12.141  63.519  1.00  0.00    -0.579 C  
HETATM    4  C   UNL     1     -10.711  12.051  64.695  1.00  0.00    -0.355 C  
ENDROOT
BRANCH   1   5
HETATM    5  C   UNL     1      -8.956  10.701  63.367  1.00  0.00    -0.219 C  
HETATM    6  H   UNL     1      -8.813   9.630  61.712  1.00  0.00     0.000 HD 
HETATM    7  O   UNL     1      -9.368   9.659  62.482  1.00  0.00    -0.265 OA 
ENDBRANCH   1   5
BRANCH   1   8
HETATM    8  N   UNL     1      -9.047  10.543  65.881  1.00  0.00    -0.162 NA 
HETATM    9  C   UNL     1      -7.760  11.646  67.648  1.00  0.00    -0.133 C  
HETATM   10  C   UNL     1      -8.259  11.569  66.405  1.00  0.00    -0.092 C  
HETATM   11  C   UNL     1      -6.926  12.808  68.025  1.00  0.00    -0.107 C  
HETATM   12  C   UNL     1      -8.106  10.565  68.581  1.00  0.00    -0.127 C  
HETATM   13  C   UNL     1      -9.006   9.494  68.101  1.00  0.00    -0.123 A  
HETATM   14  O   UNL     1      -7.639  10.562  69.719  1.00  0.00    -0.151 OA 
HETATM   15  O   UNL     1      -6.712  13.751  67.276  1.00  0.00    -0.230 OA 
HETATM   16  O   UNL     1      -6.410  12.750  69.271  1.00  0.00    -0.097 OA 
HETATM   17  C   UNL     1      -9.401   9.472  66.752  1.00  0.00    -0.153 A  
HETATM   18  C   UNL     1     -10.132   8.345  66.345  1.00  0.00    -0.242 A  
HETATM   19  C   UNL     1     -10.553   7.341  67.238  1.00  0.00    -0.325 A  
HETATM   20  C   UNL     1      -9.423   8.510  69.012  1.00  0.00    -0.150 A  
HETATM   21  C   UNL     1     -10.210   7.424  68.597  1.00  0.00    -0.203 A  
BRANCH  19  22
HETATM   22  O   UNL     1     -11.263   6.233  66.844  1.00  0.00    -0.335 OA 
HETATM   23  C   UNL     1     -10.526   5.168  66.245  1.00  0.00    -0.289 C  
ENDBRANCH  19  22
BRANCH  21  24
HETATM   24  C   UNL     1     -10.558   6.345  69.601  1.00  0.00    -0.309 C  
BRANCH  24  25
HETATM   25  C   UNL     1     -10.241   6.602  71.057  1.00  0.00    -0.214 A  
HETATM   26  C   UNL     1      -9.198   5.924  71.703  1.00  0.00    -0.146 A  
HETATM   27  C   UNL     1      -9.022   6.020  73.088  1.00  0.00    -0.130 A  
HETATM   28  F   UNL     1      -8.389   5.130  70.983  1.00  0.00    -0.107 F  
HETATM   29  C   UNL     1      -9.889   6.800  73.850  1.00  0.00    -0.318 A  
HETATM   30 CL   UNL     1      -7.765   5.146  73.878  1.00  0.00    -0.098 Cl 
HETATM   31  C   UNL     1     -10.907   7.513  73.219  1.00  0.00    -0.409 A  
HETATM   32  C   UNL     1     -11.075   7.424  71.831  1.00  0.00    -0.276 A  
ENDBRANCH  24  25
ENDBRANCH  21  24
ENDBRANCH   1   8
TORSDOF 5
ENDMDL
MODEL       63
REMARK 921   NORMALIZED FREE ENERGY PREDICTED BY IDOCK:   -5.38 KCAL/MOL
REMARK 922        TOTAL FREE ENERGY PREDICTED BY IDOCK:   -8.10 KCAL/MOL
REMARK 923 INTER-LIGAND FREE ENERGY PREDICTED BY IDOCK:   -6.79 KCAL/MOL
REMARK 924 INTRA-LIGAND FREE ENERGY PREDICTED BY IDOCK:   -1.31 KCAL/MOL
REMARK 927      BINDING AFFINITY PREDICTED BY RF-SCORE:    0.00 PKD
ROOT
HETATM    1  C   UNL     1      -9.135   6.107  71.134  1.00  0.00    -0.146 C  
HETATM    2  C   UNL     1     -11.613   6.532  70.560  1.00  0.00    -0.455 C  
HETATM    3  C   UNL     1     -10.965   6.093  72.914  1.00  0.00    -0.294 C  
HETATM    4  C   UNL     1     -10.621   5.772  71.452  1.00  0.00    -0.313 C  
ENDROOT
BRANCH   1   5
HETATM    5  C   UNL     1      -8.145   5.240  71.954  1.00  0.00    -0.114 C  
HETATM    6  H   UNL     1      -6.188   5.091  72.191  1.00  0.00     0.000 HD 
HETATM    7  O   UNL     1      -6.795   5.621  71.688  1.00  0.00    -0.062 OA 
ENDBRANCH   1   5
BRANCH   1   8
HETATM    8  N   UNL     1      -8.842   6.000  69.654  1.00  0.00    -0.132 NA 
HETATM    9  C   UNL     1      -9.148   4.650  67.633  1.00  0.00    -0.133 C  
HETATM   10  C   UNL     1      -9.048   4.804  68.963  1.00  0.00    -0.114 C  
HETATM   11  C   UNL     1      -9.351   3.296  67.073  1.00  0.00    -0.169 C  
HETATM   12  C   UNL     1      -9.080   5.863  66.807  1.00  0.00    -0.128 C  
HETATM   13  C   UNL     1      -8.945   7.166  67.495  1.00  0.00    -0.121 A  
HETATM   14  O   UNL     1      -9.122   5.775  65.581  1.00  0.00    -0.149 OA 
HETATM   15  O   UNL     1      -9.496   2.299  67.766  1.00  0.00    -0.188 OA 
HETATM   16  O   UNL     1      -9.360   3.241  65.724  1.00  0.00    -0.154 OA 
HETATM   17  C   UNL     1      -8.764   7.200  68.889  1.00  0.00    -0.128 A  
HETATM   18  C   UNL     1      -8.497   8.462  69.443  1.00  0.00    -0.125 A  
HETATM   19  C   UNL     1      -8.516   9.649  68.687  1.00  0.00    -0.119 A  
HETATM   20  C   UNL     1      -8.979   8.338  66.723  1.00  0.00    -0.174 A  
HETATM   21  C   UNL     1      -8.775   9.598  67.307  1.00  0.00    -0.136 A  
BRANCH  19  22
HETATM   22  O   UNL     1      -8.250  10.886  69.222  1.00  0.00    -0.130 OA 
HETATM   23  C   UNL     1      -6.904  11.145  69.620  1.00  0.00    -0.117 C  
ENDBRANCH  19  22
BRANCH  21  24
HETATM   24  C   UNL     1      -8.733  10.822  66.417  1.00  0.00    -0.163 C  
BRANCH  24  25
HETATM   25  C   UNL     1     -10.021  11.583  66.195  1.00  0.00    -0.257 A  
HETATM   26  C   UNL     1     -10.775  11.408  65.026  1.00  0.00    -0.277 A  
HETATM   27  C   UNL     1     -11.861  12.241  64.736  1.00  0.00    -0.364 A  
HETATM   28  F   UNL     1     -10.412  10.457  64.150  1.00  0.00    -0.397 F  
HETATM   29  C   UNL     1     -12.212  13.264  65.614  1.00  0.00    -0.514 A  
HETATM   30 CL   UNL     1     -12.752  12.047  63.274  1.00  0.00    -0.603 Cl 
HETATM   31  C   UNL     1     -11.498  13.426  66.801  1.00  0.00    -0.376 A  
HETATM   32  C   UNL     1     -10.418  12.584  67.095  1.00  0.00    -0.237 A  
ENDBRANCH  24  25
ENDBRANCH  21  24
ENDBRANCH   1   8
TORSDOF 5
ENDMDL
MODEL       64
REMARK 921   NORMALIZED FREE ENERGY PREDICTED BY IDOCK:   -5.35 KCAL/MOL
REMARK 922        TOTAL FREE ENERGY PREDICTED BY IDOCK:   -8.05 KCAL/MOL
REMARK 923 INTER-LIGAND FREE ENERGY PREDICTED BY IDOCK:   -7.17 KCAL/MOL
REMARK 924 INTRA-LIGAND FREE ENERGY PREDICTED BY IDOCK:   -0.89 KCAL/MOL
REMARK 927      BINDING AFFINITY PREDICTED BY RF-SCORE:    0.00 PKD
ROOT
HETATM    1  C   UNL     1     -11.086  15.725  68.673  1.00  0.00    -0.327 C  
HETATM    2  C   UNL     1     -11.546  13.523  69.934  1.00  0.00    -0.271 C  
HETATM    3  C   UNL     1     -12.913  15.530  70.446  1.00  0.00    -0.252 C  
HETATM    4  C   UNL     1     -11.518  15.057  70.010  1.00  0.00    -0.310 C  
ENDROOT
BRANCH   1   5
HETATM    5  C   UNL     1     -10.940  17.264  68.801  1.00  0.00    -0.040 C  
HETATM    6  H   UNL     1     -10.695  18.810  67.595  1.00  0.00     0.000 HD 
HETATM    7  O   UNL     1     -10.784  17.868  67.517  1.00  0.00    -0.389 OA 
ENDBRANCH   1   5
BRANCH   1   8
HETATM    8  N   UNL     1      -9.817  15.110  68.125  1.00  0.00    -0.215 NA 
HETATM    9  C   UNL     1      -7.457  14.631  68.569  1.00  0.00    -0.120 C  
HETATM   10  C   UNL     1      -8.582  15.345  68.731  1.00  0.00    -0.190 C  
HETATM   11  C   UNL     1      -6.229  15.039  69.284  1.00  0.00    -0.111 C  
HETATM   12  C   UNL     1      -7.529  13.449  67.699  1.00  0.00    -0.178 C  
HETATM   13  C   UNL     1      -8.836  13.108  67.095  1.00  0.00    -0.222 A  
HETATM   14  O   UNL     1      -6.518  12.785  67.480  1.00  0.00    -0.141 OA 
HETATM   15  O   UNL     1      -6.193  15.970  70.077  1.00  0.00    -0.182 OA 
HETATM   16  O   UNL     1      -5.136  14.302  68.992  1.00  0.00    -0.075 OA 
HETATM   17  C   UNL     1      -9.928  13.977  67.268  1.00  0.00    -0.242 A  
HETATM   18  C   UNL     1     -11.087  13.657  66.544  1.00  0.00    -0.310 A  
HETATM   19  C   UNL     1     -11.211  12.483  65.776  1.00  0.00    -0.320 A  
HETATM   20  C   UNL     1      -8.939  11.927  66.344  1.00  0.00    -0.180 A  
HETATM   21  C   UNL     1     -10.130  11.591  65.680  1.00  0.00    -0.278 A  
BRANCH  19  22
HETATM   22  O   UNL     1     -12.340  12.167  65.060  1.00  0.00    -0.454 OA 
HETATM   23  C   UNL     1     -12.380  12.580  63.695  1.00  0.00    -0.522 C  
ENDBRANCH  19  22
BRANCH  21  24
HETATM   24  C   UNL     1     -10.161  10.352  64.811  1.00  0.00    -0.387 C  
BRANCH  24  25
HETATM   25  C   UNL     1      -9.407   9.131  65.288  1.00  0.00    -0.224 A  
HETATM   26  C   UNL     1      -9.780   8.461  66.462  1.00  0.00    -0.260 A  
HETATM   27  C   UNL     1      -8.978   7.451  67.003  1.00  0.00    -0.130 A  
HETATM   28  F   UNL     1     -10.900   8.835  67.100  1.00  0.00    -0.355 F  
HETATM   29  C   UNL     1      -7.787   7.092  66.375  1.00  0.00    -0.106 A  
HETATM   30 CL   UNL     1      -9.422   6.666  68.471  1.00  0.00    -0.124 Cl 
HETATM   31  C   UNL     1      -7.421   7.719  65.185  1.00  0.00    -0.083 A  
HETATM   32  C   UNL     1      -8.231   8.724  64.639  1.00  0.00    -0.166 A  
ENDBRANCH  24  25
ENDBRANCH  21  24
ENDBRANCH   1   8
TORSDOF 5
ENDMDL
MODEL       65
REMARK 921   NORMALIZED FREE ENERGY PREDICTED BY IDOCK:   -5.33 KCAL/MOL
REMARK 922        TOTAL FREE ENERGY PREDICTED BY IDOCK:   -8.03 KCAL/MOL
REMARK 923 INTER-LIGAND FREE ENERGY PREDICTED BY IDOCK:   -6.93 KCAL/MOL
REMARK 924 INTRA-LIGAND FREE ENERGY PREDICTED BY IDOCK:   -1.10 KCAL/MOL
REMARK 927      BINDING AFFINITY PREDICTED BY RF-SCORE:    0.00 PKD
ROOT
HETATM    1  C   UNL     1      -8.769   5.481  68.623  1.00  0.00    -0.108 C  
HETATM    2  C   UNL     1      -7.117   6.674  70.203  1.00  0.00    -0.075 C  
HETATM    3  C   UNL     1      -6.599   4.384  69.401  1.00  0.00    -0.040 C  
HETATM    4  C   UNL     1      -7.742   5.336  69.783  1.00  0.00    -0.073 C  
ENDROOT
BRANCH   1   5
HETATM    5  C   UNL     1      -9.484   4.145  68.295  1.00  0.00    -0.154 C  
HETATM    6  H   UNL     1     -10.208   2.596  69.287  1.00  0.00     0.000 HD 
HETATM    7  O   UNL     1      -9.769   3.414  69.487  1.00  0.00    -0.138 OA 
ENDBRANCH   1   5
BRANCH   1   8
HETATM    8  N   UNL     1      -9.777   6.573  68.901  1.00  0.00    -0.130 NA 
HETATM    9  C   UNL     1     -11.300   7.532  70.562  1.00  0.00    -0.279 C  
HETATM   10  C   UNL     1     -10.613   6.516  70.018  1.00  0.00    -0.230 C  
HETATM   11  C   UNL     1     -12.154   7.281  71.743  1.00  0.00    -0.319 C  
HETATM   12  C   UNL     1     -11.131   8.861  69.957  1.00  0.00    -0.170 C  
HETATM   13  C   UNL     1     -10.193   8.993  68.821  1.00  0.00    -0.226 A  
HETATM   14  O   UNL     1     -11.771   9.818  70.388  1.00  0.00    -0.261 OA 
HETATM   15  O   UNL     1     -12.224   6.194  72.300  1.00  0.00    -0.293 OA 
HETATM   16  O   UNL     1     -12.861   8.351  72.164  1.00  0.00    -0.338 OA 
HETATM   17  C   UNL     1      -9.591   7.843  68.280  1.00  0.00    -0.156 A  
HETATM   18  C   UNL     1      -8.832   8.038  67.115  1.00  0.00    -0.138 A  
HETATM   19  C   UNL     1      -8.582   9.310  66.568  1.00  0.00    -0.130 A  
HETATM   20  C   UNL     1      -9.949  10.273  68.299  1.00  0.00    -0.166 A  
HETATM   21  C   UNL     1      -9.132  10.453  67.171  1.00  0.00    -0.152 A  
BRANCH  19  22
HETATM   22  O   UNL     1      -7.845   9.507  65.425  1.00  0.00    -0.105 OA 
HETATM   23  C   UNL     1      -8.129   8.655  64.315  1.00  0.00    -0.158 C  
ENDBRANCH  19  22
BRANCH  21  24
HETATM   24  C   UNL     1      -8.973  11.844  66.595  1.00  0.00    -0.198 C  
BRANCH  24  25
HETATM   25  C   UNL     1     -10.207  12.536  66.060  1.00  0.00    -0.269 A  
HETATM   26  C   UNL     1     -10.968  11.967  65.029  1.00  0.00    -0.306 A  
HETATM   27  C   UNL     1     -11.995  12.686  64.408  1.00  0.00    -0.400 A  
HETATM   28  F   UNL     1     -10.667  10.731  64.599  1.00  0.00    -0.402 F  
HETATM   29  C   UNL     1     -12.280  13.989  64.812  1.00  0.00    -0.454 A  
HETATM   30 CL   UNL     1     -12.894  11.995  63.111  1.00  0.00    -0.435 Cl 
HETATM   31  C   UNL     1     -11.561  14.555  65.864  1.00  0.00    -0.349 A  
HETATM   32  C   UNL     1     -10.539  13.830  66.491  1.00  0.00    -0.279 A  
ENDBRANCH  24  25
ENDBRANCH  21  24
ENDBRANCH   1   8
TORSDOF 5
ENDMDL
MODEL       66
REMARK 921   NORMALIZED FREE ENERGY PREDICTED BY IDOCK:   -5.31 KCAL/MOL
REMARK 922        TOTAL FREE ENERGY PREDICTED BY IDOCK:   -8.00 KCAL/MOL
REMARK 923 INTER-LIGAND FREE ENERGY PREDICTED BY IDOCK:   -7.48 KCAL/MOL
REMARK 924 INTRA-LIGAND FREE ENERGY PREDICTED BY IDOCK:   -0.52 KCAL/MOL
REMARK 927      BINDING AFFINITY PREDICTED BY RF-SCORE:    0.00 PKD
ROOT
HETATM    1  C   UNL     1      -9.791  16.981  68.305  1.00  0.00    -0.278 C  
HETATM    2  C   UNL     1      -8.500  18.327  66.524  1.00  0.00    -0.287 C  
HETATM    3  C   UNL     1     -10.721  19.130  67.287  1.00  0.00    -0.585 C  
HETATM    4  C   UNL     1      -9.876  17.872  67.032  1.00  0.00    -0.314 C  
ENDROOT
BRANCH   1   5
HETATM    5  C   UNL     1     -11.175  16.427  68.733  1.00  0.00    -0.313 C  
HETATM    6  H   UNL     1     -12.114  15.989  70.416  1.00  0.00     0.000 HD 
HETATM    7  O   UNL     1     -11.266  16.328  70.154  1.00  0.00    -0.358 OA 
ENDBRANCH   1   5
BRANCH   1   8
HETATM    8  N   UNL     1      -8.793  15.857  68.135  1.00  0.00    -0.174 NA 
HETATM    9  C   UNL     1      -6.987  14.591  69.198  1.00  0.00    -0.131 C  
HETATM   10  C   UNL     1      -7.733  15.693  69.028  1.00  0.00    -0.199 C  
HETATM   11  C   UNL     1      -5.886  14.604  70.187  1.00  0.00    -0.139 C  
HETATM   12  C   UNL     1      -7.340  13.409  68.399  1.00  0.00    -0.112 C  
HETATM   13  C   UNL     1      -8.507  13.503  67.496  1.00  0.00    -0.192 A  
HETATM   14  O   UNL     1      -6.662  12.386  68.483  1.00  0.00    -0.066 OA 
HETATM   15  O   UNL     1      -5.651  15.559  70.915  1.00  0.00    -0.108 OA 
HETATM   16  O   UNL     1      -5.151  13.473  70.224  1.00  0.00    -0.090 OA 
HETATM   17  C   UNL     1      -9.163  14.736  67.336  1.00  0.00    -0.196 A  
HETATM   18  C   UNL     1     -10.165  14.775  66.353  1.00  0.00    -0.299 A  
HETATM   19  C   UNL     1     -10.582  13.636  65.639  1.00  0.00    -0.293 A  
HETATM   20  C   UNL     1      -8.913  12.352  66.803  1.00  0.00    -0.205 A  
HETATM   21  C   UNL     1      -9.962  12.398  65.871  1.00  0.00    -0.271 A  
BRANCH  19  22
HETATM   22  O   UNL     1     -11.557  13.669  64.672  1.00  0.00    -0.343 OA 
HETATM   23  C   UNL     1     -12.901  13.864  65.112  1.00  0.00    -0.342 C  
ENDBRANCH  19  22
BRANCH  21  24
HETATM   24  C   UNL     1     -10.301  11.148  65.086  1.00  0.00    -0.354 C  
BRANCH  24  25
HETATM   25  C   UNL     1      -9.937   9.810  65.690  1.00  0.00    -0.352 A  
HETATM   26  C   UNL     1     -10.439   9.418  66.939  1.00  0.00    -0.211 A  
HETATM   27  C   UNL     1      -9.962   8.270  67.581  1.00  0.00    -0.190 A  
HETATM   28  F   UNL     1     -11.355  10.188  67.547  1.00  0.00    -0.365 F  
HETATM   29  C   UNL     1      -8.973   7.493  66.981  1.00  0.00    -0.143 A  
HETATM   30 CL   UNL     1     -10.552   7.822  69.137  1.00  0.00    -0.218 Cl 
HETATM   31  C   UNL     1      -8.492   7.846  65.721  1.00  0.00    -0.152 A  
HETATM   32  C   UNL     1      -8.979   8.990  65.075  1.00  0.00    -0.198 A  
ENDBRANCH  24  25
ENDBRANCH  21  24
ENDBRANCH   1   8
TORSDOF 5
ENDMDL
MODEL       67
REMARK 921   NORMALIZED FREE ENERGY PREDICTED BY IDOCK:   -5.28 KCAL/MOL
REMARK 922        TOTAL FREE ENERGY PREDICTED BY IDOCK:   -7.97 KCAL/MOL
REMARK 923 INTER-LIGAND FREE ENERGY PREDICTED BY IDOCK:   -6.82 KCAL/MOL
REMARK 924 INTRA-LIGAND FREE ENERGY PREDICTED BY IDOCK:   -1.14 KCAL/MOL
REMARK 927      BINDING AFFINITY PREDICTED BY RF-SCORE:    0.00 PKD
ROOT
HETATM    1  C   UNL     1     -10.355   7.916  71.179  1.00  0.00    -0.200 C  
HETATM    2  C   UNL     1     -11.514   6.355  69.485  1.00  0.00    -0.412 C  
HETATM    3  C   UNL     1     -12.519   6.679  71.731  1.00  0.00    -0.360 C  
HETATM    4  C   UNL     1     -11.190   6.621  70.962  1.00  0.00    -0.349 C  
ENDROOT
BRANCH   1   5
HETATM    5  C   UNL     1      -9.928   8.105  72.658  1.00  0.00    -0.301 C  
HETATM    6  H   UNL     1      -8.418   8.906  73.649  1.00  0.00     0.000 HD 
HETATM    7  O   UNL     1      -8.679   8.789  72.744  1.00  0.00    -0.398 OA 
ENDBRANCH   1   5
BRANCH   1   8
HETATM    8  N   UNL     1      -9.151   7.965  70.264  1.00  0.00    -0.151 NA 
HETATM    9  C   UNL     1      -7.516   6.636  69.016  1.00  0.00    -0.095 C  
HETATM   10  C   UNL     1      -8.381   6.825  70.025  1.00  0.00    -0.135 C  
HETATM   11  C   UNL     1      -6.769   5.362  68.930  1.00  0.00    -0.053 C  
HETATM   12  C   UNL     1      -7.386   7.716  68.028  1.00  0.00    -0.099 C  
HETATM   13  C   UNL     1      -8.240   8.912  68.190  1.00  0.00    -0.114 A  
HETATM   14  O   UNL     1      -6.575   7.614  67.109  1.00  0.00    -0.059 OA 
HETATM   15  O   UNL     1      -6.944   4.429  69.702  1.00  0.00    -0.047 OA 
HETATM   16  O   UNL     1      -5.870   5.304  67.925  1.00  0.00    -0.016 OA 
HETATM   17  C   UNL     1      -9.051   9.038  69.332  1.00  0.00    -0.146 A  
HETATM   18  C   UNL     1      -9.715  10.265  69.481  1.00  0.00    -0.235 A  
HETATM   19  C   UNL     1      -9.679  11.279  68.505  1.00  0.00    -0.198 A  
HETATM   20  C   UNL     1      -8.197   9.905  67.198  1.00  0.00    -0.121 A  
HETATM   21  C   UNL     1      -8.923  11.099  67.335  1.00  0.00    -0.139 A  
BRANCH  19  22
HETATM   22  O   UNL     1     -10.323  12.484  68.647  1.00  0.00    -0.225 OA 
HETATM   23  C   UNL     1     -11.749  12.470  68.584  1.00  0.00    -0.325 C  
ENDBRANCH  19  22
BRANCH  21  24
HETATM   24  C   UNL     1      -8.772  12.175  66.280  1.00  0.00     0.017 C  
BRANCH  24  25
HETATM   25  C   UNL     1      -9.892  12.349  65.279  1.00  0.00    -0.180 A  
HETATM   26  C   UNL     1     -10.541  13.582  65.124  1.00  0.00    -0.355 A  
HETATM   27  C   UNL     1     -11.693  13.699  64.338  1.00  0.00    -0.411 A  
HETATM   28  F   UNL     1     -10.075  14.654  65.785  1.00  0.00    -0.282 F  
HETATM   29  C   UNL     1     -12.214  12.580  63.691  1.00  0.00    -0.642 A  
HETATM   30 CL   UNL     1     -12.510  15.208  64.192  1.00  0.00    -0.244 Cl 
HETATM   31  C   UNL     1     -11.558  11.354  63.801  1.00  0.00    -0.167 A  
HETATM   32  C   UNL     1     -10.399  11.242  64.580  1.00  0.00    -0.381 A  
ENDBRANCH  24  25
ENDBRANCH  21  24
ENDBRANCH   1   8
TORSDOF 5
ENDMDL
MODEL       68
REMARK 921   NORMALIZED FREE ENERGY PREDICTED BY IDOCK:   -5.24 KCAL/MOL
REMARK 922        TOTAL FREE ENERGY PREDICTED BY IDOCK:   -7.91 KCAL/MOL
REMARK 923 INTER-LIGAND FREE ENERGY PREDICTED BY IDOCK:   -7.47 KCAL/MOL
REMARK 924 INTRA-LIGAND FREE ENERGY PREDICTED BY IDOCK:   -0.44 KCAL/MOL
REMARK 927      BINDING AFFINITY PREDICTED BY RF-SCORE:    0.00 PKD
ROOT
HETATM    1  C   UNL     1     -10.959  11.470  68.761  1.00  0.00    -0.222 C  
HETATM    2  C   UNL     1     -11.724  12.150  66.394  1.00  0.00    -0.394 C  
HETATM    3  C   UNL     1     -10.630   9.950  66.737  1.00  0.00    -0.214 C  
HETATM    4  C   UNL     1     -10.677  11.403  67.232  1.00  0.00    -0.283 C  
ENDROOT
BRANCH   1   5
HETATM    5  C   UNL     1      -9.829  10.821  69.601  1.00  0.00     0.083 C  
HETATM    6  H   UNL     1      -9.669   9.468  71.034  1.00  0.00     0.000 HD 
HETATM    7  O   UNL     1     -10.361   9.867  70.519  1.00  0.00    -0.286 OA 
ENDBRANCH   1   5
BRANCH   1   8
HETATM    8  N   UNL     1     -11.220  12.887  69.220  1.00  0.00    -0.224 NA 
HETATM    9  C   UNL     1     -12.388  14.293  70.850  1.00  0.00    -0.429 C  
HETATM   10  C   UNL     1     -12.249  13.176  70.118  1.00  0.00    -0.290 C  
HETATM   11  C   UNL     1     -13.559  14.434  71.744  1.00  0.00    -0.395 C  
HETATM   12  C   UNL     1     -11.333  15.309  70.737  1.00  0.00    -0.331 C  
HETATM   13  C   UNL     1     -10.178  15.017  69.860  1.00  0.00    -0.101 A  
HETATM   14  O   UNL     1     -11.433  16.370  71.351  1.00  0.00    -0.399 OA 
HETATM   15  O   UNL     1     -14.390  13.550  71.904  1.00  0.00    -0.221 OA 
HETATM   16  O   UNL     1     -13.645  15.624  72.374  1.00  0.00    -0.475 OA 
HETATM   17  C   UNL     1     -10.179  13.850  69.076  1.00  0.00    -0.059 A  
HETATM   18  C   UNL     1      -9.119  13.722  68.165  1.00  0.00    -0.194 A  
HETATM   19  C   UNL     1      -8.049  14.635  68.100  1.00  0.00    -0.137 A  
HETATM   20  C   UNL     1      -9.117  15.936  69.821  1.00  0.00     0.097 A  
HETATM   21  C   UNL     1      -8.032  15.755  68.948  1.00  0.00    -0.197 A  
BRANCH  19  22
HETATM   22  O   UNL     1      -7.013  14.518  67.207  1.00  0.00    -0.214 OA 
HETATM   23  C   UNL     1      -6.126  13.413  67.383  1.00  0.00     0.071 C  
ENDBRANCH  19  22
BRANCH  21  24
HETATM   24  C   UNL     1      -6.959  16.820  68.882  1.00  0.00    -0.207 C  
BRANCH  24  25
HETATM   25  C   UNL     1      -7.115  17.921  67.857  1.00  0.00    -0.210 A  
HETATM   26  C   UNL     1      -8.119  18.891  67.981  1.00  0.00    -0.292 A  
HETATM   27  C   UNL     1      -8.383  19.795  66.946  1.00  0.00    -0.311 A  
HETATM   28  F   UNL     1      -8.871  18.915  69.093  1.00  0.00    -0.316 F  
HETATM   29  C   UNL     1      -7.642  19.744  65.767  1.00  0.00    -0.301 A  
HETATM   30 CL   UNL     1      -9.651  20.953  67.091  1.00  0.00    -0.493 Cl 
HETATM   31  C   UNL     1      -6.612  18.812  65.643  1.00  0.00    -0.308 A  
HETATM   32  C   UNL     1      -6.342  17.915  66.685  1.00  0.00    -0.218 A  
ENDBRANCH  24  25
ENDBRANCH  21  24
ENDBRANCH   1   8
TORSDOF 5
ENDMDL
MODEL       69
REMARK 921   NORMALIZED FREE ENERGY PREDICTED BY IDOCK:   -5.23 KCAL/MOL
REMARK 922        TOTAL FREE ENERGY PREDICTED BY IDOCK:   -7.90 KCAL/MOL
REMARK 923 INTER-LIGAND FREE ENERGY PREDICTED BY IDOCK:   -7.22 KCAL/MOL
REMARK 924 INTRA-LIGAND FREE ENERGY PREDICTED BY IDOCK:   -0.68 KCAL/MOL
REMARK 927      BINDING AFFINITY PREDICTED BY RF-SCORE:    0.00 PKD
ROOT
HETATM    1  C   UNL     1      -7.956  10.306  64.173  1.00  0.00    -0.126 C  
HETATM    2  C   UNL     1      -5.834  10.620  65.604  1.00  0.00    -0.133 C  
HETATM    3  C   UNL     1      -5.620   9.806  63.270  1.00  0.00    -0.092 C  
HETATM    4  C   UNL     1      -6.526   9.793  64.511  1.00  0.00    -0.112 C  
ENDROOT
BRANCH   1   5
HETATM    5  C   UNL     1      -8.689   9.388  63.160  1.00  0.00    -0.213 C  
HETATM    6  H   UNL     1     -10.074   9.573  61.762  1.00  0.00     0.000 HD 
HETATM    7  O   UNL     1      -9.625  10.134  62.383  1.00  0.00    -0.276 OA 
ENDBRANCH   1   5
BRANCH   1   8
HETATM    8  N   UNL     1      -8.789  10.501  65.419  1.00  0.00    -0.180 NA 
HETATM    9  C   UNL     1     -10.449  11.919  66.530  1.00  0.00    -0.256 C  
HETATM   10  C   UNL     1      -9.440  11.710  65.669  1.00  0.00    -0.209 C  
HETATM   11  C   UNL     1     -11.008  13.280  66.676  1.00  0.00    -0.283 C  
HETATM   12  C   UNL     1     -10.962  10.752  67.262  1.00  0.00    -0.297 C  
HETATM   13  C   UNL     1     -10.361   9.432  66.974  1.00  0.00    -0.322 A  
HETATM   14  O   UNL     1     -11.855  10.894  68.096  1.00  0.00    -0.564 OA 
HETATM   15  O   UNL     1     -10.640  14.232  66.002  1.00  0.00    -0.288 OA 
HETATM   16  O   UNL     1     -11.964  13.397  67.622  1.00  0.00    -0.348 OA 
HETATM   17  C   UNL     1      -9.252   9.346  66.114  1.00  0.00    -0.190 A  
HETATM   18  C   UNL     1      -8.653   8.081  66.010  1.00  0.00    -0.162 A  
HETATM   19  C   UNL     1      -9.179   6.931  66.629  1.00  0.00    -0.157 A  
HETATM   20  C   UNL     1     -10.910   8.297  67.593  1.00  0.00    -0.083 A  
HETATM   21  C   UNL     1     -10.334   7.028  67.423  1.00  0.00    -0.313 A  
BRANCH  19  22
HETATM   22  O   UNL     1      -8.594   5.691  66.536  1.00  0.00    -0.116 OA 
HETATM   23  C   UNL     1      -8.510   5.110  65.235  1.00  0.00    -0.144 C  
ENDBRANCH  19  22
BRANCH  21  24
HETATM   24  C   UNL     1     -10.910   5.853  68.183  1.00  0.00    -0.323 C  
BRANCH  24  25
HETATM   25  C   UNL     1     -10.505   5.676  69.629  1.00  0.00    -0.374 A  
HETATM   26  C   UNL     1     -11.097   6.436  70.647  1.00  0.00    -0.317 A  
HETATM   27  C   UNL     1     -10.597   6.408  71.954  1.00  0.00    -0.214 A  
HETATM   28  F   UNL     1     -12.128   7.242  70.347  1.00  0.00    -0.275 F  
HETATM   29  C   UNL     1      -9.494   5.615  72.264  1.00  0.00    -0.160 A  
HETATM   30 CL   UNL     1     -11.304   7.382  73.188  1.00  0.00    -0.294 Cl 
HETATM   31  C   UNL     1      -8.918   4.821  71.273  1.00  0.00    -0.162 A  
HETATM   32  C   UNL     1      -9.427   4.842  69.968  1.00  0.00    -0.234 A  
ENDBRANCH  24  25
ENDBRANCH  21  24
ENDBRANCH   1   8
TORSDOF 5
ENDMDL
MODEL       70
REMARK 921   NORMALIZED FREE ENERGY PREDICTED BY IDOCK:   -5.18 KCAL/MOL
REMARK 922        TOTAL FREE ENERGY PREDICTED BY IDOCK:   -7.84 KCAL/MOL
REMARK 923 INTER-LIGAND FREE ENERGY PREDICTED BY IDOCK:   -7.13 KCAL/MOL
REMARK 924 INTRA-LIGAND FREE ENERGY PREDICTED BY IDOCK:   -0.70 KCAL/MOL
REMARK 927      BINDING AFFINITY PREDICTED BY RF-SCORE:    0.00 PKD
ROOT
HETATM    1  C   UNL     1      -9.042   8.720  65.973  1.00  0.00    -0.213 C  
HETATM    2  C   UNL     1      -7.177   9.674  64.470  1.00  0.00    -0.121 C  
HETATM    3  C   UNL     1      -8.076   7.408  64.008  1.00  0.00    -0.031 C  
HETATM    4  C   UNL     1      -7.773   8.419  65.124  1.00  0.00    -0.097 C  
ENDROOT
BRANCH   1   5
HETATM    5  C   UNL     1      -9.559   7.469  66.729  1.00  0.00    -0.206 C  
HETATM    6  H   UNL     1     -11.093   6.990  67.880  1.00  0.00     0.000 HD 
HETATM    7  O   UNL     1     -10.776   7.756  67.417  1.00  0.00    -0.278 OA 
ENDBRANCH   1   5
BRANCH   1   8
HETATM    8  N   UNL     1      -8.814   9.868  66.932  1.00  0.00    -0.134 NA 
HETATM    9  C   UNL     1      -7.210  10.947  68.436  1.00  0.00    -0.087 C  
HETATM   10  C   UNL     1      -7.712   9.883  67.789  1.00  0.00    -0.091 C  
HETATM   11  C   UNL     1      -6.039  10.771  69.322  1.00  0.00    -0.045 C  
HETATM   12  C   UNL     1      -7.849  12.247  68.191  1.00  0.00    -0.148 C  
HETATM   13  C   UNL     1      -8.970  12.301  67.228  1.00  0.00    -0.187 A  
HETATM   14  O   UNL     1      -7.458  13.246  68.792  1.00  0.00    -0.107 OA 
HETATM   15  O   UNL     1      -5.453   9.705  69.455  1.00  0.00    -0.034 OA 
HETATM   16  O   UNL     1      -5.662  11.886  69.983  1.00  0.00    -0.106 OA 
HETATM   17  C   UNL     1      -9.467  11.108  66.673  1.00  0.00    -0.183 A  
HETATM   18  C   UNL     1     -10.622  11.232  65.885  1.00  0.00    -0.309 A  
HETATM   19  C   UNL     1     -11.200  12.475  65.563  1.00  0.00    -0.314 A  
HETATM   20  C   UNL     1      -9.523  13.552  66.912  1.00  0.00    -0.258 A  
HETATM   21  C   UNL     1     -10.640  13.660  66.068  1.00  0.00    -0.290 A  
BRANCH  19  22
HETATM   22  O   UNL     1     -12.333  12.602  64.798  1.00  0.00    -0.446 OA 
HETATM   23  C   UNL     1     -12.266  12.123  63.455  1.00  0.00    -0.567 C  
ENDBRANCH  19  22
BRANCH  21  24
HETATM   24  C   UNL     1     -11.251  15.024  65.831  1.00  0.00    -0.313 C  
BRANCH  24  25
HETATM   25  C   UNL     1     -11.027  16.093  66.877  1.00  0.00    -0.094 A  
HETATM   26  C   UNL     1     -10.778  17.424  66.512  1.00  0.00    -0.086 A  
HETATM   27  C   UNL     1     -10.388  18.373  67.464  1.00  0.00    -0.393 A  
HETATM   28  F   UNL     1     -10.866  17.775  65.219  1.00  0.00    -0.411 F  
HETATM   29  C   UNL     1     -10.244  18.005  68.800  1.00  0.00    -0.362 A  
HETATM   30 CL   UNL     1     -10.039  19.995  66.998  1.00  0.00    -0.564 Cl 
HETATM   31  C   UNL     1     -10.527  16.696  69.187  1.00  0.00    -0.333 A  
HETATM   32  C   UNL     1     -10.928  15.750  68.234  1.00  0.00    -0.325 A  
ENDBRANCH  24  25
ENDBRANCH  21  24
ENDBRANCH   1   8
TORSDOF 5
ENDMDL
MODEL       71
REMARK 921   NORMALIZED FREE ENERGY PREDICTED BY IDOCK:   -5.18 KCAL/MOL
REMARK 922        TOTAL FREE ENERGY PREDICTED BY IDOCK:   -7.83 KCAL/MOL
REMARK 923 INTER-LIGAND FREE ENERGY PREDICTED BY IDOCK:   -6.76 KCAL/MOL
REMARK 924 INTRA-LIGAND FREE ENERGY PREDICTED BY IDOCK:   -1.07 KCAL/MOL
REMARK 927      BINDING AFFINITY PREDICTED BY RF-SCORE:    0.00 PKD
ROOT
HETATM    1  C   UNL     1     -10.752   7.792  71.916  1.00  0.00    -0.225 C  
HETATM    2  C   UNL     1     -11.305   6.478  69.768  1.00  0.00    -0.456 C  
HETATM    3  C   UNL     1     -12.539   5.969  71.859  1.00  0.00     0.286 C  
HETATM    4  C   UNL     1     -11.186   6.432  71.298  1.00  0.00    -0.346 C  
ENDROOT
BRANCH   1   5
HETATM    5  C   UNL     1     -10.514   7.697  73.446  1.00  0.00    -0.301 C  
HETATM    6  H   UNL     1      -9.780   6.386  74.730  1.00  0.00     0.000 HD 
HETATM    7  O   UNL     1      -9.927   6.444  73.793  1.00  0.00    -0.187 OA 
ENDBRANCH   1   5
BRANCH   1   8
HETATM    8  N   UNL     1      -9.536   8.361  71.220  1.00  0.00    -0.170 NA 
HETATM    9  C   UNL     1      -7.326   7.857  70.294  1.00  0.00    -0.065 C  
HETATM   10  C   UNL     1      -8.347   7.635  71.137  1.00  0.00    -0.111 C  
HETATM   11  C   UNL     1      -6.129   6.990  70.361  1.00  0.00    -0.027 C  
HETATM   12  C   UNL     1      -7.479   8.947  69.322  1.00  0.00    -0.075 C  
HETATM   13  C   UNL     1      -8.754   9.697  69.313  1.00  0.00    -0.159 A  
HETATM   14  O   UNL     1      -6.556   9.223  68.557  1.00  0.00    -0.053 OA 
HETATM   15  O   UNL     1      -6.039   6.027  71.110  1.00  0.00    -0.032 OA 
HETATM   16  O   UNL     1      -5.130   7.345  69.525  1.00  0.00    -0.015 OA 
HETATM   17  C   UNL     1      -9.722   9.432  70.298  1.00  0.00    -0.246 A  
HETATM   18  C   UNL     1     -10.837  10.285  70.307  1.00  0.00    -0.349 A  
HETATM   19  C   UNL     1     -11.050  11.278  69.333  1.00  0.00    -0.257 A  
HETATM   20  C   UNL     1      -8.950  10.674  68.324  1.00  0.00    -0.143 A  
HETATM   21  C   UNL     1     -10.105  11.473  68.312  1.00  0.00    -0.205 A  
BRANCH  19  22
HETATM   22  O   UNL     1     -12.136  12.119  69.340  1.00  0.00    -0.268 OA 
HETATM   23  C   UNL     1     -12.183  13.109  70.368  1.00  0.00    -0.316 C  
ENDBRANCH  19  22
BRANCH  21  24
HETATM   24  C   UNL     1     -10.226  12.572  67.278  1.00  0.00    -0.222 C  
BRANCH  24  25
HETATM   25  C   UNL     1     -10.867  12.230  65.951  1.00  0.00    -0.306 A  
HETATM   26  C   UNL     1     -10.154  11.549  64.955  1.00  0.00    -0.270 A  
HETATM   27  C   UNL     1     -10.679  11.396  63.667  1.00  0.00    -0.401 A  
HETATM   28  F   UNL     1      -8.925  11.083  65.232  1.00  0.00    -0.191 F  
HETATM   29  C   UNL     1     -11.931  11.922  63.355  1.00  0.00    -0.528 A  
HETATM   30 CL   UNL     1      -9.774  10.598  62.437  1.00  0.00    -0.176 Cl 
HETATM   31  C   UNL     1     -12.671  12.567  64.346  1.00  0.00    -0.447 A  
HETATM   32  C   UNL     1     -12.148  12.710  65.637  1.00  0.00    -0.502 A  
ENDBRANCH  24  25
ENDBRANCH  21  24
ENDBRANCH   1   8
TORSDOF 5
ENDMDL
MODEL       72
REMARK 921   NORMALIZED FREE ENERGY PREDICTED BY IDOCK:   -5.12 KCAL/MOL
REMARK 922        TOTAL FREE ENERGY PREDICTED BY IDOCK:   -7.75 KCAL/MOL
REMARK 923 INTER-LIGAND FREE ENERGY PREDICTED BY IDOCK:   -7.51 KCAL/MOL
REMARK 924 INTRA-LIGAND FREE ENERGY PREDICTED BY IDOCK:   -0.25 KCAL/MOL
REMARK 927      BINDING AFFINITY PREDICTED BY RF-SCORE:    0.00 PKD
ROOT
HETATM    1  C   UNL     1     -11.000  12.859  66.765  1.00  0.00    -0.272 C  
HETATM    2  C   UNL     1      -9.019  14.105  67.848  1.00  0.00    -0.185 C  
HETATM    3  C   UNL     1      -9.883  14.865  65.650  1.00  0.00    -0.372 C  
HETATM    4  C   UNL     1      -9.669  13.632  66.539  1.00  0.00    -0.298 C  
ENDROOT
BRANCH   1   5
HETATM    5  C   UNL     1     -11.579  12.279  65.448  1.00  0.00    -0.363 C  
HETATM    6  H   UNL     1     -13.284  12.345  64.451  1.00  0.00     0.000 HD 
HETATM    7  O   UNL     1     -12.930  12.699  65.257  1.00  0.00    -0.657 OA 
ENDBRANCH   1   5
BRANCH   1   8
HETATM    8  N   UNL     1     -10.847  11.773  67.806  1.00  0.00    -0.203 NA 
HETATM    9  C   UNL     1     -11.745  10.832  69.881  1.00  0.00    -0.412 C  
HETATM   10  C   UNL     1     -11.524  11.842  69.025  1.00  0.00    -0.297 C  
HETATM   11  C   UNL     1     -12.472  11.096  71.143  1.00  0.00    -0.393 C  
HETATM   12  C   UNL     1     -11.268   9.499  69.489  1.00  0.00    -0.074 C  
HETATM   13  C   UNL     1     -10.616   9.355  68.169  1.00  0.00    -0.261 A  
HETATM   14  O   UNL     1     -11.404   8.548  70.256  1.00  0.00    -0.232 OA 
HETATM   15  O   UNL     1     -12.946  12.188  71.427  1.00  0.00    -0.368 OA 
HETATM   16  O   UNL     1     -12.572  10.032  71.967  1.00  0.00    -0.372 OA 
HETATM   17  C   UNL     1     -10.363  10.498  67.391  1.00  0.00    -0.224 A  
HETATM   18  C   UNL     1      -9.611  10.292  66.223  1.00  0.00    -0.238 A  
HETATM   19  C   UNL     1      -9.221   9.014  65.780  1.00  0.00    -0.232 A  
HETATM   20  C   UNL     1     -10.246   8.070  67.741  1.00  0.00    -0.282 A  
HETATM   21  C   UNL     1      -9.552   7.878  66.536  1.00  0.00    -0.281 A  
BRANCH  19  22
HETATM   22  O   UNL     1      -8.480   8.806  64.641  1.00  0.00    -0.169 OA 
HETATM   23  C   UNL     1      -7.297   9.590  64.485  1.00  0.00    -0.114 C  
ENDBRANCH  19  22
BRANCH  21  24
HETATM   24  C   UNL     1      -9.098   6.482  66.165  1.00  0.00    -0.146 C  
BRANCH  24  25
HETATM   25  C   UNL     1      -8.694   5.547  67.283  1.00  0.00    -0.107 A  
HETATM   26  C   UNL     1      -9.195   4.239  67.351  1.00  0.00    -0.150 A  
HETATM   27  C   UNL     1      -8.971   3.438  68.476  1.00  0.00    -0.134 A  
HETATM   28  F   UNL     1      -9.944   3.772  66.340  1.00  0.00    -0.208 F  
HETATM   29  C   UNL     1      -8.239   3.933  69.553  1.00  0.00    -0.066 A  
HETATM   30 CL   UNL     1      -9.631   1.849  68.570  1.00  0.00    -0.218 Cl 
HETATM   31  C   UNL     1      -7.698   5.217  69.485  1.00  0.00    -0.068 A  
HETATM   32  C   UNL     1      -7.914   6.014  68.353  1.00  0.00    -0.107 A  
ENDBRANCH  24  25
ENDBRANCH  21  24
ENDBRANCH   1   8
TORSDOF 5
ENDMDL
MODEL       73
REMARK 921   NORMALIZED FREE ENERGY PREDICTED BY IDOCK:   -5.10 KCAL/MOL
REMARK 922        TOTAL FREE ENERGY PREDICTED BY IDOCK:   -7.74 KCAL/MOL
REMARK 923 INTER-LIGAND FREE ENERGY PREDICTED BY IDOCK:   -6.78 KCAL/MOL
REMARK 924 INTRA-LIGAND FREE ENERGY PREDICTED BY IDOCK:   -0.96 KCAL/MOL
REMARK 927      BINDING AFFINITY PREDICTED BY RF-SCORE:    0.00 PKD
ROOT
HETATM    1  C   UNL     1     -10.019  14.580  68.389  1.00  0.00    -0.241 C  
HETATM    2  C   UNL     1      -8.459  15.506  66.557  1.00  0.00    -0.283 C  
HETATM    3  C   UNL     1      -8.749  16.777  68.669  1.00  0.00    -0.255 C  
HETATM    4  C   UNL     1      -9.456  15.843  67.675  1.00  0.00    -0.219 C  
ENDROOT
BRANCH   1   5
HETATM    5  C   UNL     1     -11.117  14.927  69.428  1.00  0.00    -0.280 C  
HETATM    6  H   UNL     1     -12.958  14.348  69.854  1.00  0.00     0.000 HD 
HETATM    7  O   UNL     1     -12.285  14.135  69.217  1.00  0.00    -0.332 OA 
ENDBRANCH   1   5
BRANCH   1   8
HETATM    8  N   UNL     1     -10.525  13.556  67.398  1.00  0.00    -0.247 NA 
HETATM    9  C   UNL     1     -11.423  13.204  65.147  1.00  0.00    -0.327 C  
HETATM   10  C   UNL     1     -11.212  13.944  66.247  1.00  0.00    -0.309 C  
HETATM   11  C   UNL     1     -12.193  13.779  64.022  1.00  0.00    -0.380 C  
HETATM   12  C   UNL     1     -10.837  11.857  65.119  1.00  0.00    -0.300 C  
HETATM   13  C   UNL     1     -10.030  11.425  66.281  1.00  0.00    -0.259 A  
HETATM   14  O   UNL     1     -11.038  11.120  64.155  1.00  0.00    -0.317 OA 
HETATM   15  O   UNL     1     -12.604  14.931  64.011  1.00  0.00    -0.832 OA 
HETATM   16  O   UNL     1     -12.414  12.927  62.999  1.00  0.00    -0.534 OA 
HETATM   17  C   UNL     1      -9.946  12.253  67.414  1.00  0.00    -0.201 A  
HETATM   18  C   UNL     1      -9.284  11.707  68.525  1.00  0.00    -0.163 A  
HETATM   19  C   UNL     1      -8.638  10.457  68.493  1.00  0.00    -0.134 A  
HETATM   20  C   UNL     1      -9.384  10.180  66.222  1.00  0.00    -0.214 A  
HETATM   21  C   UNL     1      -8.670   9.681  67.323  1.00  0.00    -0.136 A  
BRANCH  19  22
HETATM   22  O   UNL     1      -7.994   9.915  69.579  1.00  0.00    -0.116 OA 
HETATM   23  C   UNL     1      -6.736  10.485  69.938  1.00  0.00    -0.142 C  
ENDBRANCH  19  22
BRANCH  21  24
HETATM   24  C   UNL     1      -8.068   8.294  67.239  1.00  0.00    -0.109 C  
BRANCH  24  25
HETATM   25  C   UNL     1      -7.678   7.771  65.874  1.00  0.00    -0.094 A  
HETATM   26  C   UNL     1      -6.641   8.363  65.140  1.00  0.00    -0.063 A  
HETATM   27  C   UNL     1      -6.402   8.004  63.809  1.00  0.00    -0.067 A  
HETATM   28  F   UNL     1      -5.901   9.326  65.712  1.00  0.00    -0.050 F  
HETATM   29  C   UNL     1      -7.199   7.043  63.190  1.00  0.00    -0.073 A  
HETATM   30 CL   UNL     1      -5.155   8.771  62.901  1.00  0.00    -0.067 Cl 
HETATM   31  C   UNL     1      -8.209   6.415  63.918  1.00  0.00     0.034 A  
HETATM   32  C   UNL     1      -8.439   6.768  65.254  1.00  0.00    -0.067 A  
ENDBRANCH  24  25
ENDBRANCH  21  24
ENDBRANCH   1   8
TORSDOF 5
ENDMDL
MODEL       74
REMARK 921   NORMALIZED FREE ENERGY PREDICTED BY IDOCK:   -5.08 KCAL/MOL
REMARK 922        TOTAL FREE ENERGY PREDICTED BY IDOCK:   -7.70 KCAL/MOL
REMARK 923 INTER-LIGAND FREE ENERGY PREDICTED BY IDOCK:   -7.60 KCAL/MOL
REMARK 924 INTRA-LIGAND FREE ENERGY PREDICTED BY IDOCK:   -0.10 KCAL/MOL
REMARK 927      BINDING AFFINITY PREDICTED BY RF-SCORE:    0.00 PKD
ROOT
HETATM    1  C   UNL     1      -7.584   8.593  64.408  1.00  0.00    -0.115 C  
HETATM    2  C   UNL     1      -5.678  10.286  64.794  1.00  0.00    -0.130 C  
HETATM    3  C   UNL     1      -5.163   8.080  63.779  1.00  0.00    -0.041 C  
HETATM    4  C   UNL     1      -6.086   8.806  64.771  1.00  0.00    -0.065 C  
ENDROOT
BRANCH   1   5
HETATM    5  C   UNL     1      -8.013   7.106  64.512  1.00  0.00    -0.104 C  
HETATM    6  H   UNL     1      -8.492   5.637  63.279  1.00  0.00     0.000 HD 
HETATM    7  O   UNL     1      -8.230   6.548  63.216  1.00  0.00    -0.065 OA 
ENDBRANCH   1   5
BRANCH   1   8
HETATM    8  N   UNL     1      -8.491   9.471  65.241  1.00  0.00    -0.140 NA 
HETATM    9  C   UNL     1     -10.359  11.054  65.195  1.00  0.00    -0.346 C  
HETATM   10  C   UNL     1      -9.294  10.446  64.648  1.00  0.00    -0.254 C  
HETATM   11  C   UNL     1     -11.085  12.083  64.418  1.00  0.00    -0.342 C  
HETATM   12  C   UNL     1     -10.760  10.627  66.542  1.00  0.00    -0.151 C  
HETATM   13  C   UNL     1      -9.991   9.539  67.185  1.00  0.00    -0.261 A  
HETATM   14  O   UNL     1     -11.700  11.183  67.108  1.00  0.00    -0.501 OA 
HETATM   15  O   UNL     1     -10.805  12.373  63.263  1.00  0.00    -0.432 OA 
HETATM   16  O   UNL     1     -12.090  12.686  65.087  1.00  0.00    -0.407 OA 
HETATM   17  C   UNL     1      -8.842   9.033  66.552  1.00  0.00    -0.135 A  
HETATM   18  C   UNL     1      -8.090   8.109  67.293  1.00  0.00    -0.121 A  
HETATM   19  C   UNL     1      -8.500   7.618  68.547  1.00  0.00    -0.129 A  
HETATM   20  C   UNL     1     -10.426   9.056  68.430  1.00  0.00    -0.234 A  
HETATM   21  C   UNL     1      -9.693   8.082  69.125  1.00  0.00    -0.163 A  
BRANCH  19  22
HETATM   22  O   UNL     1      -7.766   6.717  69.280  1.00  0.00    -0.101 OA 
HETATM   23  C   UNL     1      -7.702   5.379  68.788  1.00  0.00    -0.083 C  
ENDBRANCH  19  22
BRANCH  21  24
HETATM   24  C   UNL     1     -10.157   7.660  70.504  1.00  0.00    -0.189 C  
BRANCH  24  25
HETATM   25  C   UNL     1     -11.548   8.065  70.938  1.00  0.00    -0.284 A  
HETATM   26  C   UNL     1     -11.847   9.394  71.269  1.00  0.00    -0.360 A  
HETATM   27  C   UNL     1     -13.075   9.737  71.846  1.00  0.00    -0.446 A  
HETATM   28  F   UNL     1     -10.916  10.342  71.075  1.00  0.00    -0.384 F  
HETATM   29  C   UNL     1     -14.027   8.751  72.100  1.00  0.00    -0.522 A  
HETATM   30 CL   UNL     1     -13.414  11.366  72.291  1.00  0.00    -0.289 Cl 
HETATM   31  C   UNL     1     -13.762   7.430  71.739  1.00  0.00    -0.417 A  
HETATM   32  C   UNL     1     -12.537   7.091  71.152  1.00  0.00    -0.387 A  
ENDBRANCH  24  25
ENDBRANCH  21  24
ENDBRANCH   1   8
TORSDOF 5
ENDMDL
MODEL       75
REMARK 921   NORMALIZED FREE ENERGY PREDICTED BY IDOCK:   -5.05 KCAL/MOL
REMARK 922        TOTAL FREE ENERGY PREDICTED BY IDOCK:   -7.66 KCAL/MOL
REMARK 923 INTER-LIGAND FREE ENERGY PREDICTED BY IDOCK:   -7.09 KCAL/MOL
REMARK 924 INTRA-LIGAND FREE ENERGY PREDICTED BY IDOCK:   -0.57 KCAL/MOL
REMARK 927      BINDING AFFINITY PREDICTED BY RF-SCORE:    0.00 PKD
ROOT
HETATM    1  C   UNL     1      -8.769   9.804  67.151  1.00  0.00    -0.132 C  
HETATM    2  C   UNL     1     -10.564   9.301  68.933  1.00  0.00    -0.222 C  
HETATM    3  C   UNL     1     -10.527   7.980  66.833  1.00  0.00    -0.387 C  
HETATM    4  C   UNL     1     -10.234   9.363  67.434  1.00  0.00    -0.298 C  
ENDROOT
BRANCH   1   5
HETATM    5  C   UNL     1      -8.487   9.984  65.637  1.00  0.00    -0.148 C  
HETATM    6  H   UNL     1      -6.917   9.994  64.437  1.00  0.00     0.000 HD 
HETATM    7  O   UNL     1      -7.090   9.885  65.364  1.00  0.00    -0.107 OA 
ENDBRANCH   1   5
BRANCH   1   8
HETATM    8  N   UNL     1      -8.404  11.057  67.916  1.00  0.00    -0.121 NA 
HETATM    9  C   UNL     1      -6.738  12.119  69.363  1.00  0.00    -0.056 C  
HETATM   10  C   UNL     1      -7.378  11.051  68.862  1.00  0.00    -0.111 C  
HETATM   11  C   UNL     1      -5.680  11.922  70.378  1.00  0.00    -0.163 C  
HETATM   12  C   UNL     1      -7.116  13.438  68.837  1.00  0.00    -0.084 C  
HETATM   13  C   UNL     1      -8.142  13.494  67.773  1.00  0.00    -0.177 A  
HETATM   14  O   UNL     1      -6.593  14.454  69.292  1.00  0.00    -0.107 OA 
HETATM   15  O   UNL     1      -5.305  10.818  70.749  1.00  0.00    -0.086 OA 
HETATM   16  O   UNL     1      -5.155  13.063  70.871  1.00  0.00    -0.113 OA 
HETATM   17  C   UNL     1      -8.805  12.317  67.385  1.00  0.00    -0.185 A  
HETATM   18  C   UNL     1      -9.864  12.480  66.477  1.00  0.00    -0.251 A  
HETATM   19  C   UNL     1     -10.186  13.718  65.890  1.00  0.00    -0.313 A  
HETATM   20  C   UNL     1      -8.439  14.738  67.193  1.00  0.00    -0.247 A  
HETATM   21  C   UNL     1      -9.458  14.869  66.237  1.00  0.00    -0.339 A  
BRANCH  19  22
HETATM   22  O   UNL     1     -11.224  13.885  65.006  1.00  0.00    -0.317 OA 
HETATM   23  C   UNL     1     -12.542  13.653  65.502  1.00  0.00    -0.496 C  
ENDBRANCH  19  22
BRANCH  21  24
HETATM   24  C   UNL     1      -9.798  16.247  65.710  1.00  0.00    -0.332 C  
BRANCH  24  25
HETATM   25  C   UNL     1      -9.202  17.443  66.417  1.00  0.00    -0.272 A  
HETATM   26  C   UNL     1      -9.894  18.093  67.449  1.00  0.00    -0.313 A  
HETATM   27  C   UNL     1      -9.432  19.305  67.977  1.00  0.00    -0.335 A  
HETATM   28  F   UNL     1     -11.043  17.567  67.900  1.00  0.00    -0.365 F  
HETATM   29  C   UNL     1      -8.267  19.886  67.479  1.00  0.00    -0.358 A  
HETATM   30 CL   UNL     1     -10.314  20.119  69.213  1.00  0.00    -0.237 Cl 
HETATM   31  C   UNL     1      -7.546  19.232  66.481  1.00  0.00    -0.264 A  
HETATM   32  C   UNL     1      -8.003  18.014  65.962  1.00  0.00    -0.156 A  
ENDBRANCH  24  25
ENDBRANCH  21  24
ENDBRANCH   1   8
TORSDOF 5
ENDMDL
MODEL       76
REMARK 921   NORMALIZED FREE ENERGY PREDICTED BY IDOCK:   -5.04 KCAL/MOL
REMARK 922        TOTAL FREE ENERGY PREDICTED BY IDOCK:   -7.66 KCAL/MOL
REMARK 923 INTER-LIGAND FREE ENERGY PREDICTED BY IDOCK:   -6.38 KCAL/MOL
REMARK 924 INTRA-LIGAND FREE ENERGY PREDICTED BY IDOCK:   -1.28 KCAL/MOL
REMARK 927      BINDING AFFINITY PREDICTED BY RF-SCORE:    0.00 PKD
ROOT
HETATM    1  C   UNL     1      -9.342   6.156  70.929  1.00  0.00    -0.158 C  
HETATM    2  C   UNL     1     -11.751   6.538  70.094  1.00  0.00    -0.419 C  
HETATM    3  C   UNL     1     -11.343   6.178  72.514  1.00  0.00    -0.328 C  
HETATM    4  C   UNL     1     -10.850   5.816  71.105  1.00  0.00    -0.316 C  
ENDROOT
BRANCH   1   5
HETATM    5  C   UNL     1      -8.434   5.325  71.872  1.00  0.00    -0.126 C  
HETATM    6  H   UNL     1      -6.940   5.657  73.124  1.00  0.00     0.000 HD 
HETATM    7  O   UNL     1      -7.497   6.165  72.546  1.00  0.00    -0.095 OA 
ENDBRANCH   1   5
BRANCH   1   8
HETATM    8  N   UNL     1      -8.899   6.005  69.491  1.00  0.00    -0.124 NA 
HETATM    9  C   UNL     1      -9.051   4.629  67.471  1.00  0.00    -0.134 C  
HETATM   10  C   UNL     1      -9.085   4.806  68.801  1.00  0.00    -0.112 C  
HETATM   11  C   UNL     1      -9.254   3.274  66.913  1.00  0.00    -0.174 C  
HETATM   12  C   UNL     1      -8.841   5.821  66.638  1.00  0.00    -0.121 C  
HETATM   13  C   UNL     1      -8.720   7.130  67.315  1.00  0.00    -0.120 A  
HETATM   14  O   UNL     1      -8.757   5.710  65.416  1.00  0.00    -0.153 OA 
HETATM   15  O   UNL     1      -9.517   2.298  67.603  1.00  0.00    -0.168 OA 
HETATM   16  O   UNL     1      -9.124   3.192  65.572  1.00  0.00    -0.143 OA 
HETATM   17  C   UNL     1      -8.686   7.185  68.720  1.00  0.00    -0.124 A  
HETATM   18  C   UNL     1      -8.422   8.445  69.278  1.00  0.00    -0.125 A  
HETATM   19  C   UNL     1      -8.307   9.617  68.507  1.00  0.00    -0.117 A  
HETATM   20  C   UNL     1      -8.619   8.287  66.525  1.00  0.00    -0.141 A  
HETATM   21  C   UNL     1      -8.421   9.549  67.108  1.00  0.00    -0.131 A  
BRANCH  19  22
HETATM   22  O   UNL     1      -8.043  10.852  69.047  1.00  0.00    -0.142 OA 
HETATM   23  C   UNL     1      -6.698  11.111  69.447  1.00  0.00    -0.120 C  
ENDBRANCH  19  22
BRANCH  21  24
HETATM   24  C   UNL     1      -8.229  10.751  66.208  1.00  0.00    -0.162 C  
BRANCH  24  25
HETATM   25  C   UNL     1      -9.463  11.411  65.634  1.00  0.00    -0.253 A  
HETATM   26  C   UNL     1     -10.097  12.467  66.302  1.00  0.00    -0.250 A  
HETATM   27  C   UNL     1     -11.336  12.955  65.872  1.00  0.00    -0.312 A  
HETATM   28  F   UNL     1      -9.526  12.982  67.403  1.00  0.00    -0.189 F  
HETATM   29  C   UNL     1     -11.961  12.392  64.761  1.00  0.00    -0.462 A  
HETATM   30 CL   UNL     1     -12.129  14.222  66.727  1.00  0.00    -0.466 Cl 
HETATM   31  C   UNL     1     -11.325  11.368  64.060  1.00  0.00    -0.291 A  
HETATM   32  C   UNL     1     -10.079  10.889  64.486  1.00  0.00    -0.404 A  
ENDBRANCH  24  25
ENDBRANCH  21  24
ENDBRANCH   1   8
TORSDOF 5
ENDMDL
MODEL       77
REMARK 921   NORMALIZED FREE ENERGY PREDICTED BY IDOCK:   -5.04 KCAL/MOL
REMARK 922        TOTAL FREE ENERGY PREDICTED BY IDOCK:   -7.65 KCAL/MOL
REMARK 923 INTER-LIGAND FREE ENERGY PREDICTED BY IDOCK:   -8.53 KCAL/MOL
REMARK 924 INTRA-LIGAND FREE ENERGY PREDICTED BY IDOCK:    0.88 KCAL/MOL
REMARK 927      BINDING AFFINITY PREDICTED BY RF-SCORE:    0.00 PKD
ROOT
HETATM    1  C   UNL     1     -11.603  14.443  67.175  1.00  0.00    -0.386 C  
HETATM    2  C   UNL     1      -9.453  15.644  67.940  1.00  0.00    -0.204 C  
HETATM    3  C   UNL     1     -10.041  15.614  65.529  1.00  0.00    -0.395 C  
HETATM    4  C   UNL     1     -10.130  14.815  66.839  1.00  0.00    -0.246 C  
ENDROOT
BRANCH   1   5
HETATM    5  C   UNL     1     -12.232  13.502  66.115  1.00  0.00    -0.433 C  
HETATM    6  H   UNL     1     -13.709  13.565  64.803  1.00  0.00     0.000 HD 
HETATM    7  O   UNL     1     -13.324  14.140  65.452  1.00  0.00    -0.705 OA 
ENDBRANCH   1   5
BRANCH   1   8
HETATM    8  N   UNL     1     -11.727  13.848  68.560  1.00  0.00    -0.334 NA 
HETATM    9  C   UNL     1     -12.981  13.887  70.663  1.00  0.00    -0.219 C  
HETATM   10  C   UNL     1     -12.522  14.452  69.535  1.00  0.00    -0.125 C  
HETATM   11  C   UNL     1     -13.802  14.690  71.595  1.00  0.00    -0.440 C  
HETATM   12  C   UNL     1     -12.659  12.471  70.886  1.00  0.00    -0.241 C  
HETATM   13  C   UNL     1     -11.888  11.760  69.844  1.00  0.00    -0.423 A  
HETATM   14  O   UNL     1     -13.017  11.916  71.924  1.00  0.00    -0.409 OA 
HETATM   15  O   UNL     1     -14.145  15.842  71.365  1.00  0.00    -0.370 OA 
HETATM   16  O   UNL     1     -14.148  14.052  72.733  1.00  0.00    -0.636 OA 
HETATM   17  C   UNL     1     -11.386  12.476  68.742  1.00  0.00    -0.293 A  
HETATM   18  C   UNL     1     -10.543  11.760  67.878  1.00  0.00    -0.231 A  
HETATM   19  C   UNL     1     -10.292  10.382  68.020  1.00  0.00    -0.179 A  
HETATM   20  C   UNL     1     -11.660  10.384  70.000  1.00  0.00    -0.378 A  
HETATM   21  C   UNL     1     -10.867   9.671  69.086  1.00  0.00    -0.212 A  
BRANCH  19  22
HETATM   22  O   UNL     1      -9.464   9.677  67.180  1.00  0.00    -0.143 OA 
HETATM   23  C   UNL     1      -8.806  10.413  66.150  1.00  0.00    -0.158 C  
ENDBRANCH  19  22
BRANCH  21  24
HETATM   24  C   UNL     1     -10.579   8.209  69.350  1.00  0.00    -0.206 C  
BRANCH  24  25
HETATM   25  C   UNL     1      -9.424   7.569  68.612  1.00  0.00    -0.146 A  
HETATM   26  C   UNL     1      -9.635   6.817  67.448  1.00  0.00    -0.134 A  
HETATM   27  C   UNL     1      -8.600   6.074  66.870  1.00  0.00    -0.108 A  
HETATM   28  F   UNL     1     -10.865   6.772  66.912  1.00  0.00    -0.346 F  
HETATM   29  C   UNL     1      -7.332   6.073  67.449  1.00  0.00    -0.077 A  
HETATM   30 CL   UNL     1      -8.880   5.116  65.466  1.00  0.00    -0.146 Cl 
HETATM   31  C   UNL     1      -7.095   6.847  68.585  1.00  0.00    -0.085 A  
HETATM   32  C   UNL     1      -8.130   7.599  69.155  1.00  0.00    -0.125 A  
ENDBRANCH  24  25
ENDBRANCH  21  24
ENDBRANCH   1   8
TORSDOF 5
ENDMDL
MODEL       78
REMARK 921   NORMALIZED FREE ENERGY PREDICTED BY IDOCK:   -5.03 KCAL/MOL
REMARK 922        TOTAL FREE ENERGY PREDICTED BY IDOCK:   -7.65 KCAL/MOL
REMARK 923 INTER-LIGAND FREE ENERGY PREDICTED BY IDOCK:   -6.88 KCAL/MOL
REMARK 924 INTRA-LIGAND FREE ENERGY PREDICTED BY IDOCK:   -0.76 KCAL/MOL
REMARK 927      BINDING AFFINITY PREDICTED BY RF-SCORE:    0.00 PKD
ROOT
HETATM    1  C   UNL     1     -10.915   8.603  70.396  1.00  0.00    -0.235 C  
HETATM    2  C   UNL     1     -10.941   6.484  68.928  1.00  0.00    -0.376 C  
HETATM    3  C   UNL     1     -12.443   6.621  70.898  1.00  0.00    -0.183 C  
HETATM    4  C   UNL     1     -11.078   7.057  70.346  1.00  0.00    -0.323 C  
ENDROOT
BRANCH   1   5
HETATM    5  C   UNL     1     -10.930   9.153  71.846  1.00  0.00    -0.301 C  
HETATM    6  H   UNL     1     -10.067   8.733  73.574  1.00  0.00     0.000 HD 
HETATM    7  O   UNL     1     -10.059   8.396  72.686  1.00  0.00    -0.292 OA 
ENDBRANCH   1   5
BRANCH   1   8
HETATM    8  N   UNL     1      -9.673   9.059  69.663  1.00  0.00    -0.168 NA 
HETATM    9  C   UNL     1      -7.566   8.349  68.637  1.00  0.00    -0.102 C  
HETATM   10  C   UNL     1      -8.572   8.215  69.516  1.00  0.00    -0.134 C  
HETATM   11  C   UNL     1      -6.466   7.359  68.636  1.00  0.00    -0.044 C  
HETATM   12  C   UNL     1      -7.640   9.475  67.696  1.00  0.00    -0.094 C  
HETATM   13  C   UNL     1      -8.827  10.354  67.755  1.00  0.00    -0.128 A  
HETATM   14  O   UNL     1      -6.723   9.671  66.900  1.00  0.00    -0.073 OA 
HETATM   15  O   UNL     1      -6.451   6.373  69.360  1.00  0.00    -0.036 OA 
HETATM   16  O   UNL     1      -5.468   7.629  67.769  1.00  0.00    -0.029 OA 
HETATM   17  C   UNL     1      -9.780  10.168  68.773  1.00  0.00    -0.172 A  
HETATM   18  C   UNL     1     -10.796  11.133  68.847  1.00  0.00    -0.261 A  
HETATM   19  C   UNL     1     -10.940  12.168  67.903  1.00  0.00    -0.229 A  
HETATM   20  C   UNL     1      -8.956  11.372  66.797  1.00  0.00    -0.177 A  
HETATM   21  C   UNL     1     -10.018  12.288  66.850  1.00  0.00    -0.223 A  
BRANCH  19  22
HETATM   22  O   UNL     1     -11.929  13.118  67.973  1.00  0.00    -0.351 OA 
HETATM   23  C   UNL     1     -11.961  13.936  69.142  1.00  0.00    -0.363 C  
ENDBRANCH  19  22
BRANCH  21  24
HETATM   24  C   UNL     1     -10.061  13.420  65.845  1.00  0.00    -0.300 C  
BRANCH  24  25
HETATM   25  C   UNL     1      -9.549  14.775  66.281  1.00  0.00    -0.339 A  
HETATM   26  C   UNL     1     -10.269  15.946  66.003  1.00  0.00    -0.334 A  
HETATM   27  C   UNL     1      -9.713  17.209  66.239  1.00  0.00    -0.278 A  
HETATM   28  F   UNL     1     -11.491  15.848  65.456  1.00  0.00    -0.169 F  
HETATM   29  C   UNL     1      -8.425  17.320  66.758  1.00  0.00    -0.275 A  
HETATM   30 CL   UNL     1     -10.588  18.641  65.851  1.00  0.00    -0.463 Cl 
HETATM   31  C   UNL     1      -7.711  16.165  67.078  1.00  0.00    -0.256 A  
HETATM   32  C   UNL     1      -8.273  14.902  66.852  1.00  0.00    -0.178 A  
ENDBRANCH  24  25
ENDBRANCH  21  24
ENDBRANCH   1   8
TORSDOF 5
ENDMDL
MODEL       79
REMARK 921   NORMALIZED FREE ENERGY PREDICTED BY IDOCK:   -5.01 KCAL/MOL
REMARK 922        TOTAL FREE ENERGY PREDICTED BY IDOCK:   -7.62 KCAL/MOL
REMARK 923 INTER-LIGAND FREE ENERGY PREDICTED BY IDOCK:   -6.83 KCAL/MOL
REMARK 924 INTRA-LIGAND FREE ENERGY PREDICTED BY IDOCK:   -0.79 KCAL/MOL
REMARK 927      BINDING AFFINITY PREDICTED BY RF-SCORE:    0.00 PKD
ROOT
HETATM    1  C   UNL     1      -7.901   7.911  70.248  1.00  0.00    -0.089 C  
HETATM    2  C   UNL     1      -7.990   8.387  72.781  1.00  0.00    -0.156 C  
HETATM    3  C   UNL     1      -5.916   7.455  71.788  1.00  0.00    -0.036 C  
HETATM    4  C   UNL     1      -7.448   7.474  71.671  1.00  0.00    -0.083 C  
ENDROOT
BRANCH   1   5
HETATM    5  C   UNL     1      -7.451   6.911  69.151  1.00  0.00    -0.095 C  
HETATM    6  H   UNL     1      -7.476   4.956  68.861  1.00  0.00     0.000 HD 
HETATM    7  O   UNL     1      -7.751   5.568  69.533  1.00  0.00    -0.079 OA 
ENDBRANCH   1   5
BRANCH   1   8
HETATM    8  N   UNL     1      -9.394   8.141  70.183  1.00  0.00    -0.158 NA 
HETATM    9  C   UNL     1     -11.565   7.563  71.157  1.00  0.00    -0.304 C  
HETATM   10  C   UNL     1     -10.284   7.302  70.856  1.00  0.00    -0.196 C  
HETATM   11  C   UNL     1     -12.367   6.541  71.865  1.00  0.00    -0.288 C  
HETATM   12  C   UNL     1     -12.090   8.883  70.783  1.00  0.00    -0.107 C  
HETATM   13  C   UNL     1     -11.165   9.842  70.140  1.00  0.00    -0.324 A  
HETATM   14  O   UNL     1     -13.270   9.158  70.995  1.00  0.00    -0.200 OA 
HETATM   15  O   UNL     1     -11.904   5.477  72.254  1.00  0.00    -0.163 OA 
HETATM   16  O   UNL     1     -13.663   6.871  72.050  1.00  0.00    -0.211 OA 
HETATM   17  C   UNL     1      -9.865   9.430  69.797  1.00  0.00    -0.201 A  
HETATM   18  C   UNL     1      -9.104  10.350  69.060  1.00  0.00    -0.193 A  
HETATM   19  C   UNL     1      -9.550  11.654  68.768  1.00  0.00    -0.072 A  
HETATM   20  C   UNL     1     -11.627  11.140  69.869  1.00  0.00    -0.416 A  
HETATM   21  C   UNL     1     -10.824  12.069  69.188  1.00  0.00    -0.175 A  
BRANCH  19  22
HETATM   22  O   UNL     1      -8.812  12.557  68.043  1.00  0.00    -0.174 OA 
HETATM   23  C   UNL     1      -8.228  12.090  66.827  1.00  0.00    -0.110 C  
ENDBRANCH  19  22
BRANCH  21  24
HETATM   24  C   UNL     1     -11.403  13.424  68.843  1.00  0.00    -0.331 C  
BRANCH  24  25
HETATM   25  C   UNL     1     -11.468  13.818  67.384  1.00  0.00    -0.372 A  
HETATM   26  C   UNL     1     -11.014  15.071  66.950  1.00  0.00    -0.324 A  
HETATM   27  C   UNL     1     -11.241  15.508  65.640  1.00  0.00    -0.155 A  
HETATM   28  F   UNL     1     -10.398  15.883  67.824  1.00  0.00    -0.253 F  
HETATM   29  C   UNL     1     -11.927  14.694  64.741  1.00  0.00    -0.439 A  
HETATM   30 CL   UNL     1     -10.721  17.069  65.130  1.00  0.00    -0.196 Cl 
HETATM   31  C   UNL     1     -12.349  13.427  65.144  1.00  0.00    -0.501 A  
HETATM   32  C   UNL     1     -12.111  12.988  66.452  1.00  0.00    -0.428 A  
ENDBRANCH  24  25
ENDBRANCH  21  24
ENDBRANCH   1   8
TORSDOF 5
ENDMDL
MODEL       80
REMARK 921   NORMALIZED FREE ENERGY PREDICTED BY IDOCK:   -4.97 KCAL/MOL
REMARK 922        TOTAL FREE ENERGY PREDICTED BY IDOCK:   -7.56 KCAL/MOL
REMARK 923 INTER-LIGAND FREE ENERGY PREDICTED BY IDOCK:   -7.01 KCAL/MOL
REMARK 924 INTRA-LIGAND FREE ENERGY PREDICTED BY IDOCK:   -0.55 KCAL/MOL
REMARK 927      BINDING AFFINITY PREDICTED BY RF-SCORE:    0.00 PKD
ROOT
HETATM    1  C   UNL     1     -11.649   9.180  71.666  1.00  0.00    -0.379 C  
HETATM    2  C   UNL     1     -13.972   9.418  70.573  1.00  0.00     0.641 C  
HETATM    3  C   UNL     1     -13.805   8.664  72.931  1.00  0.00    -0.036 C  
HETATM    4  C   UNL     1     -13.102   8.634  71.566  1.00  0.00    -0.339 C  
ENDROOT
BRANCH   1   5
HETATM    5  C   UNL     1     -10.748   8.304  72.575  1.00  0.00    -0.341 C  
HETATM    6  H   UNL     1      -8.824   8.135  72.994  1.00  0.00     0.000 HD 
HETATM    7  O   UNL     1      -9.376   8.671  72.437  1.00  0.00    -0.282 OA 
ENDBRANCH   1   5
BRANCH   1   8
HETATM    8  N   UNL     1     -11.022   9.356  70.301  1.00  0.00    -0.249 NA 
HETATM    9  C   UNL     1     -10.350   8.229  68.234  1.00  0.00    -0.242 C  
HETATM   10  C   UNL     1     -10.607   8.255  69.551  1.00  0.00    -0.213 C  
HETATM   11  C   UNL     1      -9.900   6.966  67.606  1.00  0.00    -0.134 C  
HETATM   12  C   UNL     1     -10.565   9.472  67.480  1.00  0.00    -0.275 C  
HETATM   13  C   UNL     1     -11.083  10.648  68.213  1.00  0.00    -0.334 A  
HETATM   14  O   UNL     1     -10.302   9.516  66.280  1.00  0.00    -0.244 OA 
HETATM   15  O   UNL     1      -9.807   5.911  68.218  1.00  0.00    -0.126 OA 
HETATM   16  O   UNL     1      -9.595   7.067  66.296  1.00  0.00    -0.137 OA 
HETATM   17  C   UNL     1     -11.237  10.584  69.609  1.00  0.00    -0.282 A  
HETATM   18  C   UNL     1     -11.592  11.785  70.243  1.00  0.00    -0.210 A  
HETATM   19  C   UNL     1     -11.891  12.965  69.536  1.00  0.00    -0.320 A  
HETATM   20  C   UNL     1     -11.387  11.810  67.486  1.00  0.00    -0.377 A  
HETATM   21  C   UNL     1     -11.804  12.983  68.134  1.00  0.00    -0.381 A  
BRANCH  19  22
HETATM   22  O   UNL     1     -12.233  14.145  70.151  1.00  0.00    -0.313 OA 
HETATM   23  C   UNL     1     -11.315  14.666  71.111  1.00  0.00    -0.040 C  
ENDBRANCH  19  22
BRANCH  21  24
HETATM   24  C   UNL     1     -12.033  14.234  67.312  1.00  0.00    -0.439 C  
BRANCH  24  25
HETATM   25  C   UNL     1     -11.041  15.366  67.453  1.00  0.00    -0.311 A  
HETATM   26  C   UNL     1      -9.729  15.246  66.973  1.00  0.00    -0.226 A  
HETATM   27  C   UNL     1      -8.761  16.213  67.264  1.00  0.00    -0.183 A  
HETATM   28  F   UNL     1      -9.389  14.156  66.266  1.00  0.00    -0.278 F  
HETATM   29  C   UNL     1      -9.092  17.321  68.042  1.00  0.00    -0.249 A  
HETATM   30 CL   UNL     1      -7.140  16.032  66.709  1.00  0.00    -0.178 Cl 
HETATM   31  C   UNL     1     -10.402  17.478  68.493  1.00  0.00    -0.380 A  
HETATM   32  C   UNL     1     -11.372  16.513  68.191  1.00  0.00    -0.150 A  
ENDBRANCH  24  25
ENDBRANCH  21  24
ENDBRANCH   1   8
TORSDOF 5
ENDMDL
MODEL       81
REMARK 921   NORMALIZED FREE ENERGY PREDICTED BY IDOCK:   -4.96 KCAL/MOL
REMARK 922        TOTAL FREE ENERGY PREDICTED BY IDOCK:   -7.55 KCAL/MOL
REMARK 923 INTER-LIGAND FREE ENERGY PREDICTED BY IDOCK:   -6.85 KCAL/MOL
REMARK 924 INTRA-LIGAND FREE ENERGY PREDICTED BY IDOCK:   -0.70 KCAL/MOL
REMARK 927      BINDING AFFINITY PREDICTED BY RF-SCORE:    0.00 PKD
ROOT
HETATM    1  C   UNL     1      -9.753  15.015  67.609  1.00  0.00    -0.215 C  
HETATM    2  C   UNL     1     -11.620  14.759  69.368  1.00  0.00    -0.342 C  
HETATM    3  C   UNL     1      -9.804  16.406  69.748  1.00  0.00     0.088 C  
HETATM    4  C   UNL     1     -10.132  15.045  69.117  1.00  0.00    -0.245 C  
ENDROOT
BRANCH   1   5
HETATM    5  C   UNL     1      -8.228  15.180  67.379  1.00  0.00    -0.193 C  
HETATM    6  H   UNL     1      -7.037  16.186  66.164  1.00  0.00     0.000 HD 
HETATM    7  O   UNL     1      -7.970  16.084  66.305  1.00  0.00    -0.240 OA 
ENDBRANCH   1   5
BRANCH   1   8
HETATM    8  N   UNL     1     -10.264  13.765  66.928  1.00  0.00    -0.258 NA 
HETATM    9  C   UNL     1     -11.288  12.853  64.899  1.00  0.00    -0.340 C  
HETATM   10  C   UNL     1     -11.046  13.841  65.774  1.00  0.00    -0.289 C  
HETATM   11  C   UNL     1     -12.160  13.113  63.733  1.00  0.00    -0.495 C  
HETATM   12  C   UNL     1     -10.631  11.561  65.143  1.00  0.00    -0.293 C  
HETATM   13  C   UNL     1      -9.727  11.450  66.308  1.00  0.00    -0.239 A  
HETATM   14  O   UNL     1     -10.853  10.608  64.398  1.00  0.00    -0.120 OA 
HETATM   15  O   UNL     1     -12.634  14.212  63.482  1.00  0.00    -0.834 OA 
HETATM   16  O   UNL     1     -12.401  12.034  62.959  1.00  0.00    -0.360 OA 
HETATM   17  C   UNL     1      -9.615  12.527  67.206  1.00  0.00    -0.205 A  
HETATM   18  C   UNL     1      -8.852  12.287  68.359  1.00  0.00    -0.137 A  
HETATM   19  C   UNL     1      -8.141  11.091  68.573  1.00  0.00    -0.140 A  
HETATM   20  C   UNL     1      -9.018  10.252  66.494  1.00  0.00    -0.161 A  
HETATM   21  C   UNL     1      -8.207  10.058  67.624  1.00  0.00    -0.114 A  
BRANCH  19  22
HETATM   22  O   UNL     1      -7.398  10.849  69.702  1.00  0.00    -0.134 OA 
HETATM   23  C   UNL     1      -6.336  11.759  69.988  1.00  0.00    -0.092 C  
ENDBRANCH  19  22
BRANCH  21  24
HETATM   24  C   UNL     1      -7.535   8.715  67.822  1.00  0.00    -0.097 C  
BRANCH  24  25
HETATM   25  C   UNL     1      -8.417   7.495  67.965  1.00  0.00    -0.123 A  
HETATM   26  C   UNL     1      -9.309   7.367  69.039  1.00  0.00    -0.145 A  
HETATM   27  C   UNL     1      -9.987   6.166  69.276  1.00  0.00    -0.158 A  
HETATM   28  F   UNL     1      -9.471   8.400  69.882  1.00  0.00    -0.161 F  
HETATM   29  C   UNL     1      -9.785   5.072  68.438  1.00  0.00    -0.209 A  
HETATM   30 CL   UNL     1     -11.045   6.004  70.626  1.00  0.00    -0.377 Cl 
HETATM   31  C   UNL     1      -8.932   5.195  67.341  1.00  0.00    -0.109 A  
HETATM   32  C   UNL     1      -8.263   6.401  67.099  1.00  0.00    -0.113 A  
ENDBRANCH  24  25
ENDBRANCH  21  24
ENDBRANCH   1   8
TORSDOF 5
ENDMDL
MODEL       82
REMARK 921   NORMALIZED FREE ENERGY PREDICTED BY IDOCK:   -4.96 KCAL/MOL
REMARK 922        TOTAL FREE ENERGY PREDICTED BY IDOCK:   -7.55 KCAL/MOL
REMARK 923 INTER-LIGAND FREE ENERGY PREDICTED BY IDOCK:   -6.30 KCAL/MOL
REMARK 924 INTRA-LIGAND FREE ENERGY PREDICTED BY IDOCK:   -1.25 KCAL/MOL
REMARK 927      BINDING AFFINITY PREDICTED BY RF-SCORE:    0.00 PKD
ROOT
HETATM    1  C   UNL     1     -10.216  13.845  66.619  1.00  0.00    -0.276 C  
HETATM    2  C   UNL     1     -12.147  12.441  65.647  1.00  0.00    -0.396 C  
HETATM    3  C   UNL     1     -11.623  14.650  64.646  1.00  0.00    -0.406 C  
HETATM    4  C   UNL     1     -11.624  13.850  65.958  1.00  0.00    -0.359 C  
ENDROOT
BRANCH   1   5
HETATM    5  C   UNL     1      -9.756  15.265  67.042  1.00  0.00    -0.226 C  
HETATM    6  H   UNL     1      -8.424  16.602  66.454  1.00  0.00     0.000 HD 
HETATM    7  O   UNL     1      -8.706  15.732  66.196  1.00  0.00    -0.325 OA 
ENDBRANCH   1   5
BRANCH   1   8
HETATM    8  N   UNL     1     -10.151  12.890  67.790  1.00  0.00    -0.223 NA 
HETATM    9  C   UNL     1     -11.376  11.947  69.689  1.00  0.00    -0.266 C  
HETATM   10  C   UNL     1     -11.120  12.914  68.795  1.00  0.00    -0.263 C  
HETATM   11  C   UNL     1     -12.437  12.154  70.699  1.00  0.00    -0.242 C  
HETATM   12  C   UNL     1     -10.592  10.708  69.585  1.00  0.00    -0.217 C  
HETATM   13  C   UNL     1      -9.608  10.599  68.487  1.00  0.00    -0.175 A  
HETATM   14  O   UNL     1     -10.754   9.808  70.407  1.00  0.00    -0.264 OA 
HETATM   15  O   UNL     1     -13.149  13.149  70.728  1.00  0.00    -0.066 OA 
HETATM   16  O   UNL     1     -12.561  11.155  71.598  1.00  0.00    -0.351 OA 
HETATM   17  C   UNL     1      -9.364  11.709  67.659  1.00  0.00    -0.178 A  
HETATM   18  C   UNL     1      -8.314  11.570  66.739  1.00  0.00    -0.165 A  
HETATM   19  C   UNL     1      -7.608  10.365  66.558  1.00  0.00    -0.118 A  
HETATM   20  C   UNL     1      -8.925   9.384  68.318  1.00  0.00    -0.128 A  
HETATM   21  C   UNL     1      -7.922   9.244  67.346  1.00  0.00    -0.106 A  
BRANCH  19  22
HETATM   22  O   UNL     1      -6.576  10.224  65.663  1.00  0.00    -0.107 OA 
HETATM   23  C   UNL     1      -6.926  10.037  64.293  1.00  0.00    -0.128 C  
ENDBRANCH  19  22
BRANCH  21  24
HETATM   24  C   UNL     1      -7.154   7.942  67.265  1.00  0.00    -0.083 C  
BRANCH  24  25
HETATM   25  C   UNL     1      -7.927   6.652  67.432  1.00  0.00    -0.114 A  
HETATM   26  C   UNL     1      -8.755   6.165  66.412  1.00  0.00    -0.138 A  
HETATM   27  C   UNL     1      -9.609   5.079  66.631  1.00  0.00    -0.158 A  
HETATM   28  F   UNL     1      -8.763   6.788  65.222  1.00  0.00    -0.140 F  
HETATM   29  C   UNL     1      -9.646   4.459  67.879  1.00  0.00    -0.205 A  
HETATM   30 CL   UNL     1     -10.658   4.517  65.385  1.00  0.00    -0.258 Cl 
HETATM   31  C   UNL     1      -8.798   4.904  68.893  1.00  0.00    -0.115 A  
HETATM   32  C   UNL     1      -7.936   5.986  68.668  1.00  0.00    -0.104 A  
ENDBRANCH  24  25
ENDBRANCH  21  24
ENDBRANCH   1   8
TORSDOF 5
ENDMDL
MODEL       83
REMARK 921   NORMALIZED FREE ENERGY PREDICTED BY IDOCK:   -4.94 KCAL/MOL
REMARK 922        TOTAL FREE ENERGY PREDICTED BY IDOCK:   -7.52 KCAL/MOL
REMARK 923 INTER-LIGAND FREE ENERGY PREDICTED BY IDOCK:   -6.23 KCAL/MOL
REMARK 924 INTRA-LIGAND FREE ENERGY PREDICTED BY IDOCK:   -1.29 KCAL/MOL
REMARK 927      BINDING AFFINITY PREDICTED BY RF-SCORE:    0.00 PKD
ROOT
HETATM    1  C   UNL     1      -9.112   5.734  67.969  1.00  0.00    -0.110 C  
HETATM    2  C   UNL     1      -7.424   5.971  69.904  1.00  0.00    -0.080 C  
HETATM    3  C   UNL     1      -7.328   3.969  68.442  1.00  0.00    -0.059 C  
HETATM    4  C   UNL     1      -8.274   5.009  69.062  1.00  0.00    -0.087 C  
ENDROOT
BRANCH   1   5
HETATM    5  C   UNL     1     -10.058   4.767  67.211  1.00  0.00    -0.146 C  
HETATM    6  H   UNL     1     -10.608   4.431  65.343  1.00  0.00     0.000 HD 
HETATM    7  O   UNL     1     -10.029   5.024  65.807  1.00  0.00    -0.168 OA 
ENDBRANCH   1   5
BRANCH   1   8
HETATM    8  N   UNL     1      -9.885   6.901  68.540  1.00  0.00    -0.142 NA 
HETATM    9  C   UNL     1     -11.141   7.734  70.471  1.00  0.00    -0.265 C  
HETATM   10  C   UNL     1     -10.678   6.754  69.679  1.00  0.00    -0.251 C  
HETATM   11  C   UNL     1     -11.987   7.388  71.634  1.00  0.00    -0.307 C  
HETATM   12  C   UNL     1     -10.744   9.109  70.142  1.00  0.00    -0.233 C  
HETATM   13  C   UNL     1      -9.837   9.315  68.992  1.00  0.00    -0.168 A  
HETATM   14  O   UNL     1     -11.176  10.050  70.807  1.00  0.00    -0.312 OA 
HETATM   15  O   UNL     1     -12.243   6.237  71.958  1.00  0.00    -0.338 OA 
HETATM   16  O   UNL     1     -12.464   8.450  72.318  1.00  0.00    -0.346 OA 
HETATM   17  C   UNL     1      -9.482   8.221  68.182  1.00  0.00    -0.137 A  
HETATM   18  C   UNL     1      -8.740   8.525  67.030  1.00  0.00    -0.132 A  
HETATM   19  C   UNL     1      -8.272   9.821  66.741  1.00  0.00    -0.120 A  
HETATM   20  C   UNL     1      -9.372  10.614  68.729  1.00  0.00    -0.183 A  
HETATM   21  C   UNL     1      -8.575  10.885  67.606  1.00  0.00    -0.124 A  
BRANCH  19  22
HETATM   22  O   UNL     1      -7.550  10.125  65.612  1.00  0.00    -0.130 OA 
HETATM   23  C   UNL     1      -7.717   9.267  64.484  1.00  0.00    -0.114 C  
ENDBRANCH  19  22
BRANCH  21  24
HETATM   24  C   UNL     1      -8.174  12.317  67.319  1.00  0.00    -0.182 C  
BRANCH  24  25
HETATM   25  C   UNL     1      -9.262  13.294  66.931  1.00  0.00    -0.242 A  
HETATM   26  C   UNL     1      -9.412  14.516  67.602  1.00  0.00    -0.209 A  
HETATM   27  C   UNL     1     -10.523  15.334  67.372  1.00  0.00    -0.270 A  
HETATM   28  F   UNL     1      -8.498  14.877  68.516  1.00  0.00    -0.137 F  
HETATM   29  C   UNL     1     -11.504  14.942  66.463  1.00  0.00    -0.286 A  
HETATM   30 CL   UNL     1     -10.722  16.812  68.235  1.00  0.00    -0.351 Cl 
HETATM   31  C   UNL     1     -11.350  13.749  65.757  1.00  0.00    -0.309 A  
HETATM   32  C   UNL     1     -10.231  12.937  65.981  1.00  0.00    -0.293 A  
ENDBRANCH  24  25
ENDBRANCH  21  24
ENDBRANCH   1   8
TORSDOF 5
ENDMDL
MODEL       84
REMARK 921   NORMALIZED FREE ENERGY PREDICTED BY IDOCK:   -4.93 KCAL/MOL
REMARK 922        TOTAL FREE ENERGY PREDICTED BY IDOCK:   -7.51 KCAL/MOL
REMARK 923 INTER-LIGAND FREE ENERGY PREDICTED BY IDOCK:   -6.46 KCAL/MOL
REMARK 924 INTRA-LIGAND FREE ENERGY PREDICTED BY IDOCK:   -1.06 KCAL/MOL
REMARK 927      BINDING AFFINITY PREDICTED BY RF-SCORE:    0.00 PKD
ROOT
HETATM    1  C   UNL     1      -9.508  11.046  66.941  1.00  0.00    -0.177 C  
HETATM    2  C   UNL     1      -7.289  10.451  65.770  1.00  0.00    -0.147 C  
HETATM    3  C   UNL     1      -9.352   9.209  65.175  1.00  0.00    -0.180 C  
HETATM    4  C   UNL     1      -8.623   9.927  66.320  1.00  0.00    -0.137 C  
ENDROOT
BRANCH   1   5
HETATM    5  C   UNL     1     -10.793  10.486  67.603  1.00  0.00    -0.300 C  
HETATM    6  H   UNL     1     -12.533  11.182  68.230  1.00  0.00     0.000 HD 
HETATM    7  O   UNL     1     -11.746  11.525  67.825  1.00  0.00    -0.514 OA 
ENDBRANCH   1   5
BRANCH   1   8
HETATM    8  N   UNL     1      -8.729  11.897  67.918  1.00  0.00    -0.159 NA 
HETATM    9  C   UNL     1      -6.973  11.908  69.625  1.00  0.00     0.132 C  
HETATM   10  C   UNL     1      -7.949  11.316  68.919  1.00  0.00    -0.104 C  
HETATM   11  C   UNL     1      -6.258  11.135  70.665  1.00  0.00     0.074 C  
HETATM   12  C   UNL     1      -6.651  13.302  69.292  1.00  0.00    -0.093 C  
HETATM   13  C   UNL     1      -7.393  13.941  68.184  1.00  0.00    -0.123 A  
HETATM   14  O   UNL     1      -5.796  13.906  69.938  1.00  0.00    -0.108 OA 
HETATM   15  O   UNL     1      -6.467   9.949  70.880  1.00  0.00    -0.200 OA 
HETATM   16  O   UNL     1      -5.351  11.844  71.369  1.00  0.00    -0.324 OA 
HETATM   17  C   UNL     1      -8.453  13.252  67.569  1.00  0.00    -0.202 A  
HETATM   18  C   UNL     1      -9.197  13.982  66.629  1.00  0.00    -0.262 A  
HETATM   19  C   UNL     1      -8.854  15.287  66.227  1.00  0.00    -0.227 A  
HETATM   20  C   UNL     1      -7.025  15.238  67.791  1.00  0.00    -0.185 A  
HETATM   21  C   UNL     1      -7.743  15.927  66.801  1.00  0.00    -0.245 A  
BRANCH  19  22
HETATM   22  O   UNL     1      -9.581  16.009  65.313  1.00  0.00    -0.368 OA 
HETATM   23  C   UNL     1     -10.963  15.678  65.176  1.00  0.00    -0.398 C  
ENDBRANCH  19  22
BRANCH  21  24
HETATM   24  C   UNL     1      -7.360  17.356  66.479  1.00  0.00    -0.312 C  
BRANCH  24  25
HETATM   25  C   UNL     1      -8.300  18.458  66.915  1.00  0.00    -0.261 A  
HETATM   26  C   UNL     1      -8.637  18.632  68.264  1.00  0.00    -0.321 A  
HETATM   27  C   UNL     1      -9.643  19.525  68.649  1.00  0.00    -0.411 A  
HETATM   28  F   UNL     1      -8.016  17.889  69.195  1.00  0.00    -0.225 F  
HETATM   29  C   UNL     1     -10.329  20.262  67.686  1.00  0.00    -0.409 A  
HETATM   30 CL   UNL     1     -10.081  19.698  70.306  1.00  0.00     0.432 Cl 
HETATM   31  C   UNL     1      -9.979  20.132  66.342  1.00  0.00    -0.573 A  
HETATM   32  C   UNL     1      -8.964  19.245  65.960  1.00  0.00    -0.130 A  
ENDBRANCH  24  25
ENDBRANCH  21  24
ENDBRANCH   1   8
TORSDOF 5
ENDMDL
MODEL       85
REMARK 921   NORMALIZED FREE ENERGY PREDICTED BY IDOCK:   -4.89 KCAL/MOL
REMARK 922        TOTAL FREE ENERGY PREDICTED BY IDOCK:   -7.46 KCAL/MOL
REMARK 923 INTER-LIGAND FREE ENERGY PREDICTED BY IDOCK:   -6.35 KCAL/MOL
REMARK 924 INTRA-LIGAND FREE ENERGY PREDICTED BY IDOCK:   -1.11 KCAL/MOL
REMARK 927      BINDING AFFINITY PREDICTED BY RF-SCORE:    0.00 PKD
ROOT
HETATM    1  C   UNL     1     -10.945  15.823  69.226  1.00  0.00    -0.281 C  
HETATM    2  C   UNL     1     -11.746  13.528  70.088  1.00  0.00    -0.280 C  
HETATM    3  C   UNL     1     -12.779  15.596  70.989  1.00  0.00    -0.517 C  
HETATM    4  C   UNL     1     -11.476  14.999  70.435  1.00  0.00    -0.321 C  
ENDROOT
BRANCH   1   5
HETATM    5  C   UNL     1     -10.559  17.271  69.621  1.00  0.00     0.109 C  
HETATM    6  H   UNL     1      -9.821  18.877  68.736  1.00  0.00     0.000 HD 
HETATM    7  O   UNL     1     -10.057  17.990  68.494  1.00  0.00    -0.357 OA 
ENDBRANCH   1   5
BRANCH   1   8
HETATM    8  N   UNL     1      -9.790  15.128  68.540  1.00  0.00    -0.214 NA 
HETATM    9  C   UNL     1      -7.605  14.068  68.854  1.00  0.00    -0.080 C  
HETATM   10  C   UNL     1      -8.575  14.930  69.198  1.00  0.00    -0.148 C  
HETATM   11  C   UNL     1      -6.369  14.005  69.665  1.00  0.00    -0.130 C  
HETATM   12  C   UNL     1      -7.852  13.204  67.691  1.00  0.00    -0.169 C  
HETATM   13  C   UNL     1      -9.158  13.317  67.007  1.00  0.00    -0.232 A  
HETATM   14  O   UNL     1      -6.979  12.428  67.306  1.00  0.00    -0.148 OA 
HETATM   15  O   UNL     1      -6.202  14.661  70.684  1.00  0.00    -0.175 OA 
HETATM   16  O   UNL     1      -5.427  13.163  69.189  1.00  0.00    -0.069 OA 
HETATM   17  C   UNL     1     -10.067  14.315  67.403  1.00  0.00    -0.247 A  
HETATM   18  C   UNL     1     -11.216  14.448  66.609  1.00  0.00    -0.340 A  
HETATM   19  C   UNL     1     -11.519  13.576  65.546  1.00  0.00    -0.304 A  
HETATM   20  C   UNL     1      -9.444  12.429  65.957  1.00  0.00    -0.168 A  
HETATM   21  C   UNL     1     -10.632  12.538  65.217  1.00  0.00    -0.319 A  
BRANCH  19  22
HETATM   22  O   UNL     1     -12.639  13.705  64.762  1.00  0.00    -0.590 OA 
HETATM   23  C   UNL     1     -12.694  14.833  63.888  1.00  0.00     0.573 C  
ENDBRANCH  19  22
BRANCH  21  24
HETATM   24  C   UNL     1     -10.850  11.612  64.039  1.00  0.00    -0.455 C  
BRANCH  24  25
HETATM   25  C   UNL     1      -9.726  10.675  63.656  1.00  0.00    -0.383 A  
HETATM   26  C   UNL     1      -9.431   9.543  64.428  1.00  0.00     0.052 A  
HETATM   27  C   UNL     1      -8.284   8.780  64.184  1.00  0.00    -0.162 A  
HETATM   28  F   UNL     1     -10.240   9.219  65.450  1.00  0.00    -0.290 F  
HETATM   29  C   UNL     1      -7.411   9.139  63.159  1.00  0.00    -0.095 A  
HETATM   30 CL   UNL     1      -7.906   7.417  65.169  1.00  0.00    -0.116 Cl 
HETATM   31  C   UNL     1      -7.710  10.239  62.355  1.00  0.00    -0.163 A  
HETATM   32  C   UNL     1      -8.866  10.994  62.594  1.00  0.00    -0.334 A  
ENDBRANCH  24  25
ENDBRANCH  21  24
ENDBRANCH   1   8
TORSDOF 5
ENDMDL
MODEL       86
REMARK 921   NORMALIZED FREE ENERGY PREDICTED BY IDOCK:   -4.86 KCAL/MOL
REMARK 922        TOTAL FREE ENERGY PREDICTED BY IDOCK:   -7.42 KCAL/MOL
REMARK 923 INTER-LIGAND FREE ENERGY PREDICTED BY IDOCK:   -7.47 KCAL/MOL
REMARK 924 INTRA-LIGAND FREE ENERGY PREDICTED BY IDOCK:    0.05 KCAL/MOL
REMARK 927      BINDING AFFINITY PREDICTED BY RF-SCORE:    0.00 PKD
ROOT
HETATM    1  C   UNL     1     -11.223  13.516  66.698  1.00  0.00    -0.312 C  
HETATM    2  C   UNL     1      -8.706  14.051  66.858  1.00  0.00    -0.185 C  
HETATM    3  C   UNL     1     -10.355  15.902  66.963  1.00  0.00    -0.297 C  
HETATM    4  C   UNL     1     -10.081  14.517  66.359  1.00  0.00    -0.293 C  
ENDROOT
BRANCH   1   5
HETATM    5  C   UNL     1     -12.582  13.937  66.079  1.00  0.00    -0.423 C  
HETATM    6  H   UNL     1     -13.967  13.135  64.920  1.00  0.00     0.000 HD 
HETATM    7  O   UNL     1     -13.135  12.878  65.299  1.00  0.00    -0.682 OA 
ENDBRANCH   1   5
BRANCH   1   8
HETATM    8  N   UNL     1     -10.867  12.103  66.295  1.00  0.00    -0.271 NA 
HETATM    9  C   UNL     1      -9.583  10.716  64.738  1.00  0.00    -0.334 C  
HETATM   10  C   UNL     1     -10.240  11.837  65.077  1.00  0.00    -0.272 C  
HETATM   11  C   UNL     1      -8.991  10.603  63.387  1.00  0.00    -0.219 C  
HETATM   12  C   UNL     1      -9.467   9.668  65.761  1.00  0.00    -0.246 C  
HETATM   13  C   UNL     1     -10.044   9.932  67.096  1.00  0.00    -0.270 A  
HETATM   14  O   UNL     1      -8.915   8.603  65.489  1.00  0.00    -0.192 OA 
HETATM   15  O   UNL     1      -9.012  11.511  62.568  1.00  0.00    -0.328 OA 
HETATM   16  O   UNL     1      -8.422   9.408  63.121  1.00  0.00    -0.178 OA 
HETATM   17  C   UNL     1     -10.783  11.108  67.313  1.00  0.00    -0.258 A  
HETATM   18  C   UNL     1     -11.418  11.213  68.560  1.00  0.00    -0.371 A  
HETATM   19  C   UNL     1     -11.248  10.266  69.588  1.00  0.00    -0.269 A  
HETATM   20  C   UNL     1      -9.851   8.980  68.110  1.00  0.00    -0.191 A  
HETATM   21  C   UNL     1     -10.442   9.136  69.374  1.00  0.00    -0.226 A  
BRANCH  19  22
HETATM   22  O   UNL     1     -11.872  10.360  70.809  1.00  0.00    -0.312 OA 
HETATM   23  C   UNL     1     -13.232   9.932  70.877  1.00  0.00    -0.244 C  
ENDBRANCH  19  22
BRANCH  21  24
HETATM   24  C   UNL     1     -10.277   8.037  70.402  1.00  0.00    -0.201 C  
BRANCH  24  25
HETATM   25  C   UNL     1      -9.098   8.119  71.345  1.00  0.00    -0.194 A  
HETATM   26  C   UNL     1      -7.996   8.937  71.060  1.00  0.00    -0.151 A  
HETATM   27  C   UNL     1      -6.831   8.875  71.831  1.00  0.00    -0.001 A  
HETATM   28  F   UNL     1      -8.047   9.755  69.996  1.00  0.00    -0.123 F  
HETATM   29  C   UNL     1      -6.750   7.991  72.906  1.00  0.00    -0.092 A  
HETATM   30 CL   UNL     1      -5.465   9.852  71.444  1.00  0.00    -0.077 Cl 
HETATM   31  C   UNL     1      -7.851   7.199  73.229  1.00  0.00    -0.111 A  
HETATM   32  C   UNL     1      -9.021   7.271  72.461  1.00  0.00    -0.152 A  
ENDBRANCH  24  25
ENDBRANCH  21  24
ENDBRANCH   1   8
TORSDOF 5
ENDMDL
MODEL       87
REMARK 921   NORMALIZED FREE ENERGY PREDICTED BY IDOCK:   -4.85 KCAL/MOL
REMARK 922        TOTAL FREE ENERGY PREDICTED BY IDOCK:   -7.40 KCAL/MOL
REMARK 923 INTER-LIGAND FREE ENERGY PREDICTED BY IDOCK:   -6.55 KCAL/MOL
REMARK 924 INTRA-LIGAND FREE ENERGY PREDICTED BY IDOCK:   -0.85 KCAL/MOL
REMARK 927      BINDING AFFINITY PREDICTED BY RF-SCORE:    0.00 PKD
ROOT
HETATM    1  C   UNL     1     -10.301   6.983  68.379  1.00  0.00    -0.193 C  
HETATM    2  C   UNL     1      -8.103   6.510  67.117  1.00  0.00    -0.113 C  
HETATM    3  C   UNL     1      -9.967   4.879  66.972  1.00  0.00    -0.238 C  
HETATM    4  C   UNL     1      -9.288   5.909  67.886  1.00  0.00    -0.107 C  
ENDROOT
BRANCH   1   5
HETATM    5  C   UNL     1     -11.424   6.377  69.261  1.00  0.00    -0.248 C  
HETATM    6  H   UNL     1     -11.576   5.064  70.730  1.00  0.00     0.000 HD 
HETATM    7  O   UNL     1     -10.889   5.435  70.189  1.00  0.00    -0.281 OA 
ENDBRANCH   1   5
BRANCH   1   8
HETATM    8  N   UNL     1      -9.608   8.117  69.099  1.00  0.00    -0.156 NA 
HETATM    9  C   UNL     1      -7.794   8.721  70.630  1.00  0.00    -0.112 C  
HETATM   10  C   UNL     1      -8.706   7.869  70.136  1.00  0.00    -0.136 C  
HETATM   11  C   UNL     1      -6.928   8.288  71.748  1.00  0.00    -0.082 C  
HETATM   12  C   UNL     1      -7.691  10.042  69.995  1.00  0.00    -0.169 C  
HETATM   13  C   UNL     1      -8.569  10.327  68.839  1.00  0.00    -0.150 A  
HETATM   14  O   UNL     1      -6.903  10.876  70.436  1.00  0.00    -0.257 OA 
HETATM   15  O   UNL     1      -6.953   7.158  72.217  1.00  0.00    -0.063 OA 
HETATM   16  O   UNL     1      -6.100   9.243  72.221  1.00  0.00    -0.246 OA 
HETATM   17  C   UNL     1      -9.546   9.390  68.460  1.00  0.00    -0.147 A  
HETATM   18  C   UNL     1     -10.431   9.800  67.451  1.00  0.00    -0.319 A  
HETATM   19  C   UNL     1     -10.298  11.022  66.765  1.00  0.00    -0.238 A  
HETATM   20  C   UNL     1      -8.410  11.547  68.162  1.00  0.00    -0.152 A  
HETATM   21  C   UNL     1      -9.265  11.910  67.110  1.00  0.00    -0.183 A  
BRANCH  19  22
HETATM   22  O   UNL     1     -11.164  11.431  65.780  1.00  0.00    -0.216 OA 
HETATM   23  C   UNL     1     -10.814  11.110  64.434  1.00  0.00    -0.270 C  
ENDBRANCH  19  22
BRANCH  21  24
HETATM   24  C   UNL     1      -9.108  13.275  66.474  1.00  0.00    -0.130 C  
BRANCH  24  25
HETATM   25  C   UNL     1      -9.905  14.423  67.051  1.00  0.00    -0.252 A  
HETATM   26  C   UNL     1      -9.595  15.753  66.734  1.00  0.00    -0.236 A  
HETATM   27  C   UNL     1     -10.207  16.817  67.406  1.00  0.00    -0.288 A  
HETATM   28  F   UNL     1      -8.658  16.003  65.806  1.00  0.00    -0.335 F  
HETATM   29  C   UNL     1     -11.143  16.566  68.407  1.00  0.00    -0.333 A  
HETATM   30 CL   UNL     1      -9.785  18.447  67.041  1.00  0.00    -0.301 Cl 
HETATM   31  C   UNL     1     -11.493  15.250  68.706  1.00  0.00    -0.345 A  
HETATM   32  C   UNL     1     -10.888  14.186  68.025  1.00  0.00    -0.256 A  
ENDBRANCH  24  25
ENDBRANCH  21  24
ENDBRANCH   1   8
TORSDOF 5
ENDMDL
MODEL       88
REMARK 921   NORMALIZED FREE ENERGY PREDICTED BY IDOCK:   -4.83 KCAL/MOL
REMARK 922        TOTAL FREE ENERGY PREDICTED BY IDOCK:   -7.38 KCAL/MOL
REMARK 923 INTER-LIGAND FREE ENERGY PREDICTED BY IDOCK:   -7.31 KCAL/MOL
REMARK 924 INTRA-LIGAND FREE ENERGY PREDICTED BY IDOCK:   -0.08 KCAL/MOL
REMARK 927      BINDING AFFINITY PREDICTED BY RF-SCORE:    0.00 PKD
ROOT
HETATM    1  C   UNL     1     -10.172  10.825  68.249  1.00  0.00    -0.167 C  
HETATM    2  C   UNL     1     -11.283  11.484  66.018  1.00  0.00    -0.240 C  
HETATM    3  C   UNL     1      -9.365   9.911  66.006  1.00  0.00    -0.240 C  
HETATM    4  C   UNL     1      -9.975  11.118  66.733  1.00  0.00    -0.242 C  
ENDROOT
BRANCH   1   5
HETATM    5  C   UNL     1      -8.828  10.581  68.983  1.00  0.00    -0.169 C  
HETATM    6  H   UNL     1      -7.964   9.120  69.998  1.00  0.00     0.000 HD 
HETATM    7  O   UNL     1      -8.787   9.271  69.548  1.00  0.00    -0.135 OA 
ENDBRANCH   1   5
BRANCH   1   8
HETATM    8  N   UNL     1     -10.965  11.917  68.932  1.00  0.00    -0.231 NA 
HETATM    9  C   UNL     1     -12.455  12.456  70.799  1.00  0.00    -0.356 C  
HETATM   10  C   UNL     1     -11.925  11.613  69.898  1.00  0.00    -0.340 C  
HETATM   11  C   UNL     1     -13.481  11.959  71.742  1.00  0.00    -0.086 C  
HETATM   12  C   UNL     1     -11.948  13.835  70.811  1.00  0.00    -0.240 C  
HETATM   13  C   UNL     1     -10.870  14.188  69.861  1.00  0.00     0.087 A  
HETATM   14  O   UNL     1     -12.429  14.659  71.586  1.00  0.00    -0.317 OA 
HETATM   15  O   UNL     1     -13.837  10.790  71.789  1.00  0.00     0.035 OA 
HETATM   16  O   UNL     1     -14.003  12.903  72.553  1.00  0.00    -0.581 OA 
HETATM   17  C   UNL     1     -10.451  13.246  68.905  1.00  0.00    -0.100 A  
HETATM   18  C   UNL     1      -9.531  13.708  67.951  1.00  0.00    -0.213 A  
HETATM   19  C   UNL     1      -8.963  14.995  67.995  1.00  0.00    -0.173 A  
HETATM   20  C   UNL     1     -10.310  15.473  69.932  1.00  0.00    -0.322 A  
HETATM   21  C   UNL     1      -9.341  15.894  69.006  1.00  0.00    -0.243 A  
BRANCH  19  22
HETATM   22  O   UNL     1      -8.068  15.455  67.061  1.00  0.00    -0.198 OA 
HETATM   23  C   UNL     1      -6.684  15.220  67.318  1.00  0.00    -0.024 C  
ENDBRANCH  19  22
BRANCH  21  24
HETATM   24  C   UNL     1      -8.835  17.319  69.072  1.00  0.00    -0.081 C  
BRANCH  24  25
HETATM   25  C   UNL     1      -9.131  18.232  67.902  1.00  0.00    -0.288 A  
HETATM   26  C   UNL     1      -8.096  18.819  67.161  1.00  0.00    -0.250 A  
HETATM   27  C   UNL     1      -8.362  19.803  66.203  1.00  0.00    -0.345 A  
HETATM   28  F   UNL     1      -6.826  18.465  67.415  1.00  0.00    -0.190 F  
HETATM   29  C   UNL     1      -9.673  20.215  65.969  1.00  0.00    -0.431 A  
HETATM   30 CL   UNL     1      -7.079  20.552  65.330  1.00  0.00    -0.207 Cl 
HETATM   31  C   UNL     1     -10.718  19.612  66.668  1.00  0.00    -0.552 A  
HETATM   32  C   UNL     1     -10.450  18.619  67.620  1.00  0.00    -0.468 A  
ENDBRANCH  24  25
ENDBRANCH  21  24
ENDBRANCH   1   8
TORSDOF 5
ENDMDL
MODEL       89
REMARK 921   NORMALIZED FREE ENERGY PREDICTED BY IDOCK:   -4.81 KCAL/MOL
REMARK 922        TOTAL FREE ENERGY PREDICTED BY IDOCK:   -7.36 KCAL/MOL
REMARK 923 INTER-LIGAND FREE ENERGY PREDICTED BY IDOCK:   -6.93 KCAL/MOL
REMARK 924 INTRA-LIGAND FREE ENERGY PREDICTED BY IDOCK:   -0.42 KCAL/MOL
REMARK 927      BINDING AFFINITY PREDICTED BY RF-SCORE:    0.00 PKD
ROOT
HETATM    1  C   UNL     1      -8.949   6.025  67.766  1.00  0.00    -0.111 C  
HETATM    2  C   UNL     1      -7.048   6.698  69.374  1.00  0.00    -0.080 C  
HETATM    3  C   UNL     1      -8.644   4.922  70.049  1.00  0.00    -0.106 C  
HETATM    4  C   UNL     1      -8.502   6.223  69.244  1.00  0.00    -0.124 C  
ENDROOT
BRANCH   1   5
HETATM    5  C   UNL     1     -10.453   5.667  67.645  1.00  0.00    -0.219 C  
HETATM    6  H   UNL     1     -11.685   4.999  66.252  1.00  0.00     0.000 HD 
HETATM    7  O   UNL     1     -10.764   5.219  66.327  1.00  0.00    -0.294 OA 
ENDBRANCH   1   5
BRANCH   1   8
HETATM    8  N   UNL     1      -8.615   7.229  66.915  1.00  0.00    -0.121 NA 
HETATM    9  C   UNL     1      -7.859   7.992  64.714  1.00  0.00    -0.131 C  
HETATM   10  C   UNL     1      -7.932   7.091  65.706  1.00  0.00    -0.116 C  
HETATM   11  C   UNL     1      -7.070   7.677  63.503  1.00  0.00    -0.070 C  
HETATM   12  C   UNL     1      -8.607   9.245  64.886  1.00  0.00    -0.181 C  
HETATM   13  C   UNL     1      -9.414   9.409  66.115  1.00  0.00    -0.287 A  
HETATM   14  O   UNL     1      -8.539  10.124  64.029  1.00  0.00    -0.166 OA 
HETATM   15  O   UNL     1      -6.521   6.599  63.322  1.00  0.00    -0.040 OA 
HETATM   16  O   UNL     1      -6.998   8.680  62.602  1.00  0.00    -0.094 OA 
HETATM   17  C   UNL     1      -9.349   8.433  67.125  1.00  0.00    -0.153 A  
HETATM   18  C   UNL     1     -10.027   8.736  68.316  1.00  0.00    -0.202 A  
HETATM   19  C   UNL     1     -10.824   9.886  68.473  1.00  0.00    -0.217 A  
HETATM   20  C   UNL     1     -10.211  10.558  66.245  1.00  0.00    -0.296 A  
HETATM   21  C   UNL     1     -10.935  10.810  67.420  1.00  0.00    -0.361 A  
BRANCH  19  22
HETATM   22  O   UNL     1     -11.486  10.190  69.637  1.00  0.00    -0.241 OA 
HETATM   23  C   UNL     1     -11.435   9.222  70.685  1.00  0.00    -0.274 C  
ENDBRANCH  19  22
BRANCH  21  24
HETATM   24  C   UNL     1     -11.708  12.106  67.543  1.00  0.00    -0.385 C  
BRANCH  24  25
HETATM   25  C   UNL     1     -11.694  13.054  66.365  1.00  0.00    -0.444 A  
HETATM   26  C   UNL     1     -11.041  14.292  66.438  1.00  0.00    -0.325 A  
HETATM   27  C   UNL     1     -11.182  15.245  65.422  1.00  0.00    -0.307 A  
HETATM   28  F   UNL     1     -10.310  14.584  67.526  1.00  0.00    -0.238 F  
HETATM   29  C   UNL     1     -11.981  14.971  64.313  1.00  0.00    -0.310 A  
HETATM   30 CL   UNL     1     -10.413  16.781  65.543  1.00  0.00    -0.317 Cl 
HETATM   31  C   UNL     1     -12.605  13.729  64.205  1.00  0.00    -0.190 A  
HETATM   32  C   UNL     1     -12.454  12.773  65.218  1.00  0.00    -0.528 A  
ENDBRANCH  24  25
ENDBRANCH  21  24
ENDBRANCH   1   8
TORSDOF 5
ENDMDL
MODEL       90
REMARK 921   NORMALIZED FREE ENERGY PREDICTED BY IDOCK:   -4.73 KCAL/MOL
REMARK 922        TOTAL FREE ENERGY PREDICTED BY IDOCK:   -7.26 KCAL/MOL
REMARK 923 INTER-LIGAND FREE ENERGY PREDICTED BY IDOCK:   -7.22 KCAL/MOL
REMARK 924 INTRA-LIGAND FREE ENERGY PREDICTED BY IDOCK:   -0.03 KCAL/MOL
REMARK 927      BINDING AFFINITY PREDICTED BY RF-SCORE:    0.00 PKD
ROOT
HETATM    1  C   UNL     1      -8.728  17.434  66.899  1.00  0.00    -0.246 C  
HETATM    2  C   UNL     1     -10.194  17.970  68.952  1.00  0.00    -0.320 C  
HETATM    3  C   UNL     1      -8.136  19.295  68.545  1.00  0.00    -0.401 C  
HETATM    4  C   UNL     1      -8.770  17.905  68.382  1.00  0.00    -0.296 C  
ENDROOT
BRANCH   1   5
HETATM    5  C   UNL     1      -7.279  17.253  66.377  1.00  0.00    -0.292 C  
HETATM    6  H   UNL     1      -6.124  18.039  64.979  1.00  0.00     0.000 HD 
HETATM    7  O   UNL     1      -7.011  18.149  65.299  1.00  0.00    -0.484 OA 
ENDBRANCH   1   5
BRANCH   1   8
HETATM    8  N   UNL     1      -9.535  16.173  66.690  1.00  0.00    -0.232 NA 
HETATM    9  C   UNL     1     -11.078  14.994  65.198  1.00  0.00    -0.408 C  
HETATM   10  C   UNL     1     -10.527  16.105  65.711  1.00  0.00    -0.367 C  
HETATM   11  C   UNL     1     -12.137  15.116  64.172  1.00  0.00    -0.176 C  
HETATM   12  C   UNL     1     -10.563  13.704  65.677  1.00  0.00    -0.293 C  
HETATM   13  C   UNL     1      -9.455  13.718  66.656  1.00  0.00    -0.289 A  
HETATM   14  O   UNL     1     -11.064  12.655  65.274  1.00  0.00    -0.283 OA 
HETATM   15  O   UNL     1     -12.502  16.188  63.710  1.00  0.00    -0.769 OA 
HETATM   16  O   UNL     1     -12.678  13.943  63.780  1.00  0.00    -0.693 OA 
HETATM   17  C   UNL     1      -9.012  14.943  67.186  1.00  0.00    -0.214 A  
HETATM   18  C   UNL     1      -8.060  14.858  68.214  1.00  0.00    -0.132 A  
HETATM   19  C   UNL     1      -7.486  13.641  68.628  1.00  0.00    -0.113 A  
HETATM   20  C   UNL     1      -8.888  12.494  67.045  1.00  0.00    -0.212 A  
HETATM   21  C   UNL     1      -7.889  12.436  68.029  1.00  0.00    -0.141 A  
BRANCH  19  22
HETATM   22  O   UNL     1      -6.558  13.551  69.637  1.00  0.00    -0.102 OA 
HETATM   23  C   UNL     1      -6.476  14.651  70.543  1.00  0.00    -0.053 C  
ENDBRANCH  19  22
BRANCH  21  24
HETATM   24  C   UNL     1      -7.376  11.084  68.475  1.00  0.00    -0.101 C  
BRANCH  24  25
HETATM   25  C   UNL     1      -6.843  10.143  67.418  1.00  0.00    -0.077 A  
HETATM   26  C   UNL     1      -6.272  10.631  66.234  1.00  0.00    -0.119 A  
HETATM   27  C   UNL     1      -5.950   9.770  65.179  1.00  0.00    -0.083 A  
HETATM   28  F   UNL     1      -6.082  11.953  66.096  1.00  0.00    -0.006 F  
HETATM   29  C   UNL     1      -6.192   8.402  65.294  1.00  0.00    -0.049 A  
HETATM   30 CL   UNL     1      -5.291  10.385  63.711  1.00  0.00    -0.137 Cl 
HETATM   31  C   UNL     1      -6.722   7.895  66.480  1.00  0.00    -0.058 A  
HETATM   32  C   UNL     1      -7.034   8.757  67.539  1.00  0.00    -0.075 A  
ENDBRANCH  24  25
ENDBRANCH  21  24
ENDBRANCH   1   8
TORSDOF 5
ENDMDL
MODEL       91
REMARK 921   NORMALIZED FREE ENERGY PREDICTED BY IDOCK:   -4.70 KCAL/MOL
REMARK 922        TOTAL FREE ENERGY PREDICTED BY IDOCK:   -7.22 KCAL/MOL
REMARK 923 INTER-LIGAND FREE ENERGY PREDICTED BY IDOCK:   -6.67 KCAL/MOL
REMARK 924 INTRA-LIGAND FREE ENERGY PREDICTED BY IDOCK:   -0.55 KCAL/MOL
REMARK 927      BINDING AFFINITY PREDICTED BY RF-SCORE:    0.00 PKD
ROOT
HETATM    1  C   UNL     1      -8.890   6.787  69.039  1.00  0.00    -0.129 C  
HETATM    2  C   UNL     1      -7.492   7.768  70.971  1.00  0.00    -0.074 C  
HETATM    3  C   UNL     1      -8.987   5.836  71.407  1.00  0.00    -0.147 C  
HETATM    4  C   UNL     1      -8.815   7.107  70.560  1.00  0.00    -0.154 C  
ENDROOT
BRANCH   1   5
HETATM    5  C   UNL     1     -10.277   6.236  68.618  1.00  0.00    -0.178 C  
HETATM    6  H   UNL     1     -11.005   4.600  67.782  1.00  0.00     0.000 HD 
HETATM    7  O   UNL     1     -10.155   4.937  68.040  1.00  0.00    -0.140 OA 
ENDBRANCH   1   5
BRANCH   1   8
HETATM    8  N   UNL     1      -8.511   7.984  68.197  1.00  0.00    -0.123 NA 
HETATM    9  C   UNL     1      -7.418   8.730  66.136  1.00  0.00    -0.090 C  
HETATM   10  C   UNL     1      -7.598   7.866  67.147  1.00  0.00    -0.100 C  
HETATM   11  C   UNL     1      -6.385   8.448  65.115  1.00  0.00    -0.052 C  
HETATM   12  C   UNL     1      -8.298   9.906  66.090  1.00  0.00    -0.122 C  
HETATM   13  C   UNL     1      -9.338  10.037  67.133  1.00  0.00    -0.173 A  
HETATM   14  O   UNL     1      -8.147  10.752  65.211  1.00  0.00    -0.125 OA 
HETATM   15  O   UNL     1      -5.715   7.425  65.105  1.00  0.00    -0.036 OA 
HETATM   16  O   UNL     1      -6.233   9.416  64.187  1.00  0.00    -0.086 OA 
HETATM   17  C   UNL     1      -9.379   9.114  68.193  1.00  0.00    -0.138 A  
HETATM   18  C   UNL     1     -10.299   9.394  69.216  1.00  0.00    -0.217 A  
HETATM   19  C   UNL     1     -11.214  10.462  69.152  1.00  0.00    -0.246 A  
HETATM   20  C   UNL     1     -10.248  11.103  67.043  1.00  0.00    -0.251 A  
HETATM   21  C   UNL     1     -11.205  11.327  68.045  1.00  0.00    -0.351 A  
BRANCH  19  22
HETATM   22  O   UNL     1     -12.113  10.744  70.151  1.00  0.00    -0.294 OA 
HETATM   23  C   UNL     1     -12.055   9.932  71.324  1.00  0.00    -0.394 C  
ENDBRANCH  19  22
BRANCH  21  24
HETATM   24  C   UNL     1     -12.103  12.542  67.943  1.00  0.00    -0.120 C  
BRANCH  24  25
HETATM   25  C   UNL     1     -11.558  13.868  68.425  1.00  0.00    -0.368 A  
HETATM   26  C   UNL     1     -11.803  14.322  69.729  1.00  0.00    -0.324 A  
HETATM   27  C   UNL     1     -11.462  15.622  70.117  1.00  0.00    -0.348 A  
HETATM   28  F   UNL     1     -12.422  13.508  70.599  1.00  0.00    -0.380 F  
HETATM   29  C   UNL     1     -10.866  16.491  69.205  1.00  0.00    -0.334 A  
HETATM   30 CL   UNL     1     -11.809  16.185  71.708  1.00  0.00    -0.572 Cl 
HETATM   31  C   UNL     1     -10.579  16.043  67.916  1.00  0.00    -0.301 A  
HETATM   32  C   UNL     1     -10.912  14.737  67.532  1.00  0.00    -0.304 A  
ENDBRANCH  24  25
ENDBRANCH  21  24
ENDBRANCH   1   8
TORSDOF 5
ENDMDL
MODEL       92
REMARK 921   NORMALIZED FREE ENERGY PREDICTED BY IDOCK:   -4.69 KCAL/MOL
REMARK 922        TOTAL FREE ENERGY PREDICTED BY IDOCK:   -7.20 KCAL/MOL
REMARK 923 INTER-LIGAND FREE ENERGY PREDICTED BY IDOCK:   -6.79 KCAL/MOL
REMARK 924 INTRA-LIGAND FREE ENERGY PREDICTED BY IDOCK:   -0.41 KCAL/MOL
REMARK 927      BINDING AFFINITY PREDICTED BY RF-SCORE:    0.00 PKD
ROOT
HETATM    1  C   UNL     1     -11.381  13.202  64.969  1.00  0.00    -0.299 C  
HETATM    2  C   UNL     1     -10.057  11.812  63.248  1.00  0.00    -0.448 C  
HETATM    3  C   UNL     1     -12.531  11.921  63.083  1.00  0.00    -0.363 C  
HETATM    4  C   UNL     1     -11.350  11.935  64.066  1.00  0.00    -0.475 C  
ENDROOT
BRANCH   1   5
HETATM    5  C   UNL     1     -12.634  13.248  65.882  1.00  0.00    -0.281 C  
HETATM    6  H   UNL     1     -14.296  14.309  66.026  1.00  0.00     0.000 HD 
HETATM    7  O   UNL     1     -13.528  14.281  65.467  1.00  0.00    -0.580 OA 
ENDBRANCH   1   5
BRANCH   1   8
HETATM    8  N   UNL     1     -10.117  13.337  65.788  1.00  0.00    -0.292 NA 
HETATM    9  C   UNL     1      -8.528  14.904  66.795  1.00  0.00    -0.215 C  
HETATM   10  C   UNL     1      -9.441  14.555  65.876  1.00  0.00    -0.184 C  
HETATM   11  C   UNL     1      -7.899  16.241  66.722  1.00  0.00    -0.265 C  
HETATM   12  C   UNL     1      -8.230  13.929  67.853  1.00  0.00    -0.164 C  
HETATM   13  C   UNL     1      -8.978  12.654  67.854  1.00  0.00    -0.189 A  
HETATM   14  O   UNL     1      -7.369  14.180  68.695  1.00  0.00    -0.113 OA 
HETATM   15  O   UNL     1      -8.213  17.085  65.894  1.00  0.00    -0.505 OA 
HETATM   16  O   UNL     1      -6.940  16.463  67.645  1.00  0.00    -0.116 OA 
HETATM   17  C   UNL     1      -9.852  12.360  66.792  1.00  0.00    -0.222 A  
HETATM   18  C   UNL     1     -10.409  11.072  66.793  1.00  0.00    -0.284 A  
HETATM   19  C   UNL     1     -10.211  10.153  67.841  1.00  0.00    -0.180 A  
HETATM   20  C   UNL     1      -8.774  11.758  68.915  1.00  0.00     0.122 A  
HETATM   21  C   UNL     1      -9.394  10.498  68.931  1.00  0.00    -0.192 A  
BRANCH  19  22
HETATM   22  O   UNL     1     -10.748   8.889  67.846  1.00  0.00    -0.210 OA 
HETATM   23  C   UNL     1     -10.286   7.984  66.843  1.00  0.00    -0.338 C  
ENDBRANCH  19  22
BRANCH  21  24
HETATM   24  C   UNL     1      -9.070   9.535  70.053  1.00  0.00    -0.255 C  
BRANCH  24  25
HETATM   25  C   UNL     1      -8.258   8.303  69.719  1.00  0.00    -0.121 A  
HETATM   26  C   UNL     1      -8.582   7.052  70.261  1.00  0.00    -0.140 A  
HETATM   27  C   UNL     1      -7.729   5.953  70.104  1.00  0.00    -0.095 A  
HETATM   28  F   UNL     1      -9.705   6.924  70.985  1.00  0.00    -0.172 F  
HETATM   29  C   UNL     1      -6.536   6.090  69.398  1.00  0.00    -0.042 A  
HETATM   30 CL   UNL     1      -8.114   4.431  70.813  1.00  0.00    -0.070 Cl 
HETATM   31  C   UNL     1      -6.217   7.318  68.817  1.00  0.00    -0.031 A  
HETATM   32  C   UNL     1      -7.077   8.413  68.967  1.00  0.00    -0.069 A  
ENDBRANCH  24  25
ENDBRANCH  21  24
ENDBRANCH   1   8
TORSDOF 5
ENDMDL
MODEL       93
REMARK 921   NORMALIZED FREE ENERGY PREDICTED BY IDOCK:   -4.66 KCAL/MOL
REMARK 922        TOTAL FREE ENERGY PREDICTED BY IDOCK:   -7.17 KCAL/MOL
REMARK 923 INTER-LIGAND FREE ENERGY PREDICTED BY IDOCK:   -5.82 KCAL/MOL
REMARK 924 INTRA-LIGAND FREE ENERGY PREDICTED BY IDOCK:   -1.34 KCAL/MOL
REMARK 927      BINDING AFFINITY PREDICTED BY RF-SCORE:    0.00 PKD
ROOT
HETATM    1  C   UNL     1      -7.654   7.868  71.676  1.00  0.00    -0.080 C  
HETATM    2  C   UNL     1     -10.101   8.536  72.141  1.00  0.00    -0.393 C  
HETATM    3  C   UNL     1      -8.598   8.012  74.044  1.00  0.00    -0.296 C  
HETATM    4  C   UNL     1      -8.908   7.675  72.578  1.00  0.00    -0.183 C  
ENDROOT
BRANCH   1   5
HETATM    5  C   UNL     1      -6.501   6.902  72.051  1.00  0.00    -0.053 C  
HETATM    6  H   UNL     1      -4.525   6.895  71.987  1.00  0.00     0.000 HD 
HETATM    7  O   UNL     1      -5.232   7.486  71.757  1.00  0.00    -0.034 OA 
ENDBRANCH   1   5
BRANCH   1   8
HETATM    8  N   UNL     1      -7.997   7.749  70.208  1.00  0.00    -0.098 NA 
HETATM    9  C   UNL     1      -9.316   6.533  68.541  1.00  0.00    -0.123 C  
HETATM   10  C   UNL     1      -8.671   6.631  69.713  1.00  0.00    -0.140 C  
HETATM   11  C   UNL     1      -9.963   5.255  68.173  1.00  0.00    -0.155 C  
HETATM   12  C   UNL     1      -9.367   7.735  67.698  1.00  0.00    -0.142 C  
HETATM   13  C   UNL     1      -8.738   8.972  68.211  1.00  0.00    -0.130 A  
HETATM   14  O   UNL     1      -9.906   7.689  66.593  1.00  0.00    -0.216 OA 
HETATM   15  O   UNL     1      -9.997   4.283  68.915  1.00  0.00    -0.113 OA 
HETATM   16  O   UNL     1     -10.518   5.239  66.942  1.00  0.00    -0.245 OA 
HETATM   17  C   UNL     1      -8.016   8.935  69.417  1.00  0.00    -0.100 A  
HETATM   18  C   UNL     1      -7.330  10.111  69.758  1.00  0.00    -0.159 A  
HETATM   19  C   UNL     1      -7.435  11.302  69.015  1.00  0.00    -0.116 A  
HETATM   20  C   UNL     1      -8.866  10.151  67.459  1.00  0.00    -0.126 A  
HETATM   21  C   UNL     1      -8.225  11.336  67.854  1.00  0.00    -0.123 A  
BRANCH  19  22
HETATM   22  O   UNL     1      -6.762  12.454  69.340  1.00  0.00    -0.098 OA 
HETATM   23  C   UNL     1      -5.564  12.312  70.103  1.00  0.00    -0.141 C  
ENDBRANCH  19  22
BRANCH  21  24
HETATM   24  C   UNL     1      -8.322  12.554  66.960  1.00  0.00    -0.144 C  
BRANCH  24  25
HETATM   25  C   UNL     1      -9.674  13.214  66.804  1.00  0.00    -0.246 A  
HETATM   26  C   UNL     1     -10.184  14.065  67.794  1.00  0.00    -0.240 A  
HETATM   27  C   UNL     1     -11.504  14.527  67.740  1.00  0.00    -0.340 A  
HETATM   28  F   UNL     1      -9.405  14.399  68.835  1.00  0.00    -0.197 F  
HETATM   29  C   UNL     1     -12.337  14.144  66.690  1.00  0.00    -0.375 A  
HETATM   30 CL   UNL     1     -12.135  15.536  68.985  1.00  0.00    -0.304 Cl 
HETATM   31  C   UNL     1     -11.833  13.330  65.676  1.00  0.00    -0.419 A  
HETATM   32  C   UNL     1     -10.508  12.878  65.726  1.00  0.00    -0.293 A  
ENDBRANCH  24  25
ENDBRANCH  21  24
ENDBRANCH   1   8
TORSDOF 5
ENDMDL
MODEL       94
REMARK 921   NORMALIZED FREE ENERGY PREDICTED BY IDOCK:   -4.66 KCAL/MOL
REMARK 922        TOTAL FREE ENERGY PREDICTED BY IDOCK:   -7.16 KCAL/MOL
REMARK 923 INTER-LIGAND FREE ENERGY PREDICTED BY IDOCK:   -7.34 KCAL/MOL
REMARK 924 INTRA-LIGAND FREE ENERGY PREDICTED BY IDOCK:    0.18 KCAL/MOL
REMARK 927      BINDING AFFINITY PREDICTED BY RF-SCORE:    0.00 PKD
ROOT
HETATM    1  C   UNL     1      -6.497  16.195  69.966  1.00  0.00    -0.017 C  
HETATM    2  C   UNL     1      -6.801  13.988  68.668  1.00  0.00    -0.103 C  
HETATM    3  C   UNL     1      -5.130  14.106  70.499  1.00  0.00    -0.102 C  
HETATM    4  C   UNL     1      -5.817  14.919  69.392  1.00  0.00    -0.102 C  
ENDROOT
BRANCH   1   5
HETATM    5  C   UNL     1      -5.473  17.184  70.582  1.00  0.00    -0.165 C  
HETATM    6  H   UNL     1      -4.743  17.601  72.371  1.00  0.00     0.000 HD 
HETATM    7  O   UNL     1      -5.370  16.996  71.993  1.00  0.00    -0.040 OA 
ENDBRANCH   1   5
BRANCH   1   8
HETATM    8  N   UNL     1      -7.353  16.888  68.930  1.00  0.00    -0.228 NA 
HETATM    9  C   UNL     1      -7.347  18.323  66.946  1.00  0.00    -0.229 C  
HETATM   10  C   UNL     1      -6.821  17.871  68.095  1.00  0.00    -0.209 C  
HETATM   11  C   UNL     1      -6.647  19.389  66.196  1.00  0.00    -0.210 C  
HETATM   12  C   UNL     1      -8.592  17.695  66.482  1.00  0.00    -0.259 C  
HETATM   13  C   UNL     1      -9.156  16.591  67.289  1.00  0.00    -0.214 A  
HETATM   14  O   UNL     1      -9.142  18.101  65.460  1.00  0.00    -0.052 OA 
HETATM   15  O   UNL     1      -5.566  19.849  66.537  1.00  0.00    -0.172 OA 
HETATM   16  O   UNL     1      -7.299  19.825  65.098  1.00  0.00    -0.363 OA 
HETATM   17  C   UNL     1      -8.564  16.257  68.520  1.00  0.00    -0.211 A  
HETATM   18  C   UNL     1      -9.245  15.301  69.289  1.00  0.00    -0.233 A  
HETATM   19  C   UNL     1     -10.388  14.620  68.828  1.00  0.00    -0.248 A  
HETATM   20  C   UNL     1     -10.289  15.918  66.804  1.00  0.00    -0.298 A  
HETATM   21  C   UNL     1     -10.917  14.916  67.561  1.00  0.00    -0.302 A  
BRANCH  19  22
HETATM   22  O   UNL     1     -11.062  13.687  69.578  1.00  0.00    -0.186 OA 
HETATM   23  C   UNL     1     -11.875  14.176  70.644  1.00  0.00    -0.263 C  
ENDBRANCH  19  22
BRANCH  21  24
HETATM   24  C   UNL     1     -12.187  14.285  67.032  1.00  0.00    -0.338 C  
BRANCH  24  25
HETATM   25  C   UNL     1     -12.069  13.311  65.881  1.00  0.00    -0.493 A  
HETATM   26  C   UNL     1     -11.220  12.198  65.957  1.00  0.00    -0.336 A  
HETATM   27  C   UNL     1     -10.969  11.402  64.834  1.00  0.00    -0.216 A  
HETATM   28  F   UNL     1     -10.600  11.926  67.117  1.00  0.00    -0.229 F  
HETATM   29  C   UNL     1     -11.567  11.708  63.613  1.00  0.00    -0.435 A  
HETATM   30 CL   UNL     1      -9.887  10.064  64.926  1.00  0.00    -0.388 Cl 
HETATM   31  C   UNL     1     -12.446  12.787  63.529  1.00  0.00    -0.474 A  
HETATM   32  C   UNL     1     -12.705  13.576  64.658  1.00  0.00    -0.225 A  
ENDBRANCH  24  25
ENDBRANCH  21  24
ENDBRANCH   1   8
TORSDOF 5
ENDMDL
MODEL       95
REMARK 921   NORMALIZED FREE ENERGY PREDICTED BY IDOCK:   -4.65 KCAL/MOL
REMARK 922        TOTAL FREE ENERGY PREDICTED BY IDOCK:   -7.15 KCAL/MOL
REMARK 923 INTER-LIGAND FREE ENERGY PREDICTED BY IDOCK:   -5.84 KCAL/MOL
REMARK 924 INTRA-LIGAND FREE ENERGY PREDICTED BY IDOCK:   -1.31 KCAL/MOL
REMARK 927      BINDING AFFINITY PREDICTED BY RF-SCORE:    0.00 PKD
ROOT
HETATM    1  C   UNL     1     -10.587  14.621  68.119  1.00  0.00    -0.237 C  
HETATM    2  C   UNL     1      -9.049  15.814  66.427  1.00  0.00    -0.357 C  
HETATM    3  C   UNL     1     -10.073  17.117  68.273  1.00  0.00    -0.314 C  
HETATM    4  C   UNL     1     -10.288  15.927  67.327  1.00  0.00    -0.293 C  
ENDROOT
BRANCH   1   5
HETATM    5  C   UNL     1     -11.909  14.707  68.924  1.00  0.00    -0.309 C  
HETATM    6  H   UNL     1     -13.232  13.456  69.694  1.00  0.00     0.000 HD 
HETATM    7  O   UNL     1     -12.422  13.404  69.201  1.00  0.00    -0.115 OA 
ENDBRANCH   1   5
BRANCH   1   8
HETATM    8  N   UNL     1     -10.587  13.408  67.217  1.00  0.00    -0.254 NA 
HETATM    9  C   UNL     1     -11.148  12.553  64.991  1.00  0.00    -0.335 C  
HETATM   10  C   UNL     1     -11.309  13.397  66.022  1.00  0.00    -0.309 C  
HETATM   11  C   UNL     1     -12.022  12.681  63.805  1.00  0.00    -0.510 C  
HETATM   12  C   UNL     1     -10.072  11.558  65.098  1.00  0.00    -0.268 C  
HETATM   13  C   UNL     1      -9.224  11.578  66.309  1.00  0.00    -0.222 A  
HETATM   14  O   UNL     1      -9.909  10.731  64.202  1.00  0.00    -0.270 OA 
HETATM   15  O   UNL     1     -12.857  13.566  63.680  1.00  0.00    -0.548 OA 
HETATM   16  O   UNL     1     -11.829  11.737  62.860  1.00  0.00    -0.044 OA 
HETATM   17  C   UNL     1      -9.538  12.453  67.363  1.00  0.00    -0.184 A  
HETATM   18  C   UNL     1      -8.774  12.307  68.531  1.00  0.00    -0.071 A  
HETATM   19  C   UNL     1      -7.681  11.424  68.626  1.00  0.00    -0.137 A  
HETATM   20  C   UNL     1      -8.132  10.698  66.376  1.00  0.00    -0.148 A  
HETATM   21  C   UNL     1      -7.338  10.614  67.532  1.00  0.00    -0.091 A  
BRANCH  19  22
HETATM   22  O   UNL     1      -6.934  11.272  69.768  1.00  0.00    -0.106 OA 
HETATM   23  C   UNL     1      -6.143  12.387  70.179  1.00  0.00    -0.102 C  
ENDBRANCH  19  22
BRANCH  21  24
HETATM   24  C   UNL     1      -6.229   9.585  67.586  1.00  0.00    -0.053 C  
BRANCH  24  25
HETATM   25  C   UNL     1      -6.602   8.129  67.420  1.00  0.00    -0.058 A  
HETATM   26  C   UNL     1      -7.276   7.433  68.434  1.00  0.00    -0.093 A  
HETATM   27  C   UNL     1      -7.458   6.047  68.362  1.00  0.00    -0.086 A  
HETATM   28  F   UNL     1      -7.706   8.105  69.514  1.00  0.00    -0.091 F  
HETATM   29  C   UNL     1      -6.968   5.334  67.269  1.00  0.00    -0.065 A  
HETATM   30 CL   UNL     1      -8.245   5.195  69.635  1.00  0.00    -0.092 Cl 
HETATM   31  C   UNL     1      -6.332   6.016  66.232  1.00  0.00    -0.042 A  
HETATM   32  C   UNL     1      -6.161   7.405  66.302  1.00  0.00    -0.037 A  
ENDBRANCH  24  25
ENDBRANCH  21  24
ENDBRANCH   1   8
TORSDOF 5
ENDMDL
MODEL       96
REMARK 921   NORMALIZED FREE ENERGY PREDICTED BY IDOCK:   -4.65 KCAL/MOL
REMARK 922        TOTAL FREE ENERGY PREDICTED BY IDOCK:   -7.15 KCAL/MOL
REMARK 923 INTER-LIGAND FREE ENERGY PREDICTED BY IDOCK:   -6.55 KCAL/MOL
REMARK 924 INTRA-LIGAND FREE ENERGY PREDICTED BY IDOCK:   -0.60 KCAL/MOL
REMARK 927      BINDING AFFINITY PREDICTED BY RF-SCORE:    0.00 PKD
ROOT
HETATM    1  C   UNL     1      -8.954   4.873  66.958  1.00  0.00    -0.109 C  
HETATM    2  C   UNL     1     -10.899   4.493  65.308  1.00  0.00    -0.095 C  
HETATM    3  C   UNL     1      -8.737   3.336  64.931  1.00  0.00    -0.110 C  
HETATM    4  C   UNL     1      -9.379   4.618  65.483  1.00  0.00    -0.159 C  
ENDROOT
BRANCH   1   5
HETATM    5  C   UNL     1      -7.430   5.122  67.100  1.00  0.00    -0.087 C  
HETATM    6  H   UNL     1      -6.051   4.959  68.506  1.00  0.00     0.000 HD 
HETATM    7  O   UNL     1      -6.985   4.807  68.419  1.00  0.00    -0.054 OA 
ENDBRANCH   1   5
BRANCH   1   8
HETATM    8  N   UNL     1      -9.742   6.005  67.579  1.00  0.00    -0.112 NA 
HETATM    9  C   UNL     1     -10.687   6.899  69.653  1.00  0.00    -0.276 C  
HETATM   10  C   UNL     1     -10.268   5.895  68.867  1.00  0.00    -0.198 C  
HETATM   11  C   UNL     1     -11.235   6.591  70.993  1.00  0.00    -0.309 C  
HETATM   12  C   UNL     1     -10.543   8.266  69.135  1.00  0.00    -0.165 C  
HETATM   13  C   UNL     1      -9.916   8.444  67.808  1.00  0.00    -0.236 A  
HETATM   14  O   UNL     1     -10.952   9.220  69.796  1.00  0.00    -0.234 OA 
HETATM   15  O   UNL     1     -11.272   5.460  71.458  1.00  0.00    -0.111 OA 
HETATM   16  O   UNL     1     -11.699   7.662  71.670  1.00  0.00    -0.264 OA 
HETATM   17  C   UNL     1      -9.591   7.314  67.036  1.00  0.00    -0.166 A  
HETATM   18  C   UNL     1      -9.138   7.571  65.733  1.00  0.00    -0.020 A  
HETATM   19  C   UNL     1      -8.906   8.871  65.245  1.00  0.00    -0.184 A  
HETATM   20  C   UNL     1      -9.683   9.749  67.346  1.00  0.00    -0.202 A  
HETATM   21  C   UNL     1      -9.166   9.983  66.062  1.00  0.00    -0.204 A  
BRANCH  19  22
HETATM   22  O   UNL     1      -8.467   9.129  63.969  1.00  0.00    -0.180 OA 
HETATM   23  C   UNL     1      -7.570   8.183  63.387  1.00  0.00    -0.132 C  
ENDBRANCH  19  22
BRANCH  21  24
HETATM   24  C   UNL     1      -9.017  11.411  65.580  1.00  0.00    -0.131 C  
BRANCH  24  25
HETATM   25  C   UNL     1     -10.246  12.293  65.585  1.00  0.00    -0.287 A  
HETATM   26  C   UNL     1     -10.438  13.263  66.578  1.00  0.00    -0.281 A  
HETATM   27  C   UNL     1     -11.652  13.949  66.692  1.00  0.00    -0.374 A  
HETATM   28  F   UNL     1      -9.456  13.497  67.463  1.00  0.00    -0.199 F  
HETATM   29  C   UNL     1     -12.696  13.675  65.810  1.00  0.00    -0.470 A  
HETATM   30 CL   UNL     1     -11.895  15.107  67.945  1.00  0.00    -0.280 Cl 
HETATM   31  C   UNL     1     -12.507  12.742  64.791  1.00  0.00    -0.539 A  
HETATM   32  C   UNL     1     -11.287  12.064  64.672  1.00  0.00    -0.377 A  
ENDBRANCH  24  25
ENDBRANCH  21  24
ENDBRANCH   1   8
TORSDOF 5
ENDMDL
MODEL       97
REMARK 921   NORMALIZED FREE ENERGY PREDICTED BY IDOCK:   -4.65 KCAL/MOL
REMARK 922        TOTAL FREE ENERGY PREDICTED BY IDOCK:   -7.15 KCAL/MOL
REMARK 923 INTER-LIGAND FREE ENERGY PREDICTED BY IDOCK:   -6.51 KCAL/MOL
REMARK 924 INTRA-LIGAND FREE ENERGY PREDICTED BY IDOCK:   -0.64 KCAL/MOL
REMARK 927      BINDING AFFINITY PREDICTED BY RF-SCORE:    0.00 PKD
ROOT
HETATM    1  C   UNL     1     -10.490  14.170  65.755  1.00  0.00    -0.311 C  
HETATM    2  C   UNL     1     -11.983  13.538  67.761  1.00  0.00    -0.369 C  
HETATM    3  C   UNL     1     -13.028  14.440  65.699  1.00  0.00    -0.105 C  
HETATM    4  C   UNL     1     -11.770  14.495  66.579  1.00  0.00    -0.380 C  
ENDROOT
BRANCH   1   5
HETATM    5  C   UNL     1     -10.220  15.217  64.644  1.00  0.00     0.235 C  
HETATM    6  H   UNL     1     -10.484  17.157  64.372  1.00  0.00     0.000 HD 
HETATM    7  O   UNL     1     -10.650  16.516  65.053  1.00  0.00    -0.670 OA 
ENDBRANCH   1   5
BRANCH   1   8
HETATM    8  N   UNL     1      -9.278  14.010  66.645  1.00  0.00    -0.263 NA 
HETATM    9  C   UNL     1      -7.864  15.082  68.333  1.00  0.00    -0.125 C  
HETATM   10  C   UNL     1      -8.705  15.109  67.287  1.00  0.00    -0.202 C  
HETATM   11  C   UNL     1      -7.339  16.354  68.876  1.00  0.00    -0.214 C  
HETATM   12  C   UNL     1      -7.537  13.767  68.901  1.00  0.00    -0.040 C  
HETATM   13  C   UNL     1      -8.182  12.574  68.310  1.00  0.00    -0.168 A  
HETATM   14  O   UNL     1      -6.737  13.680  69.831  1.00  0.00    -0.028 OA 
HETATM   15  O   UNL     1      -7.681  17.452  68.459  1.00  0.00    -0.246 OA 
HETATM   16  O   UNL     1      -6.443  16.212  69.875  1.00  0.00    -0.188 OA 
HETATM   17  C   UNL     1      -8.982  12.715  67.162  1.00  0.00    -0.205 A  
HETATM   18  C   UNL     1      -9.436  11.521  66.580  1.00  0.00    -0.220 A  
HETATM   19  C   UNL     1      -9.212  10.255  67.155  1.00  0.00    -0.145 A  
HETATM   20  C   UNL     1      -7.956  11.324  68.907  1.00  0.00    -0.104 A  
HETATM   21  C   UNL     1      -8.474  10.147  68.345  1.00  0.00    -0.118 A  
BRANCH  19  22
HETATM   22  O   UNL     1      -9.648   9.083  66.587  1.00  0.00    -0.177 OA 
HETATM   23  C   UNL     1      -8.861   8.544  65.526  1.00  0.00    -0.154 C  
ENDBRANCH  19  22
BRANCH  21  24
HETATM   24  C   UNL     1      -8.126   8.816  68.978  1.00  0.00    -0.116 C  
BRANCH  24  25
HETATM   25  C   UNL     1      -9.255   7.979  69.536  1.00  0.00    -0.152 A  
HETATM   26  C   UNL     1     -10.058   8.450  70.585  1.00  0.00    -0.193 A  
HETATM   27  C   UNL     1     -10.977   7.611  71.224  1.00  0.00    -0.238 A  
HETATM   28  F   UNL     1      -9.901   9.713  71.012  1.00  0.00    -0.332 F  
HETATM   29  C   UNL     1     -11.109   6.283  70.822  1.00  0.00    -0.377 A  
HETATM   30 CL   UNL     1     -11.926   8.186  72.542  1.00  0.00    -0.435 Cl 
HETATM   31  C   UNL     1     -10.348   5.809  69.754  1.00  0.00    -0.332 A  
HETATM   32  C   UNL     1      -9.436   6.654  69.108  1.00  0.00    -0.136 A  
ENDBRANCH  24  25
ENDBRANCH  21  24
ENDBRANCH   1   8
TORSDOF 5
ENDMDL
MODEL       98
REMARK 921   NORMALIZED FREE ENERGY PREDICTED BY IDOCK:   -4.63 KCAL/MOL
REMARK 922        TOTAL FREE ENERGY PREDICTED BY IDOCK:   -7.12 KCAL/MOL
REMARK 923 INTER-LIGAND FREE ENERGY PREDICTED BY IDOCK:   -7.53 KCAL/MOL
REMARK 924 INTRA-LIGAND FREE ENERGY PREDICTED BY IDOCK:    0.41 KCAL/MOL
REMARK 927      BINDING AFFINITY PREDICTED BY RF-SCORE:    0.00 PKD
ROOT
HETATM    1  C   UNL     1      -8.964   9.190  68.861  1.00  0.00    -0.139 C  
HETATM    2  C   UNL     1     -10.206   7.898  67.008  1.00  0.00    -0.382 C  
HETATM    3  C   UNL     1      -7.726   7.944  67.008  1.00  0.00    -0.100 C  
HETATM    4  C   UNL     1      -8.982   8.751  67.369  1.00  0.00    -0.143 C  
ENDROOT
BRANCH   1   5
HETATM    5  C   UNL     1      -7.791  10.153  69.181  1.00  0.00    -0.120 C  
HETATM    6  H   UNL     1      -6.782  10.745  70.775  1.00  0.00     0.000 HD 
HETATM    7  O   UNL     1      -7.501  10.155  70.579  1.00  0.00    -0.281 OA 
ENDBRANCH   1   5
BRANCH   1   8
HETATM    8  N   UNL     1     -10.284   9.796  69.283  1.00  0.00    -0.192 NA 
HETATM    9  C   UNL     1     -12.037   9.812  70.992  1.00  0.00    -0.434 C  
HETATM   10  C   UNL     1     -11.045   9.225  70.304  1.00  0.00    -0.251 C  
HETATM   11  C   UNL     1     -12.750   9.044  72.037  1.00  0.00    -0.398 C  
HETATM   12  C   UNL     1     -12.335  11.217  70.680  1.00  0.00    -0.388 C  
HETATM   13  C   UNL     1     -11.503  11.894  69.661  1.00  0.00    -0.337 A  
HETATM   14  O   UNL     1     -13.263  11.789  71.249  1.00  0.00    -0.224 OA 
HETATM   15  O   UNL     1     -12.442   7.904  72.357  1.00  0.00    -0.263 OA 
HETATM   16  O   UNL     1     -13.778   9.700  72.614  1.00  0.00    -0.328 OA 
HETATM   17  C   UNL     1     -10.545  11.155  68.944  1.00  0.00    -0.207 A  
HETATM   18  C   UNL     1      -9.903  11.836  67.898  1.00  0.00    -0.186 A  
HETATM   19  C   UNL     1     -10.105  13.204  67.636  1.00  0.00    -0.221 A  
HETATM   20  C   UNL     1     -11.713  13.262  69.426  1.00  0.00    -0.383 A  
HETATM   21  C   UNL     1     -11.011  13.941  68.417  1.00  0.00    -0.272 A  
BRANCH  19  22
HETATM   22  O   UNL     1      -9.484  13.874  66.610  1.00  0.00    -0.270 OA 
HETATM   23  C   UNL     1      -8.074  14.066  66.720  1.00  0.00     0.295 C  
ENDBRANCH  19  22
BRANCH  21  24
HETATM   24  C   UNL     1     -11.340  15.393  68.145  1.00  0.00    -0.353 C  
BRANCH  24  25
HETATM   25  C   UNL     1     -10.206  16.318  67.763  1.00  0.00    -0.270 A  
HETATM   26  C   UNL     1      -9.128  16.541  68.632  1.00  0.00    -0.239 A  
HETATM   27  C   UNL     1      -8.176  17.531  68.363  1.00  0.00    -0.278 A  
HETATM   28  F   UNL     1      -9.041  15.824  69.764  1.00  0.00    -0.267 F  
HETATM   29  C   UNL     1      -8.288  18.315  67.217  1.00  0.00    -0.246 A  
HETATM   30 CL   UNL     1      -6.881  17.828  69.460  1.00  0.00    -0.123 Cl 
HETATM   31  C   UNL     1      -9.331  18.080  66.322  1.00  0.00    -0.220 A  
HETATM   32  C   UNL     1     -10.276  17.080  66.587  1.00  0.00    -0.310 A  
ENDBRANCH  24  25
ENDBRANCH  21  24
ENDBRANCH   1   8
TORSDOF 5
ENDMDL
MODEL       99
REMARK 921   NORMALIZED FREE ENERGY PREDICTED BY IDOCK:   -4.60 KCAL/MOL
REMARK 922        TOTAL FREE ENERGY PREDICTED BY IDOCK:   -7.08 KCAL/MOL
REMARK 923 INTER-LIGAND FREE ENERGY PREDICTED BY IDOCK:   -6.64 KCAL/MOL
REMARK 924 INTRA-LIGAND FREE ENERGY PREDICTED BY IDOCK:   -0.44 KCAL/MOL
REMARK 927      BINDING AFFINITY PREDICTED BY RF-SCORE:    0.00 PKD
ROOT
HETATM    1  C   UNL     1      -8.334   5.646  66.816  1.00  0.00    -0.108 C  
HETATM    2  C   UNL     1     -10.175   4.339  65.572  1.00  0.00    -0.224 C  
HETATM    3  C   UNL     1      -8.005   4.758  64.445  1.00  0.00    -0.100 C  
HETATM    4  C   UNL     1      -9.013   5.334  65.451  1.00  0.00    -0.147 C  
ENDROOT
BRANCH   1   5
HETATM    5  C   UNL     1      -7.246   6.746  66.698  1.00  0.00    -0.073 C  
HETATM    6  H   UNL     1      -5.332   6.957  67.144  1.00  0.00     0.000 HD 
HETATM    7  O   UNL     1      -5.999   6.284  67.216  1.00  0.00    -0.016 OA 
ENDBRANCH   1   5
BRANCH   1   8
HETATM    8  N   UNL     1      -9.350   6.009  67.876  1.00  0.00    -0.111 NA 
HETATM    9  C   UNL     1     -10.051   5.661  70.196  1.00  0.00    -0.293 C  
HETATM   10  C   UNL     1      -9.451   5.276  69.059  1.00  0.00    -0.135 C  
HETATM   11  C   UNL     1     -10.075   4.738  71.352  1.00  0.00    -0.189 C  
HETATM   12  C   UNL     1     -10.628   7.011  70.229  1.00  0.00    -0.226 C  
HETATM   13  C   UNL     1     -10.477   7.862  69.029  1.00  0.00    -0.210 A  
HETATM   14  O   UNL     1     -11.228   7.398  71.231  1.00  0.00    -0.245 OA 
HETATM   15  O   UNL     1      -9.517   3.649  71.353  1.00  0.00    -0.133 OA 
HETATM   16  O   UNL     1     -10.769   5.190  72.418  1.00  0.00    -0.215 OA 
HETATM   17  C   UNL     1      -9.903   7.323  67.864  1.00  0.00    -0.144 A  
HETATM   18  C   UNL     1      -9.930   8.148  66.728  1.00  0.00    -0.349 A  
HETATM   19  C   UNL     1     -10.395   9.476  66.757  1.00  0.00    -0.228 A  
HETATM   20  C   UNL     1     -10.936   9.187  69.085  1.00  0.00    -0.057 A  
HETATM   21  C   UNL     1     -10.894  10.018  67.954  1.00  0.00    -0.323 A  
BRANCH  19  22
HETATM   22  O   UNL     1     -10.430  10.286  65.649  1.00  0.00    -0.200 OA 
HETATM   23  C   UNL     1      -9.451  10.045  64.638  1.00  0.00    -0.305 C  
ENDBRANCH  19  22
BRANCH  21  24
HETATM   24  C   UNL     1     -11.484  11.410  68.043  1.00  0.00    -0.377 C  
BRANCH  24  25
HETATM   25  C   UNL     1     -10.574  12.585  67.766  1.00  0.00    -0.235 A  
HETATM   26  C   UNL     1     -10.972  13.625  66.914  1.00  0.00    -0.289 A  
HETATM   27  C   UNL     1     -10.068  14.615  66.511  1.00  0.00    -0.279 A  
HETATM   28  F   UNL     1     -12.227  13.638  66.439  1.00  0.00    -0.402 F  
HETATM   29  C   UNL     1      -8.748  14.580  66.957  1.00  0.00    -0.256 A  
HETATM   30 CL   UNL     1     -10.555  15.862  65.427  1.00  0.00    -0.418 Cl 
HETATM   31  C   UNL     1      -8.346  13.576  67.837  1.00  0.00    -0.175 A  
HETATM   32  C   UNL     1      -9.256  12.592  68.248  1.00  0.00    -0.184 A  
ENDBRANCH  24  25
ENDBRANCH  21  24
ENDBRANCH   1   8
TORSDOF 5
ENDMDL
MODEL      100
REMARK 921   NORMALIZED FREE ENERGY PREDICTED BY IDOCK:   -4.55 KCAL/MOL
REMARK 922        TOTAL FREE ENERGY PREDICTED BY IDOCK:   -7.02 KCAL/MOL
REMARK 923 INTER-LIGAND FREE ENERGY PREDICTED BY IDOCK:   -7.43 KCAL/MOL
REMARK 924 INTRA-LIGAND FREE ENERGY PREDICTED BY IDOCK:    0.41 KCAL/MOL
REMARK 927      BINDING AFFINITY PREDICTED BY RF-SCORE:    0.00 PKD
ROOT
HETATM    1  C   UNL     1     -10.514  14.668  68.969  1.00  0.00    -0.246 C  
HETATM    2  C   UNL     1      -8.563  15.206  67.372  1.00  0.00    -0.201 C  
HETATM    3  C   UNL     1      -8.659  16.308  69.592  1.00  0.00     0.310 C  
HETATM    4  C   UNL     1      -9.516  15.742  68.450  1.00  0.00    -0.196 C  
ENDROOT
BRANCH   1   5
HETATM    5  C   UNL     1     -11.550  15.255  69.964  1.00  0.00    -0.305 C  
HETATM    6  H   UNL     1     -11.948  15.133  71.896  1.00  0.00     0.000 HD 
HETATM    7  O   UNL     1     -11.314  14.774  71.287  1.00  0.00    -0.258 OA 
ENDBRANCH   1   5
BRANCH   1   8
HETATM    8  N   UNL     1     -11.209  13.953  67.832  1.00  0.00    -0.267 NA 
HETATM    9  C   UNL     1     -11.858  14.076  65.474  1.00  0.00    -0.370 C  
HETATM   10  C   UNL     1     -11.551  14.627  66.659  1.00  0.00    -0.350 C  
HETATM   11  C   UNL     1     -12.214  14.952  64.336  1.00  0.00    -0.381 C  
HETATM   12  C   UNL     1     -11.788  12.612  65.374  1.00  0.00    -0.427 C  
HETATM   13  C   UNL     1     -11.352  11.853  66.567  1.00  0.00    -0.403 A  
HETATM   14  O   UNL     1     -12.102  12.052  64.325  1.00  0.00    -0.362 OA 
HETATM   15  O   UNL     1     -12.184  16.173  64.396  1.00  0.00    -0.311 OA 
HETATM   16  O   UNL     1     -12.580  14.296  63.215  1.00  0.00    -0.716 OA 
HETATM   17  C   UNL     1     -11.136  12.531  67.780  1.00  0.00    -0.249 A  
HETATM   18  C   UNL     1     -10.868  11.722  68.895  1.00  0.00    -0.265 A  
HETATM   19  C   UNL     1     -10.708  10.326  68.808  1.00  0.00    -0.219 A  
HETATM   20  C   UNL     1     -11.186  10.464  66.454  1.00  0.00     0.349 A  
HETATM   21  C   UNL     1     -10.852   9.680  67.570  1.00  0.00    -0.265 A  
BRANCH  19  22
HETATM   22  O   UNL     1     -10.451   9.528  69.897  1.00  0.00    -0.209 OA 
HETATM   23  C   UNL     1     -11.087   9.882  71.125  1.00  0.00    -0.289 C  
ENDBRANCH  19  22
BRANCH  21  24
HETATM   24  C   UNL     1     -10.774   8.176  67.412  1.00  0.00    -0.247 C  
BRANCH  24  25
HETATM   25  C   UNL     1     -10.201   7.372  68.558  1.00  0.00    -0.201 A  
HETATM   26  C   UNL     1      -8.817   7.287  68.764  1.00  0.00    -0.127 A  
HETATM   27  C   UNL     1      -8.279   6.401  69.703  1.00  0.00    -0.126 A  
HETATM   28  F   UNL     1      -7.996   8.035  68.009  1.00  0.00    -0.117 F  
HETATM   29  C   UNL     1      -9.121   5.583  70.455  1.00  0.00    -0.171 A  
HETATM   30 CL   UNL     1      -6.574   6.271  69.916  1.00  0.00    -0.046 Cl 
HETATM   31  C   UNL     1     -10.502   5.683  70.292  1.00  0.00    -0.363 A  
HETATM   32  C   UNL     1     -11.039   6.580  69.358  1.00  0.00    -0.407 A  
ENDBRANCH  24  25
ENDBRANCH  21  24
ENDBRANCH   1   8
TORSDOF 5
ENDMDL
MODEL      101
REMARK 921   NORMALIZED FREE ENERGY PREDICTED BY IDOCK:   -4.50 KCAL/MOL
REMARK 922        TOTAL FREE ENERGY PREDICTED BY IDOCK:   -6.96 KCAL/MOL
REMARK 923 INTER-LIGAND FREE ENERGY PREDICTED BY IDOCK:   -6.99 KCAL/MOL
REMARK 924 INTRA-LIGAND FREE ENERGY PREDICTED BY IDOCK:    0.03 KCAL/MOL
REMARK 927      BINDING AFFINITY PREDICTED BY RF-SCORE:    0.00 PKD
ROOT
HETATM    1  C   UNL     1     -11.085  13.090  65.570  1.00  0.00    -0.275 C  
HETATM    2  C   UNL     1      -9.946  12.046  63.506  1.00  0.00    -0.393 C  
HETATM    3  C   UNL     1     -12.397  12.432  63.481  1.00  0.00    -0.648 C  
HETATM    4  C   UNL     1     -11.204  12.088  64.386  1.00  0.00    -0.406 C  
ENDROOT
BRANCH   1   5
HETATM    5  C   UNL     1     -12.309  13.032  66.520  1.00  0.00    -0.105 C  
HETATM    6  H   UNL     1     -13.264  14.253  67.746  1.00  0.00     0.000 HD 
HETATM    7  O   UNL     1     -12.514  14.289  67.165  1.00  0.00    -0.266 OA 
ENDBRANCH   1   5
BRANCH   1   8
HETATM    8  N   UNL     1      -9.799  12.895  66.341  1.00  0.00    -0.263 NA 
HETATM    9  C   UNL     1      -7.792  11.515  66.592  1.00  0.00    -0.112 C  
HETATM   10  C   UNL     1      -9.074  11.706  66.245  1.00  0.00    -0.214 C  
HETATM   11  C   UNL     1      -7.189  10.173  66.435  1.00  0.00    -0.108 C  
HETATM   12  C   UNL     1      -7.047  12.681  67.087  1.00  0.00    -0.028 C  
HETATM   13  C   UNL     1      -7.745  13.984  67.132  1.00  0.00    -0.004 A  
HETATM   14  O   UNL     1      -5.882  12.552  67.461  1.00  0.00    -0.121 OA 
HETATM   15  O   UNL     1      -7.784   9.225  65.940  1.00  0.00    -0.097 OA 
HETATM   16  O   UNL     1      -5.921  10.070  66.885  1.00  0.00    -0.053 OA 
HETATM   17  C   UNL     1      -9.115  14.049  66.823  1.00  0.00    -0.232 A  
HETATM   18  C   UNL     1      -9.733  15.292  67.032  1.00  0.00    -0.232 A  
HETATM   19  C   UNL     1      -9.023  16.445  67.418  1.00  0.00    -0.191 A  
HETATM   20  C   UNL     1      -7.014  15.123  67.508  1.00  0.00    -0.220 A  
HETATM   21  C   UNL     1      -7.639  16.372  67.648  1.00  0.00    -0.161 A  
BRANCH  19  22
HETATM   22  O   UNL     1      -9.623  17.662  67.629  1.00  0.00    -0.260 OA 
HETATM   23  C   UNL     1     -10.310  18.248  66.524  1.00  0.00    -0.392 C  
ENDBRANCH  19  22
BRANCH  21  24
HETATM   24  C   UNL     1      -6.825  17.549  68.142  1.00  0.00    -0.197 C  
BRANCH  24  25
HETATM   25  C   UNL     1      -6.728  18.768  67.253  1.00  0.00    -0.205 A  
HETATM   26  C   UNL     1      -6.341  18.658  65.910  1.00  0.00    -0.233 A  
HETATM   27  C   UNL     1      -6.072  19.794  65.139  1.00  0.00    -0.237 A  
HETATM   28  F   UNL     1      -6.177  17.438  65.374  1.00  0.00    -0.056 F  
HETATM   29  C   UNL     1      -6.189  21.064  65.702  1.00  0.00    -0.242 A  
HETATM   30 CL   UNL     1      -5.552  19.647  63.504  1.00  0.00    -0.329 Cl 
HETATM   31  C   UNL     1      -6.612  21.194  67.024  1.00  0.00    -0.405 A  
HETATM   32  C   UNL     1      -6.891  20.054  67.791  1.00  0.00    -0.301 A  
ENDBRANCH  24  25
ENDBRANCH  21  24
ENDBRANCH   1   8
TORSDOF 5
ENDMDL
MODEL      102
REMARK 921   NORMALIZED FREE ENERGY PREDICTED BY IDOCK:   -4.49 KCAL/MOL
REMARK 922        TOTAL FREE ENERGY PREDICTED BY IDOCK:   -6.94 KCAL/MOL
REMARK 923 INTER-LIGAND FREE ENERGY PREDICTED BY IDOCK:   -5.79 KCAL/MOL
REMARK 924 INTRA-LIGAND FREE ENERGY PREDICTED BY IDOCK:   -1.15 KCAL/MOL
REMARK 927      BINDING AFFINITY PREDICTED BY RF-SCORE:    0.00 PKD
ROOT
HETATM    1  C   UNL     1      -9.307  12.099  67.346  1.00  0.00    -0.181 C  
HETATM    2  C   UNL     1      -6.793  11.733  67.789  1.00  0.00    -0.090 C  
HETATM    3  C   UNL     1      -7.817  13.931  68.316  1.00  0.00    -0.146 C  
HETATM    4  C   UNL     1      -7.884  12.727  67.364  1.00  0.00    -0.172 C  
ENDROOT
BRANCH   1   5
HETATM    5  C   UNL     1     -10.378  13.076  66.795  1.00  0.00    -0.254 C  
HETATM    6  H   UNL     1     -12.186  12.964  66.005  1.00  0.00     0.000 HD 
HETATM    7  O   UNL     1     -11.530  12.366  66.342  1.00  0.00    -0.331 OA 
ENDBRANCH   1   5
BRANCH   1   8
HETATM    8  N   UNL     1      -9.332  10.793  66.584  1.00  0.00    -0.164 NA 
HETATM    9  C   UNL     1      -8.273   9.475  64.812  1.00  0.00    -0.143 C  
HETATM   10  C   UNL     1      -8.606  10.633  65.402  1.00  0.00    -0.179 C  
HETATM   11  C   UNL     1      -7.509   9.498  63.545  1.00  0.00    -0.114 C  
HETATM   12  C   UNL     1      -8.669   8.234  65.493  1.00  0.00    -0.140 C  
HETATM   13  C   UNL     1      -9.369   8.346  66.791  1.00  0.00    -0.235 A  
HETATM   14  O   UNL     1      -8.428   7.145  64.974  1.00  0.00    -0.088 OA 
HETATM   15  O   UNL     1      -7.104  10.529  63.027  1.00  0.00    -0.112 OA 
HETATM   16  O   UNL     1      -7.294   8.284  62.996  1.00  0.00    -0.094 OA 
HETATM   17  C   UNL     1      -9.741   9.614  67.272  1.00  0.00    -0.166 A  
HETATM   18  C   UNL     1     -10.528   9.622  68.434  1.00  0.00    -0.258 A  
HETATM   19  C   UNL     1     -10.845   8.454  69.154  1.00  0.00    -0.023 A  
HETATM   20  C   UNL     1      -9.663   7.169  67.497  1.00  0.00    -0.176 A  
HETATM   21  C   UNL     1     -10.397   7.205  68.694  1.00  0.00    -0.200 A  
BRANCH  19  22
HETATM   22  O   UNL     1     -11.620   8.455  70.288  1.00  0.00    -0.148 OA 
HETATM   23  C   UNL     1     -11.371   9.487  71.243  1.00  0.00    -0.376 C  
ENDBRANCH  19  22
BRANCH  21  24
HETATM   24  C   UNL     1     -10.764   5.900  69.368  1.00  0.00    -0.406 C  
BRANCH  24  25
HETATM   25  C   UNL     1      -9.929   5.452  70.547  1.00  0.00    -0.288 A  
HETATM   26  C   UNL     1     -10.440   5.484  71.852  1.00  0.00    -0.225 A  
HETATM   27  C   UNL     1      -9.616   5.248  72.957  1.00  0.00    -0.142 A  
HETATM   28  F   UNL     1     -11.732   5.798  72.041  1.00  0.00    -0.330 F  
HETATM   29  C   UNL     1      -8.262   4.973  72.774  1.00  0.00    -0.109 A  
HETATM   30 CL   UNL     1     -10.244   5.335  74.559  1.00  0.00    -0.284 Cl 
HETATM   31  C   UNL     1      -7.745   4.897  71.480  1.00  0.00    -0.096 A  
HETATM   32  C   UNL     1      -8.576   5.123  70.375  1.00  0.00    -0.122 A  
ENDBRANCH  24  25
ENDBRANCH  21  24
ENDBRANCH   1   8
TORSDOF 5
ENDMDL
MODEL      103
REMARK 921   NORMALIZED FREE ENERGY PREDICTED BY IDOCK:   -4.44 KCAL/MOL
REMARK 922        TOTAL FREE ENERGY PREDICTED BY IDOCK:   -6.88 KCAL/MOL
REMARK 923 INTER-LIGAND FREE ENERGY PREDICTED BY IDOCK:   -6.55 KCAL/MOL
REMARK 924 INTRA-LIGAND FREE ENERGY PREDICTED BY IDOCK:   -0.33 KCAL/MOL
REMARK 927      BINDING AFFINITY PREDICTED BY RF-SCORE:    0.00 PKD
ROOT
HETATM    1  C   UNL     1      -7.979   8.737  64.290  1.00  0.00    -0.146 C  
HETATM    2  C   UNL     1      -6.355  10.639  63.664  1.00  0.00     0.106 C  
HETATM    3  C   UNL     1      -5.714   8.287  63.201  1.00  0.00    -0.068 C  
HETATM    4  C   UNL     1      -6.497   9.194  64.162  1.00  0.00    -0.084 C  
ENDROOT
BRANCH   1   5
HETATM    5  C   UNL     1      -8.111   7.323  64.913  1.00  0.00    -0.108 C  
HETATM    6  H   UNL     1      -8.290   5.460  64.277  1.00  0.00     0.000 HD 
HETATM    7  O   UNL     1      -8.210   6.326  63.896  1.00  0.00    -0.090 OA 
ENDBRANCH   1   5
BRANCH   1   8
HETATM    8  N   UNL     1      -8.809   9.740  65.058  1.00  0.00    -0.176 NA 
HETATM    9  C   UNL     1     -10.820  11.138  65.023  1.00  0.00    -0.244 C  
HETATM   10  C   UNL     1      -9.813  10.479  64.429  1.00  0.00    -0.341 C  
HETATM   11  C   UNL     1     -11.788  11.887  64.191  1.00  0.00    -0.318 C  
HETATM   12  C   UNL     1     -10.915  11.047  66.486  1.00  0.00    -0.166 C  
HETATM   13  C   UNL     1      -9.924  10.210  67.196  1.00  0.00    -0.243 A  
HETATM   14  O   UNL     1     -11.791  11.668  67.085  1.00  0.00    -0.608 OA 
HETATM   15  O   UNL     1     -11.760  11.889  62.968  1.00  0.00    -0.211 OA 
HETATM   16  O   UNL     1     -12.714  12.577  64.889  1.00  0.00    -0.657 OA 
HETATM   17  C   UNL     1      -8.861   9.632  66.479  1.00  0.00    -0.142 A  
HETATM   18  C   UNL     1      -7.886   8.977  67.247  1.00  0.00    -0.099 A  
HETATM   19  C   UNL     1      -8.001   8.798  68.639  1.00  0.00    -0.107 A  
HETATM   20  C   UNL     1     -10.064  10.035  68.582  1.00  0.00    -0.187 A  
HETATM   21  C   UNL     1      -9.111   9.319  69.324  1.00  0.00    -0.151 A  
BRANCH  19  22
HETATM   22  O   UNL     1      -7.047   8.163  69.397  1.00  0.00    -0.054 OA 
HETATM   23  C   UNL     1      -5.682   8.444  69.092  1.00  0.00    -0.038 C  
ENDBRANCH  19  22
BRANCH  21  24
HETATM   24  C   UNL     1      -9.263   9.236  70.828  1.00  0.00    -0.316 C  
BRANCH  24  25
HETATM   25  C   UNL     1     -10.286   8.272  71.386  1.00  0.00    -0.263 A  
HETATM   26  C   UNL     1      -9.917   6.985  71.802  1.00  0.00    -0.176 A  
HETATM   27  C   UNL     1     -10.883   6.032  72.143  1.00  0.00    -0.251 A  
HETATM   28  F   UNL     1      -8.617   6.652  71.824  1.00  0.00    -0.123 F  
HETATM   29  C   UNL     1     -12.237   6.353  72.074  1.00  0.00    -0.320 A  
HETATM   30 CL   UNL     1     -10.422   4.439  72.610  1.00  0.00    -0.249 Cl 
HETATM   31  C   UNL     1     -12.620   7.641  71.700  1.00  0.00    -0.365 A  
HETATM   32  C   UNL     1     -11.651   8.597  71.370  1.00  0.00    -0.354 A  
ENDBRANCH  24  25
ENDBRANCH  21  24
ENDBRANCH   1   8
TORSDOF 5
ENDMDL
MODEL      104
REMARK 921   NORMALIZED FREE ENERGY PREDICTED BY IDOCK:   -4.43 KCAL/MOL
REMARK 922        TOTAL FREE ENERGY PREDICTED BY IDOCK:   -6.86 KCAL/MOL
REMARK 923 INTER-LIGAND FREE ENERGY PREDICTED BY IDOCK:   -6.95 KCAL/MOL
REMARK 924 INTRA-LIGAND FREE ENERGY PREDICTED BY IDOCK:    0.09 KCAL/MOL
REMARK 927      BINDING AFFINITY PREDICTED BY RF-SCORE:    0.00 PKD
ROOT
HETATM    1  C   UNL     1      -8.874   6.670  68.988  1.00  0.00    -0.128 C  
HETATM    2  C   UNL     1      -7.247   6.476  70.979  1.00  0.00    -0.078 C  
HETATM    3  C   UNL     1      -8.620   4.513  70.330  1.00  0.00    -0.104 C  
HETATM    4  C   UNL     1      -8.597   6.048  70.387  1.00  0.00    -0.133 C  
ENDROOT
BRANCH   1   5
HETATM    5  C   UNL     1     -10.292   6.332  68.459  1.00  0.00    -0.203 C  
HETATM    6  H   UNL     1     -11.087   5.445  66.882  1.00  0.00     0.000 HD 
HETATM    7  O   UNL     1     -10.219   5.653  67.206  1.00  0.00    -0.164 OA 
ENDBRANCH   1   5
BRANCH   1   8
HETATM    8  N   UNL     1      -8.643   8.165  68.985  1.00  0.00    -0.132 NA 
HETATM    9  C   UNL     1      -7.564  10.034  67.828  1.00  0.00    -0.090 C  
HETATM   10  C   UNL     1      -7.662   8.742  68.178  1.00  0.00    -0.101 C  
HETATM   11  C   UNL     1      -6.439  10.471  66.973  1.00  0.00    -0.076 C  
HETATM   12  C   UNL     1      -8.619  10.941  68.299  1.00  0.00    -0.139 C  
HETATM   13  C   UNL     1      -9.728  10.366  69.091  1.00  0.00    -0.234 A  
HETATM   14  O   UNL     1      -8.555  12.143  68.045  1.00  0.00    -0.159 OA 
HETATM   15  O   UNL     1      -5.611   9.700  66.507  1.00  0.00    -0.048 OA 
HETATM   16  O   UNL     1      -6.391  11.800  66.743  1.00  0.00    -0.144 OA 
HETATM   17  C   UNL     1      -9.683   9.012  69.469  1.00  0.00    -0.170 A  
HETATM   18  C   UNL     1     -10.696   8.584  70.340  1.00  0.00    -0.246 A  
HETATM   19  C   UNL     1     -11.767   9.409  70.734  1.00  0.00    -0.282 A  
HETATM   20  C   UNL     1     -10.792  11.204  69.462  1.00  0.00    -0.241 A  
HETATM   21  C   UNL     1     -11.832  10.737  70.280  1.00  0.00    -0.438 A  
BRANCH  19  22
HETATM   22  O   UNL     1     -12.759   8.997  71.590  1.00  0.00    -0.324 OA 
HETATM   23  C   UNL     1     -13.898   8.364  71.007  1.00  0.00     0.110 C  
ENDBRANCH  19  22
BRANCH  21  24
HETATM   24  C   UNL     1     -12.908  11.705  70.724  1.00  0.00    -0.197 C  
BRANCH  24  25
HETATM   25  C   UNL     1     -12.518  13.152  70.932  1.00  0.00    -0.407 A  
HETATM   26  C   UNL     1     -12.795  13.811  72.138  1.00  0.00    -0.271 A  
HETATM   27  C   UNL     1     -12.605  15.192  72.267  1.00  0.00    -0.344 A  
HETATM   28  F   UNL     1     -13.298  13.111  73.167  1.00  0.00    -0.326 F  
HETATM   29  C   UNL     1     -12.132  15.936  71.187  1.00  0.00    -0.464 A  
HETATM   30 CL   UNL     1     -12.991  16.000  73.738  1.00  0.00    -0.653 Cl 
HETATM   31  C   UNL     1     -11.813  15.290  69.994  1.00  0.00    -0.365 A  
HETATM   32  C   UNL     1     -11.994  13.906  69.870  1.00  0.00    -0.405 A  
ENDBRANCH  24  25
ENDBRANCH  21  24
ENDBRANCH   1   8
TORSDOF 5
ENDMDL
MODEL      105
REMARK 921   NORMALIZED FREE ENERGY PREDICTED BY IDOCK:   -4.34 KCAL/MOL
REMARK 922        TOTAL FREE ENERGY PREDICTED BY IDOCK:   -6.75 KCAL/MOL
REMARK 923 INTER-LIGAND FREE ENERGY PREDICTED BY IDOCK:   -6.35 KCAL/MOL
REMARK 924 INTRA-LIGAND FREE ENERGY PREDICTED BY IDOCK:   -0.40 KCAL/MOL
REMARK 927      BINDING AFFINITY PREDICTED BY RF-SCORE:    0.00 PKD
ROOT
HETATM    1  C   UNL     1      -9.231   7.647  66.779  1.00  0.00    -0.160 C  
HETATM    2  C   UNL     1      -7.223   8.303  65.301  1.00  0.00    -0.079 C  
HETATM    3  C   UNL     1      -8.260   6.066  65.025  1.00  0.00    -0.136 C  
HETATM    4  C   UNL     1      -7.944   7.170  66.045  1.00  0.00    -0.112 C  
ENDROOT
BRANCH   1   5
HETATM    5  C   UNL     1      -9.879   6.522  67.628  1.00  0.00    -0.125 C  
HETATM    6  H   UNL     1     -11.627   5.606  67.745  1.00  0.00     0.000 HD 
HETATM    7  O   UNL     1     -11.230   6.295  67.225  1.00  0.00    -0.332 OA 
ENDBRANCH   1   5
BRANCH   1   8
HETATM    8  N   UNL     1      -8.971   8.873  67.624  1.00  0.00    -0.134 NA 
HETATM    9  C   UNL     1      -7.512   9.884  69.311  1.00  0.00    -0.096 C  
HETATM   10  C   UNL     1      -8.079   8.834  68.697  1.00  0.00    -0.116 C  
HETATM   11  C   UNL     1      -6.596   9.651  70.450  1.00  0.00    -0.096 C  
HETATM   12  C   UNL     1      -7.817  11.220  68.782  1.00  0.00    -0.139 C  
HETATM   13  C   UNL     1      -8.694  11.313  67.594  1.00  0.00    -0.131 A  
HETATM   14  O   UNL     1      -7.360  12.219  69.334  1.00  0.00     0.098 OA 
HETATM   15  O   UNL     1      -6.273   8.535  70.833  1.00  0.00    -0.033 OA 
HETATM   16  O   UNL     1      -6.142  10.774  71.045  1.00  0.00    -0.343 OA 
HETATM   17  C   UNL     1      -9.300  10.151  67.085  1.00  0.00    -0.153 A  
HETATM   18  C   UNL     1     -10.229  10.346  66.051  1.00  0.00    -0.295 A  
HETATM   19  C   UNL     1     -10.472  11.604  65.467  1.00  0.00    -0.273 A  
HETATM   20  C   UNL     1      -8.912  12.576  67.020  1.00  0.00    -0.211 A  
HETATM   21  C   UNL     1      -9.797  12.740  65.943  1.00  0.00    -0.243 A  
BRANCH  19  22
HETATM   22  O   UNL     1     -11.384  11.802  64.459  1.00  0.00    -0.322 OA 
HETATM   23  C   UNL     1     -12.566  12.532  64.788  1.00  0.00    -0.413 C  
ENDBRANCH  19  22
BRANCH  21  24
HETATM   24  C   UNL     1     -10.065  14.135  65.419  1.00  0.00    -0.359 C  
BRANCH  24  25
HETATM   25  C   UNL     1      -9.915  15.294  66.379  1.00  0.00    -0.291 A  
HETATM   26  C   UNL     1     -10.620  15.327  67.591  1.00  0.00    -0.270 A  
HETATM   27  C   UNL     1     -10.628  16.475  68.391  1.00  0.00    -0.323 A  
HETATM   28  F   UNL     1     -11.339  14.255  67.959  1.00  0.00    -0.261 F  
HETATM   29  C   UNL     1      -9.927  17.611  67.990  1.00  0.00    -0.326 A  
HETATM   30 CL   UNL     1     -11.535  16.522  69.855  1.00  0.00    -0.073 Cl 
HETATM   31  C   UNL     1      -9.187  17.582  66.808  1.00  0.00    -0.277 A  
HETATM   32  C   UNL     1      -9.172  16.427  66.014  1.00  0.00    -0.328 A  
ENDBRANCH  24  25
ENDBRANCH  21  24
ENDBRANCH   1   8
TORSDOF 5
ENDMDL
MODEL      106
REMARK 921   NORMALIZED FREE ENERGY PREDICTED BY IDOCK:   -4.31 KCAL/MOL
REMARK 922        TOTAL FREE ENERGY PREDICTED BY IDOCK:   -6.72 KCAL/MOL
REMARK 923 INTER-LIGAND FREE ENERGY PREDICTED BY IDOCK:   -6.04 KCAL/MOL
REMARK 924 INTRA-LIGAND FREE ENERGY PREDICTED BY IDOCK:   -0.68 KCAL/MOL
REMARK 927      BINDING AFFINITY PREDICTED BY RF-SCORE:    0.00 PKD
ROOT
HETATM    1  C   UNL     1      -7.688   5.936  63.888  1.00  0.00    -0.096 C  
HETATM    2  C   UNL     1      -5.310   6.436  64.748  1.00  0.00    -0.021 C  
HETATM    3  C   UNL     1      -5.705   4.417  63.361  1.00  0.00    -0.017 C  
HETATM    4  C   UNL     1      -6.340   5.352  64.401  1.00  0.00    -0.026 C  
ENDROOT
BRANCH   1   5
HETATM    5  C   UNL     1      -8.760   4.838  63.661  1.00  0.00    -0.130 C  
HETATM    6  H   UNL     1      -9.935   4.227  62.194  1.00  0.00     0.000 HD 
HETATM    7  O   UNL     1      -9.279   4.900  62.333  1.00  0.00    -0.126 OA 
ENDBRANCH   1   5
BRANCH   1   8
HETATM    8  N   UNL     1      -8.215   7.017  64.805  1.00  0.00    -0.092 NA 
HETATM    9  C   UNL     1      -9.256   9.231  64.917  1.00  0.00    -0.206 C  
HETATM   10  C   UNL     1      -8.497   8.296  64.323  1.00  0.00     0.017 C  
HETATM   11  C   UNL     1      -9.432  10.546  64.263  1.00  0.00    -0.285 C  
HETATM   12  C   UNL     1      -9.899   8.869  66.187  1.00  0.00    -0.256 C  
HETATM   13  C   UNL     1      -9.699   7.497  66.702  1.00  0.00    -0.273 A  
HETATM   14  O   UNL     1     -10.568   9.702  66.797  1.00  0.00    -0.209 OA 
HETATM   15  O   UNL     1      -8.969  10.815  63.163  1.00  0.00    -0.200 OA 
HETATM   16  O   UNL     1     -10.148  11.439  64.979  1.00  0.00    -0.246 OA 
HETATM   17  C   UNL     1      -8.815   6.628  66.038  1.00  0.00    -0.139 A  
HETATM   18  C   UNL     1      -8.570   5.400  66.672  1.00  0.00    -0.115 A  
HETATM   19  C   UNL     1      -9.241   4.993  67.841  1.00  0.00    -0.119 A  
HETATM   20  C   UNL     1     -10.388   7.109  67.862  1.00  0.00    -0.248 A  
HETATM   21  C   UNL     1     -10.178   5.849  68.444  1.00  0.00    -0.236 A  
BRANCH  19  22
HETATM   22  O   UNL     1      -9.001   3.796  68.468  1.00  0.00    -0.104 OA 
HETATM   23  C   UNL     1      -9.210   2.609  67.703  1.00  0.00    -0.190 C  
ENDBRANCH  19  22
BRANCH  21  24
HETATM   24  C   UNL     1     -10.879   5.515  69.744  1.00  0.00    -0.291 C  
BRANCH  24  25
HETATM   25  C   UNL     1     -10.934   6.581  70.815  1.00  0.00    -0.328 A  
HETATM   26  C   UNL     1     -12.141   7.208  71.153  1.00  0.00    -0.358 A  
HETATM   27  C   UNL     1     -12.166   8.317  72.005  1.00  0.00    -0.348 A  
HETATM   28  F   UNL     1     -13.285   6.763  70.606  1.00  0.00    -0.286 F  
HETATM   29  C   UNL     1     -10.979   8.817  72.536  1.00  0.00    -0.095 A  
HETATM   30 CL   UNL     1     -13.650   9.108  72.378  1.00  0.00    -0.523 Cl 
HETATM   31  C   UNL     1      -9.773   8.181  72.243  1.00  0.00    -0.322 A  
HETATM   32  C   UNL     1      -9.752   7.064  71.398  1.00  0.00    -0.169 A  
ENDBRANCH  24  25
ENDBRANCH  21  24
ENDBRANCH   1   8
TORSDOF 5
ENDMDL
MODEL      107
REMARK 921   NORMALIZED FREE ENERGY PREDICTED BY IDOCK:   -4.30 KCAL/MOL
REMARK 922        TOTAL FREE ENERGY PREDICTED BY IDOCK:   -6.69 KCAL/MOL
REMARK 923 INTER-LIGAND FREE ENERGY PREDICTED BY IDOCK:   -6.27 KCAL/MOL
REMARK 924 INTRA-LIGAND FREE ENERGY PREDICTED BY IDOCK:   -0.42 KCAL/MOL
REMARK 927      BINDING AFFINITY PREDICTED BY RF-SCORE:    0.00 PKD
ROOT
HETATM    1  C   UNL     1      -9.783  16.882  68.042  1.00  0.00    -0.256 C  
HETATM    2  C   UNL     1      -8.413  17.569  65.969  1.00  0.00    -0.099 C  
HETATM    3  C   UNL     1     -10.578  18.690  66.425  1.00  0.00    -0.399 C  
HETATM    4  C   UNL     1      -9.813  17.366  66.563  1.00  0.00    -0.310 C  
ENDROOT
BRANCH   1   5
HETATM    5  C   UNL     1     -11.198  16.560  68.588  1.00  0.00    -0.297 C  
HETATM    6  H   UNL     1     -12.106  16.505  70.343  1.00  0.00     0.000 HD 
HETATM    7  O   UNL     1     -11.240  16.702  70.008  1.00  0.00    -0.247 OA 
ENDBRANCH   1   5
BRANCH   1   8
HETATM    8  N   UNL     1      -8.857  15.701  68.225  1.00  0.00    -0.177 NA 
HETATM    9  C   UNL     1      -7.029  14.763  69.558  1.00  0.00    -0.176 C  
HETATM   10  C   UNL     1      -7.734  15.786  69.050  1.00  0.00    -0.202 C  
HETATM   11  C   UNL     1      -5.850  15.045  70.406  1.00  0.00    -0.143 C  
HETATM   12  C   UNL     1      -7.503  13.405  69.260  1.00  0.00     0.253 C  
HETATM   13  C   UNL     1      -8.736  13.259  68.457  1.00  0.00    -0.059 A  
HETATM   14  O   UNL     1      -6.869  12.431  69.663  1.00  0.00    -0.006 OA 
HETATM   15  O   UNL     1      -5.509  16.175  70.726  1.00  0.00    -0.147 OA 
HETATM   16  O   UNL     1      -5.167  13.949  70.801  1.00  0.00    -0.106 OA 
HETATM   17  C   UNL     1      -9.345  14.400  67.906  1.00  0.00    -0.203 A  
HETATM   18  C   UNL     1     -10.423  14.162  67.039  1.00  0.00    -0.271 A  
HETATM   19  C   UNL     1     -10.952  12.878  66.808  1.00  0.00    -0.272 A  
HETATM   20  C   UNL     1      -9.252  11.969  68.250  1.00  0.00    -0.192 A  
HETATM   21  C   UNL     1     -10.373  11.760  67.431  1.00  0.00    -0.228 A  
BRANCH  19  22
HETATM   22  O   UNL     1     -12.002  12.639  65.956  1.00  0.00    -0.420 OA 
HETATM   23  C   UNL     1     -12.723  13.774  65.480  1.00  0.00    -0.488 C  
ENDBRANCH  19  22
BRANCH  21  24
HETATM   24  C   UNL     1     -10.835  10.342  67.168  1.00  0.00    -0.278 C  
BRANCH  24  25
HETATM   25  C   UNL     1     -11.147   9.466  68.361  1.00  0.00     0.019 A  
HETATM   26  C   UNL     1     -11.822   9.976  69.479  1.00  0.00     0.085 A  
HETATM   27  C   UNL     1     -11.948   9.224  70.652  1.00  0.00    -0.152 A  
HETATM   28  F   UNL     1     -12.309  11.226  69.435  1.00  0.00    -0.354 F  
HETATM   29  C   UNL     1     -11.400   7.944  70.725  1.00  0.00    -0.283 A  
HETATM   30 CL   UNL     1     -12.738   9.877  72.036  1.00  0.00    -0.473 Cl 
HETATM   31  C   UNL     1     -10.761   7.406  69.608  1.00  0.00    -0.245 A  
HETATM   32  C   UNL     1     -10.646   8.156  68.431  1.00  0.00    -0.148 A  
ENDBRANCH  24  25
ENDBRANCH  21  24
ENDBRANCH   1   8
TORSDOF 5
ENDMDL
MODEL      108
REMARK 921   NORMALIZED FREE ENERGY PREDICTED BY IDOCK:   -4.28 KCAL/MOL
REMARK 922        TOTAL FREE ENERGY PREDICTED BY IDOCK:   -6.67 KCAL/MOL
REMARK 923 INTER-LIGAND FREE ENERGY PREDICTED BY IDOCK:   -5.61 KCAL/MOL
REMARK 924 INTRA-LIGAND FREE ENERGY PREDICTED BY IDOCK:   -1.06 KCAL/MOL
REMARK 927      BINDING AFFINITY PREDICTED BY RF-SCORE:    0.00 PKD
ROOT
HETATM    1  C   UNL     1      -8.347   5.482  69.655  1.00  0.00    -0.102 C  
HETATM    2  C   UNL     1     -10.864   5.912  69.293  1.00  0.00    -0.414 C  
HETATM    3  C   UNL     1     -10.040   5.330  71.560  1.00  0.00    -0.254 C  
HETATM    4  C   UNL     1      -9.803   5.108  70.059  1.00  0.00    -0.295 C  
ENDROOT
BRANCH   1   5
HETATM    5  C   UNL     1      -7.292   4.577  70.342  1.00  0.00    -0.049 C  
HETATM    6  H   UNL     1      -5.355   4.633  70.733  1.00  0.00     0.000 HD 
HETATM    7  O   UNL     1      -6.002   5.187  70.312  1.00  0.00    -0.016 OA 
ENDBRANCH   1   5
BRANCH   1   8
HETATM    8  N   UNL     1      -8.164   5.474  68.154  1.00  0.00    -0.096 NA 
HETATM    9  C   UNL     1      -8.676   4.296  66.069  1.00  0.00    -0.114 C  
HETATM   10  C   UNL     1      -8.476   4.345  67.395  1.00  0.00    -0.103 C  
HETATM   11  C   UNL     1      -8.984   2.998  65.428  1.00  0.00    -0.143 C  
HETATM   12  C   UNL     1      -8.606   5.564  65.330  1.00  0.00    -0.151 C  
HETATM   13  C   UNL     1      -8.359   6.803  66.098  1.00  0.00    -0.130 A  
HETATM   14  O   UNL     1      -8.737   5.571  64.107  1.00  0.00    -0.056 OA 
HETATM   15  O   UNL     1      -9.129   1.959  66.057  1.00  0.00    -0.117 OA 
HETATM   16  O   UNL     1      -9.090   3.046  64.084  1.00  0.00    -0.105 OA 
HETATM   17  C   UNL     1      -8.080   6.724  67.474  1.00  0.00    -0.115 A  
HETATM   18  C   UNL     1      -7.713   7.927  68.097  1.00  0.00    -0.125 A  
HETATM   19  C   UNL     1      -7.726   9.169  67.432  1.00  0.00    -0.092 A  
HETATM   20  C   UNL     1      -8.389   8.031  65.417  1.00  0.00    -0.161 A  
HETATM   21  C   UNL     1      -8.083   9.233  66.075  1.00  0.00    -0.110 A  
BRANCH  19  22
HETATM   22  O   UNL     1      -7.363  10.348  68.034  1.00  0.00    -0.084 OA 
HETATM   23  C   UNL     1      -6.030  10.807  67.810  1.00  0.00    -0.043 C  
ENDBRANCH  19  22
BRANCH  21  24
HETATM   24  C   UNL     1      -8.042  10.518  65.274  1.00  0.00    -0.131 C  
BRANCH  24  25
HETATM   25  C   UNL     1      -9.350  11.228  65.007  1.00  0.00    -0.200 A  
HETATM   26  C   UNL     1      -9.989  11.972  66.008  1.00  0.00    -0.234 A  
HETATM   27  C   UNL     1     -11.282  12.474  65.822  1.00  0.00    -0.320 A  
HETATM   28  F   UNL     1      -9.366  12.160  67.182  1.00  0.00    -0.177 F  
HETATM   29  C   UNL     1     -11.958  12.239  64.626  1.00  0.00    -0.437 A  
HETATM   30 CL   UNL     1     -12.077  13.348  67.076  1.00  0.00    -0.416 Cl 
HETATM   31  C   UNL     1     -11.321  11.535  63.604  1.00  0.00    -0.412 A  
HETATM   32  C   UNL     1     -10.022  11.044  63.788  1.00  0.00    -0.404 A  
ENDBRANCH  24  25
ENDBRANCH  21  24
ENDBRANCH   1   8
TORSDOF 5
ENDMDL
MODEL      109
REMARK 921   NORMALIZED FREE ENERGY PREDICTED BY IDOCK:   -4.26 KCAL/MOL
REMARK 922        TOTAL FREE ENERGY PREDICTED BY IDOCK:   -6.65 KCAL/MOL
REMARK 923 INTER-LIGAND FREE ENERGY PREDICTED BY IDOCK:   -6.20 KCAL/MOL
REMARK 924 INTRA-LIGAND FREE ENERGY PREDICTED BY IDOCK:   -0.45 KCAL/MOL
REMARK 927      BINDING AFFINITY PREDICTED BY RF-SCORE:    0.00 PKD
ROOT
HETATM    1  C   UNL     1      -7.986   5.629  65.361  1.00  0.00    -0.112 C  
HETATM    2  C   UNL     1      -5.750   5.987  66.592  1.00  0.00    -0.017 C  
HETATM    3  C   UNL     1      -6.156   3.850  65.398  1.00  0.00    -0.024 C  
HETATM    4  C   UNL     1      -6.836   4.982  66.184  1.00  0.00    -0.061 C  
ENDROOT
BRANCH   1   5
HETATM    5  C   UNL     1      -9.136   4.632  65.063  1.00  0.00    -0.156 C  
HETATM    6  H   UNL     1      -9.901   3.716  63.488  1.00  0.00     0.000 HD 
HETATM    7  O   UNL     1      -9.198   4.327  63.670  1.00  0.00    -0.140 OA 
ENDBRANCH   1   5
BRANCH   1   8
HETATM    8  N   UNL     1      -8.519   6.876  66.030  1.00  0.00    -0.134 NA 
HETATM    9  C   UNL     1      -9.361   9.149  65.675  1.00  0.00    -0.300 C  
HETATM   10  C   UNL     1      -8.624   8.081  65.332  1.00  0.00    -0.114 C  
HETATM   11  C   UNL     1      -9.337  10.353  64.817  1.00  0.00    -0.251 C  
HETATM   12  C   UNL     1     -10.183   9.038  66.888  1.00  0.00    -0.269 C  
HETATM   13  C   UNL     1     -10.172   7.754  67.621  1.00  0.00    -0.282 A  
HETATM   14  O   UNL     1     -10.843  10.002  67.273  1.00  0.00    -0.270 OA 
HETATM   15  O   UNL     1      -8.723  10.412  63.761  1.00  0.00    -0.174 OA 
HETATM   16  O   UNL     1     -10.050  11.396  65.292  1.00  0.00    -0.242 OA 
HETATM   17  C   UNL     1      -9.296   6.731  67.216  1.00  0.00    -0.134 A  
HETATM   18  C   UNL     1      -9.242   5.603  68.051  1.00  0.00    -0.110 A  
HETATM   19  C   UNL     1     -10.083   5.435  69.167  1.00  0.00    -0.223 A  
HETATM   20  C   UNL     1     -11.028   7.604  68.723  1.00  0.00     0.078 A  
HETATM   21  C   UNL     1     -11.005   6.439  69.507  1.00  0.00    -0.421 A  
BRANCH  19  22
HETATM   22  O   UNL     1     -10.031   4.337  69.990  1.00  0.00    -0.223 OA 
HETATM   23  C   UNL     1      -8.759   4.004  70.547  1.00  0.00    -0.076 C  
ENDBRANCH  19  22
BRANCH  21  24
HETATM   24  C   UNL     1     -11.885   6.365  70.737  1.00  0.00    -0.319 C  
BRANCH  24  25
HETATM   25  C   UNL     1     -11.211   6.306  72.089  1.00  0.00    -0.326 A  
HETATM   26  C   UNL     1     -10.289   7.286  72.483  1.00  0.00    -0.218 A  
HETATM   27  C   UNL     1      -9.529   7.137  73.649  1.00  0.00    -0.224 A  
HETATM   28  F   UNL     1     -10.099   8.359  71.698  1.00  0.00    -0.224 F  
HETATM   29  C   UNL     1      -9.682   6.002  74.442  1.00  0.00    -0.242 A  
HETATM   30 CL   UNL     1      -8.366   8.325  74.099  1.00  0.00    -0.299 Cl 
HETATM   31  C   UNL     1     -10.623   5.036  74.087  1.00  0.00    -0.338 A  
HETATM   32  C   UNL     1     -11.391   5.193  72.925  1.00  0.00    -0.354 A  
ENDBRANCH  24  25
ENDBRANCH  21  24
ENDBRANCH   1   8
TORSDOF 5
ENDMDL
MODEL      110
REMARK 921   NORMALIZED FREE ENERGY PREDICTED BY IDOCK:   -4.20 KCAL/MOL
REMARK 922        TOTAL FREE ENERGY PREDICTED BY IDOCK:   -6.57 KCAL/MOL
REMARK 923 INTER-LIGAND FREE ENERGY PREDICTED BY IDOCK:   -5.91 KCAL/MOL
REMARK 924 INTRA-LIGAND FREE ENERGY PREDICTED BY IDOCK:   -0.66 KCAL/MOL
REMARK 927      BINDING AFFINITY PREDICTED BY RF-SCORE:    0.00 PKD
ROOT
HETATM    1  C   UNL     1     -11.156  11.991  67.489  1.00  0.00    -0.275 C  
HETATM    2  C   UNL     1     -12.028  13.264  65.423  1.00  0.00    -0.432 C  
HETATM    3  C   UNL     1     -11.324  10.896  65.188  1.00  0.00     0.383 C  
HETATM    4  C   UNL     1     -11.053  12.202  65.951  1.00  0.00    -0.360 C  
ENDROOT
BRANCH   1   5
HETATM    5  C   UNL     1     -10.082  11.009  68.025  1.00  0.00    -0.179 C  
HETATM    6  H   UNL     1     -10.033   9.281  68.984  1.00  0.00     0.000 HD 
HETATM    7  O   UNL     1     -10.691   9.883  68.655  1.00  0.00    -0.215 OA 
ENDBRANCH   1   5
BRANCH   1   8
HETATM    8  N   UNL     1     -11.105  13.303  68.239  1.00  0.00    -0.253 NA 
HETATM    9  C   UNL     1     -12.089  14.628  70.048  1.00  0.00    -0.383 C  
HETATM   10  C   UNL     1     -12.141  13.686  69.093  1.00  0.00    -0.319 C  
HETATM   11  C   UNL     1     -13.299  14.914  70.851  1.00  0.00    -0.344 C  
HETATM   12  C   UNL     1     -10.802  15.305  70.258  1.00  0.00    -0.279 C  
HETATM   13  C   UNL     1      -9.650  14.879  69.435  1.00  0.00    -0.080 A  
HETATM   14  O   UNL     1     -10.711  16.207  71.090  1.00  0.00     0.147 OA 
HETATM   15  O   UNL     1     -14.343  14.288  70.735  1.00  0.00     0.280 OA 
HETATM   16  O   UNL     1     -13.163  15.929  71.730  1.00  0.00    -0.451 OA 
HETATM   17  C   UNL     1      -9.841  13.940  68.406  1.00  0.00    -0.229 A  
HETATM   18  C   UNL     1      -8.732  13.701  67.579  1.00  0.00    -0.198 A  
HETATM   19  C   UNL     1      -7.465  14.268  67.815  1.00  0.00    -0.164 A  
HETATM   20  C   UNL     1      -8.393  15.448  69.696  1.00  0.00    -0.127 A  
HETATM   21  C   UNL     1      -7.280  15.145  68.897  1.00  0.00    -0.133 A  
BRANCH  19  22
HETATM   22  O   UNL     1      -6.377  14.042  67.007  1.00  0.00    -0.019 OA 
HETATM   23  C   UNL     1      -5.658  12.827  67.211  1.00  0.00     0.015 C  
ENDBRANCH  19  22
BRANCH  21  24
HETATM   24  C   UNL     1      -5.969  15.854  69.165  1.00  0.00    -0.121 C  
BRANCH  24  25
HETATM   25  C   UNL     1      -5.970  17.366  69.174  1.00  0.00    -0.208 A  
HETATM   26  C   UNL     1      -5.634  18.085  70.330  1.00  0.00    -0.221 A  
HETATM   27  C   UNL     1      -5.811  19.471  70.396  1.00  0.00    -0.248 A  
HETATM   28  F   UNL     1      -5.183  17.420  71.406  1.00  0.00    -0.262 F  
HETATM   29  C   UNL     1      -6.328  20.163  69.303  1.00  0.00    -0.356 A  
HETATM   30 CL   UNL     1      -5.439  20.338  71.838  1.00  0.00    -0.396 Cl 
HETATM   31  C   UNL     1      -6.629  19.469  68.131  1.00  0.00    -0.289 A  
HETATM   32  C   UNL     1      -6.440  18.083  68.063  1.00  0.00    -0.188 A  
ENDBRANCH  24  25
ENDBRANCH  21  24
ENDBRANCH   1   8
TORSDOF 5
ENDMDL
MODEL      111
REMARK 921   NORMALIZED FREE ENERGY PREDICTED BY IDOCK:   -4.20 KCAL/MOL
REMARK 922        TOTAL FREE ENERGY PREDICTED BY IDOCK:   -6.57 KCAL/MOL
REMARK 923 INTER-LIGAND FREE ENERGY PREDICTED BY IDOCK:   -5.56 KCAL/MOL
REMARK 924 INTRA-LIGAND FREE ENERGY PREDICTED BY IDOCK:   -1.01 KCAL/MOL
REMARK 927      BINDING AFFINITY PREDICTED BY RF-SCORE:    0.00 PKD
ROOT
HETATM    1  C   UNL     1      -7.999   8.849  64.487  1.00  0.00    -0.135 C  
HETATM    2  C   UNL     1      -6.016   9.133  66.111  1.00  0.00    -0.059 C  
HETATM    3  C   UNL     1      -5.982  10.311  63.928  1.00  0.00    -0.133 C  
HETATM    4  C   UNL     1      -6.463   9.041  64.645  1.00  0.00    -0.070 C  
ENDROOT
BRANCH   1   5
HETATM    5  C   UNL     1      -8.420   8.632  63.010  1.00  0.00    -0.110 C  
HETATM    6  H   UNL     1      -7.745   7.655  61.430  1.00  0.00     0.000 HD 
HETATM    7  O   UNL     1      -7.487   7.789  62.334  1.00  0.00    -0.090 OA 
ENDBRANCH   1   5
BRANCH   1   8
HETATM    8  N   UNL     1      -8.515   7.728  65.361  1.00  0.00    -0.135 NA 
HETATM    9  C   UNL     1      -8.050   5.499  66.261  1.00  0.00    -0.106 C  
HETATM   10  C   UNL     1      -7.924   6.464  65.337  1.00  0.00    -0.116 C  
HETATM   11  C   UNL     1      -7.358   4.207  66.060  1.00  0.00    -0.080 C  
HETATM   12  C   UNL     1      -8.856   5.806  67.451  1.00  0.00    -0.106 C  
HETATM   13  C   UNL     1      -9.439   7.161  67.565  1.00  0.00    -0.144 A  
HETATM   14  O   UNL     1      -9.041   4.943  68.307  1.00  0.00    -0.107 OA 
HETATM   15  O   UNL     1      -6.616   3.984  65.114  1.00  0.00    -0.044 OA 
HETATM   16  O   UNL     1      -7.612   3.280  67.008  1.00  0.00    -0.073 OA 
HETATM   17  C   UNL     1      -9.311   8.064  66.495  1.00  0.00    -0.205 A  
HETATM   18  C   UNL     1     -10.016   9.271  66.623  1.00  0.00    -0.333 A  
HETATM   19  C   UNL     1     -10.721   9.626  67.789  1.00  0.00    -0.257 A  
HETATM   20  C   UNL     1     -10.127   7.497  68.742  1.00  0.00    -0.191 A  
HETATM   21  C   UNL     1     -10.770   8.738  68.876  1.00  0.00    -0.114 A  
BRANCH  19  22
HETATM   22  O   UNL     1     -11.417  10.803  67.919  1.00  0.00    -0.421 OA 
HETATM   23  C   UNL     1     -10.677  11.953  68.330  1.00  0.00    -0.223 C  
ENDBRANCH  19  22
BRANCH  21  24
HETATM   24  C   UNL     1     -11.573   9.016  70.129  1.00  0.00    -0.007 C  
BRANCH  24  25
HETATM   25  C   UNL     1     -11.442   8.049  71.285  1.00  0.00    -0.299 A  
HETATM   26  C   UNL     1     -10.424   8.191  72.237  1.00  0.00    -0.302 A  
HETATM   27  C   UNL     1     -10.187   7.199  73.196  1.00  0.00    -0.276 A  
HETATM   28  F   UNL     1      -9.632   9.275  72.193  1.00  0.00    -0.303 F  
HETATM   29  C   UNL     1     -10.970   6.046  73.217  1.00  0.00    -0.244 A  
HETATM   30 CL   UNL     1      -8.903   7.362  74.333  1.00  0.00    -0.245 Cl 
HETATM   31  C   UNL     1     -12.013   5.907  72.303  1.00  0.00    -0.211 A  
HETATM   32  C   UNL     1     -12.255   6.906  71.351  1.00  0.00    -0.418 A  
ENDBRANCH  24  25
ENDBRANCH  21  24
ENDBRANCH   1   8
TORSDOF 5
ENDMDL
MODEL      112
REMARK 921   NORMALIZED FREE ENERGY PREDICTED BY IDOCK:   -4.20 KCAL/MOL
REMARK 922        TOTAL FREE ENERGY PREDICTED BY IDOCK:   -6.57 KCAL/MOL
REMARK 923 INTER-LIGAND FREE ENERGY PREDICTED BY IDOCK:   -6.20 KCAL/MOL
REMARK 924 INTRA-LIGAND FREE ENERGY PREDICTED BY IDOCK:   -0.37 KCAL/MOL
REMARK 927      BINDING AFFINITY PREDICTED BY RF-SCORE:    0.00 PKD
ROOT
HETATM    1  C   UNL     1      -9.755  11.616  66.784  1.00  0.00    -0.201 C  
HETATM    2  C   UNL     1      -7.739  10.674  65.480  1.00  0.00    -0.083 C  
HETATM    3  C   UNL     1     -10.033  10.313  64.606  1.00  0.00    -0.377 C  
HETATM    4  C   UNL     1      -9.204  10.467  65.890  1.00  0.00    -0.210 C  
ENDROOT
BRANCH   1   5
HETATM    5  C   UNL     1     -11.192  11.333  67.294  1.00  0.00    -0.296 C  
HETATM    6  H   UNL     1     -12.991  12.129  67.103  1.00  0.00     0.000 HD 
HETATM    7  O   UNL     1     -12.110  12.303  66.791  1.00  0.00    -0.593 OA 
ENDBRANCH   1   5
BRANCH   1   8
HETATM    8  N   UNL     1      -8.827  11.920  67.939  1.00  0.00    -0.164 NA 
HETATM    9  C   UNL     1      -6.933  11.113  69.266  1.00  0.00    -0.118 C  
HETATM   10  C   UNL     1      -8.012  10.929  68.489  1.00  0.00    -0.134 C  
HETATM   11  C   UNL     1      -6.196   9.936  69.775  1.00  0.00    -0.050 C  
HETATM   12  C   UNL     1      -6.530  12.499  69.540  1.00  0.00    -0.083 C  
HETATM   13  C   UNL     1      -7.311  13.588  68.915  1.00  0.00    -0.045 A  
HETATM   14  O   UNL     1      -5.576  12.726  70.283  1.00  0.00    -0.122 OA 
HETATM   15  O   UNL     1      -6.480   8.785  69.473  1.00  0.00    -0.042 OA 
HETATM   16  O   UNL     1      -5.176  10.229  70.609  1.00  0.00    -0.048 OA 
HETATM   17  C   UNL     1      -8.474  13.278  68.187  1.00  0.00    -0.173 A  
HETATM   18  C   UNL     1      -9.235  14.374  67.752  1.00  0.00    -0.192 A  
HETATM   19  C   UNL     1      -8.824  15.709  67.924  1.00  0.00    -0.171 A  
HETATM   20  C   UNL     1      -6.876  14.911  69.089  1.00  0.00    -0.132 A  
HETATM   21  C   UNL     1      -7.619  15.991  68.588  1.00  0.00    -0.173 A  
BRANCH  19  22
HETATM   22  O   UNL     1      -9.568  16.786  67.506  1.00  0.00    -0.236 OA 
HETATM   23  C   UNL     1     -10.656  16.519  66.622  1.00  0.00    -0.216 C  
ENDBRANCH  19  22
BRANCH  21  24
HETATM   24  C   UNL     1      -7.152  17.402  68.881  1.00  0.00    -0.251 C  
BRANCH  24  25
HETATM   25  C   UNL     1      -7.192  18.410  67.754  1.00  0.00    -0.227 A  
HETATM   26  C   UNL     1      -6.502  18.185  66.555  1.00  0.00    -0.200 A  
HETATM   27  C   UNL     1      -6.384  19.191  65.589  1.00  0.00    -0.239 A  
HETATM   28  F   UNL     1      -5.902  17.000  66.357  1.00  0.00    -0.216 F  
HETATM   29  C   UNL     1      -6.958  20.441  65.808  1.00  0.00    -0.262 A  
HETATM   30 CL   UNL     1      -5.495  18.919  64.139  1.00  0.00    -0.288 Cl 
HETATM   31  C   UNL     1      -7.683  20.669  66.978  1.00  0.00    -0.319 A  
HETATM   32  C   UNL     1      -7.809  19.657  67.939  1.00  0.00    -0.333 A  
ENDBRANCH  24  25
ENDBRANCH  21  24
ENDBRANCH   1   8
TORSDOF 5
ENDMDL
MODEL      113
REMARK 921   NORMALIZED FREE ENERGY PREDICTED BY IDOCK:   -4.18 KCAL/MOL
REMARK 922        TOTAL FREE ENERGY PREDICTED BY IDOCK:   -6.55 KCAL/MOL
REMARK 923 INTER-LIGAND FREE ENERGY PREDICTED BY IDOCK:   -6.22 KCAL/MOL
REMARK 924 INTRA-LIGAND FREE ENERGY PREDICTED BY IDOCK:   -0.33 KCAL/MOL
REMARK 927      BINDING AFFINITY PREDICTED BY RF-SCORE:    0.00 PKD
ROOT
HETATM    1  C   UNL     1     -10.430   8.593  71.822  1.00  0.00    -0.324 C  
HETATM    2  C   UNL     1     -12.581   7.176  71.706  1.00  0.00    -0.381 C  
HETATM    3  C   UNL     1     -10.861   6.645  73.414  1.00  0.00    -0.264 C  
HETATM    4  C   UNL     1     -11.072   7.186  71.993  1.00  0.00    -0.278 C  
ENDROOT
BRANCH   1   5
HETATM    5  C   UNL     1      -8.889   8.565  71.991  1.00  0.00    -0.216 C  
HETATM    6  H   UNL     1      -7.580   8.702  73.466  1.00  0.00     0.000 HD 
HETATM    7  O   UNL     1      -8.524   8.720  73.362  1.00  0.00    -0.351 OA 
ENDBRANCH   1   5
BRANCH   1   8
HETATM    8  N   UNL     1     -10.813   9.227  70.504  1.00  0.00    -0.243 NA 
HETATM    9  C   UNL     1     -11.359  11.323  69.361  1.00  0.00    -0.360 C  
HETATM   10  C   UNL     1     -11.295  10.536  70.446  1.00  0.00    -0.328 C  
HETATM   11  C   UNL     1     -11.920  12.686  69.485  1.00  0.00    -0.270 C  
HETATM   12  C   UNL     1     -10.829  10.780  68.103  1.00  0.00    -0.236 C  
HETATM   13  C   UNL     1     -10.231   9.428  68.126  1.00  0.00    -0.239 A  
HETATM   14  O   UNL     1     -10.903  11.442  67.068  1.00  0.00    -0.253 OA 
HETATM   15  O   UNL     1     -12.279  13.169  70.550  1.00  0.00    -0.357 OA 
HETATM   16  O   UNL     1     -12.011  13.365  68.322  1.00  0.00    -0.345 OA 
HETATM   17  C   UNL     1     -10.295   8.660  69.303  1.00  0.00    -0.221 A  
HETATM   18  C   UNL     1      -9.837   7.338  69.199  1.00  0.00    -0.166 A  
HETATM   19  C   UNL     1      -9.242   6.823  68.031  1.00  0.00    -0.117 A  
HETATM   20  C   UNL     1      -9.632   8.939  66.954  1.00  0.00    -0.248 A  
HETATM   21  C   UNL     1      -9.120   7.633  66.891  1.00  0.00    -0.171 A  
BRANCH  19  22
HETATM   22  O   UNL     1      -8.798   5.528  67.921  1.00  0.00    -0.107 OA 
HETATM   23  C   UNL     1      -7.494   5.244  68.427  1.00  0.00    -0.075 C  
ENDBRANCH  19  22
BRANCH  21  24
HETATM   24  C   UNL     1      -8.566   7.126  65.576  1.00  0.00    -0.093 C  
BRANCH  24  25
HETATM   25  C   UNL     1      -8.038   8.142  64.589  1.00  0.00    -0.148 A  
HETATM   26  C   UNL     1      -6.893   8.901  64.872  1.00  0.00    -0.073 A  
HETATM   27  C   UNL     1      -6.510   9.966  64.049  1.00  0.00    -0.126 A  
HETATM   28  F   UNL     1      -6.185   8.629  65.980  1.00  0.00    -0.049 F  
HETATM   29  C   UNL     1      -7.269  10.289  62.925  1.00  0.00    -0.133 A  
HETATM   30 CL   UNL     1      -5.128  10.921  64.430  1.00  0.00    -0.118 Cl 
HETATM   31  C   UNL     1      -8.388   9.519  62.607  1.00  0.00    -0.168 A  
HETATM   32  C   UNL     1      -8.763   8.446  63.426  1.00  0.00     0.240 A  
ENDBRANCH  24  25
ENDBRANCH  21  24
ENDBRANCH   1   8
TORSDOF 5
ENDMDL
MODEL      114
REMARK 921   NORMALIZED FREE ENERGY PREDICTED BY IDOCK:   -4.12 KCAL/MOL
REMARK 922        TOTAL FREE ENERGY PREDICTED BY IDOCK:   -6.46 KCAL/MOL
REMARK 923 INTER-LIGAND FREE ENERGY PREDICTED BY IDOCK:   -7.83 KCAL/MOL
REMARK 924 INTRA-LIGAND FREE ENERGY PREDICTED BY IDOCK:    1.36 KCAL/MOL
REMARK 927      BINDING AFFINITY PREDICTED BY RF-SCORE:    0.00 PKD
ROOT
HETATM    1  C   UNL     1     -12.378  14.623  69.413  1.00  0.00    -0.164 C  
HETATM    2  C   UNL     1     -11.009  12.473  69.026  1.00  0.00    -0.237 C  
HETATM    3  C   UNL     1     -12.470  12.646  71.025  1.00  0.00    -0.354 C  
HETATM    4  C   UNL     1     -11.586  13.451  70.060  1.00  0.00    -0.219 C  
ENDROOT
BRANCH   1   5
HETATM    5  C   UNL     1     -12.847  15.669  70.458  1.00  0.00    -0.287 C  
HETATM    6  H   UNL     1     -14.532  16.179  71.356  1.00  0.00     0.000 HD 
HETATM    7  O   UNL     1     -14.245  15.539  70.716  1.00  0.00    -0.334 OA 
ENDBRANCH   1   5
BRANCH   1   8
HETATM    8  N   UNL     1     -11.589  15.288  68.307  1.00  0.00    -0.344 NA 
HETATM    9  C   UNL     1      -9.744  16.812  67.785  1.00  0.00    -0.248 C  
HETATM   10  C   UNL     1     -10.727  16.353  68.575  1.00  0.00    -0.320 C  
HETATM   11  C   UNL     1      -8.936  17.969  68.230  1.00  0.00    -0.282 C  
HETATM   12  C   UNL     1      -9.510  16.102  66.520  1.00  0.00    -0.264 C  
HETATM   13  C   UNL     1     -10.342  14.916  66.224  1.00  0.00    -0.302 A  
HETATM   14  O   UNL     1      -8.652  16.507  65.738  1.00  0.00    -0.442 OA 
HETATM   15  O   UNL     1      -9.073  18.502  69.322  1.00  0.00    -0.013 OA 
HETATM   16  O   UNL     1      -8.027  18.398  67.329  1.00  0.00    -0.231 OA 
HETATM   17  C   UNL     1     -11.400  14.577  67.086  1.00  0.00    -0.350 A  
HETATM   18  C   UNL     1     -12.230  13.529  66.657  1.00  0.00    -0.411 A  
HETATM   19  C   UNL     1     -11.974  12.776  65.496  1.00  0.00    -0.449 A  
HETATM   20  C   UNL     1     -10.061  14.172  65.067  1.00  0.00    -0.326 A  
HETATM   21  C   UNL     1     -10.866  13.085  64.690  1.00  0.00    -0.373 A  
BRANCH  19  22
HETATM   22  O   UNL     1     -12.786  11.754  65.067  1.00  0.00    -0.037 OA 
HETATM   23  C   UNL     1     -13.316  11.857  63.746  1.00  0.00     0.396 C  
ENDBRANCH  19  22
BRANCH  21  24
HETATM   24  C   UNL     1     -10.573  12.373  63.386  1.00  0.00    -0.375 C  
BRANCH  24  25
HETATM   25  C   UNL     1      -9.559  11.251  63.403  1.00  0.00    -0.351 A  
HETATM   26  C   UNL     1      -9.508  10.336  64.464  1.00  0.00    -0.298 A  
HETATM   27  C   UNL     1      -8.461   9.415  64.575  1.00  0.00    -0.177 A  
HETATM   28  F   UNL     1     -10.456  10.382  65.414  1.00  0.00    -0.345 F  
HETATM   29  C   UNL     1      -7.444   9.395  63.622  1.00  0.00    -0.111 A  
HETATM   30 CL   UNL     1      -8.383   8.325  65.907  1.00  0.00    -0.121 Cl 
HETATM   31  C   UNL     1      -7.500  10.271  62.538  1.00  0.00    -0.151 A  
HETATM   32  C   UNL     1      -8.556  11.184  62.423  1.00  0.00    -0.307 A  
ENDBRANCH  24  25
ENDBRANCH  21  24
ENDBRANCH   1   8
TORSDOF 5
ENDMDL
MODEL      115
REMARK 921   NORMALIZED FREE ENERGY PREDICTED BY IDOCK:   -4.12 KCAL/MOL
REMARK 922        TOTAL FREE ENERGY PREDICTED BY IDOCK:   -6.46 KCAL/MOL
REMARK 923 INTER-LIGAND FREE ENERGY PREDICTED BY IDOCK:   -5.95 KCAL/MOL
REMARK 924 INTRA-LIGAND FREE ENERGY PREDICTED BY IDOCK:   -0.51 KCAL/MOL
REMARK 927      BINDING AFFINITY PREDICTED BY RF-SCORE:    0.00 PKD
ROOT
HETATM    1  C   UNL     1      -7.535   8.665  64.222  1.00  0.00    -0.109 C  
HETATM    2  C   UNL     1      -5.643  10.202  65.062  1.00  0.00    -0.107 C  
HETATM    3  C   UNL     1      -5.126   8.422  63.412  1.00  0.00    -0.057 C  
HETATM    4  C   UNL     1      -6.031   8.791  64.598  1.00  0.00    -0.065 C  
ENDROOT
BRANCH   1   5
HETATM    5  C   UNL     1      -7.940   7.209  63.876  1.00  0.00    -0.076 C  
HETATM    6  H   UNL     1      -8.449   6.179  62.268  1.00  0.00     0.000 HD 
HETATM    7  O   UNL     1      -8.202   7.071  62.480  1.00  0.00    -0.114 OA 
ENDBRANCH   1   5
BRANCH   1   8
HETATM    8  N   UNL     1      -8.431   9.227  65.303  1.00  0.00    -0.144 NA 
HETATM    9  C   UNL     1     -10.263  10.775  65.798  1.00  0.00    -0.319 C  
HETATM   10  C   UNL     1      -9.207  10.365  65.078  1.00  0.00    -0.214 C  
HETATM   11  C   UNL     1     -10.960  12.023  65.418  1.00  0.00    -0.300 C  
HETATM   12  C   UNL     1     -10.686   9.923  66.918  1.00  0.00    -0.125 C  
HETATM   13  C   UNL     1      -9.947   8.664  67.151  1.00  0.00    -0.297 A  
HETATM   14  O   UNL     1     -11.619  10.274  67.638  1.00  0.00    -0.299 OA 
HETATM   15  O   UNL     1     -10.662  12.684  64.432  1.00  0.00    -0.314 OA 
HETATM   16  O   UNL     1     -11.958  12.386  66.252  1.00  0.00    -0.553 OA 
HETATM   17  C   UNL     1      -8.803   8.377  66.385  1.00  0.00    -0.153 A  
HETATM   18  C   UNL     1      -8.079   7.237  66.767  1.00  0.00    -0.119 A  
HETATM   19  C   UNL     1      -8.511   6.357  67.777  1.00  0.00    -0.117 A  
HETATM   20  C   UNL     1     -10.404   7.795  68.155  1.00  0.00    -0.248 A  
HETATM   21  C   UNL     1      -9.699   6.624  68.478  1.00  0.00    -0.131 A  
BRANCH  19  22
HETATM   22  O   UNL     1      -7.803   5.244  68.159  1.00  0.00    -0.087 OA 
HETATM   23  C   UNL     1      -6.479   5.453  68.649  1.00  0.00    -0.039 C  
ENDBRANCH  19  22
BRANCH  21  24
HETATM   24  C   UNL     1     -10.185   5.769  69.629  1.00  0.00    -0.299 C  
BRANCH  24  25
HETATM   25  C   UNL     1     -10.283   6.408  70.996  1.00  0.00    -0.227 A  
HETATM   26  C   UNL     1      -9.226   6.324  71.913  1.00  0.00    -0.146 A  
HETATM   27  C   UNL     1      -9.381   6.750  73.236  1.00  0.00    -0.136 A  
HETATM   28  F   UNL     1      -8.063   5.777  71.523  1.00  0.00    -0.109 F  
HETATM   29  C   UNL     1     -10.601   7.271  73.664  1.00  0.00    -0.353 A  
HETATM   30 CL   UNL     1      -8.091   6.599  74.367  1.00  0.00    -0.128 Cl 
HETATM   31  C   UNL     1     -11.650   7.399  72.755  1.00  0.00    -0.255 A  
HETATM   32  C   UNL     1     -11.489   6.982  71.427  1.00  0.00    -0.312 A  
ENDBRANCH  24  25
ENDBRANCH  21  24
ENDBRANCH   1   8
TORSDOF 5
ENDMDL
MODEL      116
REMARK 921   NORMALIZED FREE ENERGY PREDICTED BY IDOCK:   -4.06 KCAL/MOL
REMARK 922        TOTAL FREE ENERGY PREDICTED BY IDOCK:   -6.39 KCAL/MOL
REMARK 923 INTER-LIGAND FREE ENERGY PREDICTED BY IDOCK:   -6.03 KCAL/MOL
REMARK 924 INTRA-LIGAND FREE ENERGY PREDICTED BY IDOCK:   -0.36 KCAL/MOL
REMARK 927      BINDING AFFINITY PREDICTED BY RF-SCORE:    0.00 PKD
ROOT
HETATM    1  C   UNL     1      -9.631  15.385  67.803  1.00  0.00    -0.210 C  
HETATM    2  C   UNL     1      -8.043  16.475  66.090  1.00  0.00    -0.242 C  
HETATM    3  C   UNL     1     -10.378  17.293  66.280  1.00  0.00    -0.323 C  
HETATM    4  C   UNL     1      -9.484  16.050  66.404  1.00  0.00    -0.322 C  
ENDROOT
BRANCH   1   5
HETATM    5  C   UNL     1     -11.064  14.848  68.056  1.00  0.00    -0.295 C  
HETATM    6  H   UNL     1     -12.169  14.311  69.604  1.00  0.00     0.000 HD 
HETATM    7  O   UNL     1     -11.291  14.640  69.449  1.00  0.00    -0.257 OA 
ENDBRANCH   1   5
BRANCH   1   8
HETATM    8  N   UNL     1      -8.605  14.295  68.015  1.00  0.00    -0.160 NA 
HETATM    9  C   UNL     1      -6.969  13.344  69.569  1.00  0.00     0.139 C  
HETATM   10  C   UNL     1      -7.693  14.357  69.070  1.00  0.00    -0.093 C  
HETATM   11  C   UNL     1      -6.033  13.602  70.686  1.00  0.00    -0.143 C  
HETATM   12  C   UNL     1      -7.179  12.013  68.983  1.00  0.00    -0.053 C  
HETATM   13  C   UNL     1      -8.194  11.875  67.917  1.00  0.00    -0.150 A  
HETATM   14  O   UNL     1      -6.509  11.058  69.373  1.00  0.00    -0.071 OA 
HETATM   15  O   UNL     1      -5.925  14.691  71.232  1.00  0.00    -0.100 OA 
HETATM   16  O   UNL     1      -5.298  12.534  71.061  1.00  0.00    -0.153 OA 
HETATM   17  C   UNL     1      -8.834  13.022  67.414  1.00  0.00    -0.203 A  
HETATM   18  C   UNL     1      -9.672  12.822  66.307  1.00  0.00    -0.262 A  
HETATM   19  C   UNL     1      -9.960  11.546  65.785  1.00  0.00    -0.233 A  
HETATM   20  C   UNL     1      -8.474  10.592  67.420  1.00  0.00    -0.122 A  
HETATM   21  C   UNL     1      -9.368  10.407  66.353  1.00  0.00    -0.197 A  
BRANCH  19  22
HETATM   22  O   UNL     1     -10.775  11.344  64.698  1.00  0.00    -0.307 OA 
HETATM   23  C   UNL     1     -11.985  12.100  64.644  1.00  0.00    -0.323 C  
ENDBRANCH  19  22
BRANCH  21  24
HETATM   24  C   UNL     1      -9.566   9.012  65.796  1.00  0.00    -0.287 C  
BRANCH  24  25
HETATM   25  C   UNL     1      -9.823   7.888  66.774  1.00  0.00    -0.318 A  
HETATM   26  C   UNL     1      -9.509   6.560  66.452  1.00  0.00    -0.126 A  
HETATM   27  C   UNL     1      -9.913   5.502  67.273  1.00  0.00    -0.165 A  
HETATM   28  F   UNL     1      -8.853   6.302  65.309  1.00  0.00    -0.146 F  
HETATM   29  C   UNL     1     -10.639   5.757  68.435  1.00  0.00    -0.289 A  
HETATM   30 CL   UNL     1      -9.562   3.871  66.844  1.00  0.00    -0.232 Cl 
HETATM   31  C   UNL     1     -10.925   7.074  68.792  1.00  0.00    -0.150 A  
HETATM   32  C   UNL     1     -10.510   8.133  67.974  1.00  0.00    -0.242 A  
ENDBRANCH  24  25
ENDBRANCH  21  24
ENDBRANCH   1   8
TORSDOF 5
ENDMDL
MODEL      117
REMARK 921   NORMALIZED FREE ENERGY PREDICTED BY IDOCK:   -4.00 KCAL/MOL
REMARK 922        TOTAL FREE ENERGY PREDICTED BY IDOCK:   -6.31 KCAL/MOL
REMARK 923 INTER-LIGAND FREE ENERGY PREDICTED BY IDOCK:   -5.98 KCAL/MOL
REMARK 924 INTRA-LIGAND FREE ENERGY PREDICTED BY IDOCK:   -0.33 KCAL/MOL
REMARK 927      BINDING AFFINITY PREDICTED BY RF-SCORE:    0.00 PKD
ROOT
HETATM    1  C   UNL     1      -9.188   8.288  67.569  1.00  0.00    -0.137 C  
HETATM    2  C   UNL     1     -10.716   7.610  69.532  1.00  0.00    -0.211 C  
HETATM    3  C   UNL     1     -10.880   6.386  67.380  1.00  0.00    -0.457 C  
HETATM    4  C   UNL     1     -10.581   7.755  68.009  1.00  0.00    -0.201 C  
ENDROOT
BRANCH   1   5
HETATM    5  C   UNL     1      -9.109   8.549  66.042  1.00  0.00    -0.194 C  
HETATM    6  H   UNL     1      -8.286   7.699  64.458  1.00  0.00     0.000 HD 
HETATM    7  O   UNL     1      -8.334   7.540  65.393  1.00  0.00    -0.135 OA 
ENDBRANCH   1   5
BRANCH   1   8
HETATM    8  N   UNL     1      -8.792   9.525  68.344  1.00  0.00    -0.124 NA 
HETATM    9  C   UNL     1      -6.969  10.673  69.508  1.00  0.00    -0.121 C  
HETATM   10  C   UNL     1      -7.595   9.574  69.061  1.00  0.00    -0.075 C  
HETATM   11  C   UNL     1      -5.709  10.532  70.271  1.00  0.00    -0.079 C  
HETATM   12  C   UNL     1      -7.570  11.973  69.177  1.00  0.00     0.151 C  
HETATM   13  C   UNL     1      -8.795  11.981  68.349  1.00  0.00    -0.149 A  
HETATM   14  O   UNL     1      -7.062  13.010  69.599  1.00  0.00     0.160 OA 
HETATM   15  O   UNL     1      -5.163   9.455  70.469  1.00  0.00    -0.029 OA 
HETATM   16  O   UNL     1      -5.203  11.692  70.740  1.00  0.00    -0.110 OA 
HETATM   17  C   UNL     1      -9.411  10.764  68.007  1.00  0.00    -0.160 A  
HETATM   18  C   UNL     1     -10.645  10.865  67.347  1.00  0.00    -0.285 A  
HETATM   19  C   UNL     1     -11.198  12.094  66.939  1.00  0.00    -0.320 A  
HETATM   20  C   UNL     1      -9.322  13.218  67.943  1.00  0.00    -0.214 A  
HETATM   21  C   UNL     1     -10.525  13.293  67.225  1.00  0.00    -0.247 A  
BRANCH  19  22
HETATM   22  O   UNL     1     -12.408  12.199  66.298  1.00  0.00    -0.507 OA 
HETATM   23  C   UNL     1     -12.379  12.352  64.879  1.00  0.00    -0.402 C  
ENDBRANCH  19  22
BRANCH  21  24
HETATM   24  C   UNL     1     -11.095  14.656  66.890  1.00  0.00    -0.333 C  
BRANCH  24  25
HETATM   25  C   UNL     1     -10.249  15.872  67.191  1.00  0.00    -0.278 A  
HETATM   26  C   UNL     1      -9.124  16.183  66.414  1.00  0.00    -0.304 A  
HETATM   27  C   UNL     1      -8.237  17.195  66.799  1.00  0.00    -0.240 A  
HETATM   28  F   UNL     1      -8.870  15.461  65.311  1.00  0.00     0.147 F  
HETATM   29  C   UNL     1      -8.465  17.916  67.970  1.00  0.00    -0.256 A  
HETATM   30 CL   UNL     1      -6.833  17.539  65.862  1.00  0.00    -0.266 Cl 
HETATM   31  C   UNL     1      -9.601  17.647  68.733  1.00  0.00    -0.280 A  
HETATM   32  C   UNL     1     -10.493  16.641  68.340  1.00  0.00    -0.323 A  
ENDBRANCH  24  25
ENDBRANCH  21  24
ENDBRANCH   1   8
TORSDOF 5
ENDMDL
MODEL      118
REMARK 921   NORMALIZED FREE ENERGY PREDICTED BY IDOCK:   -3.99 KCAL/MOL
REMARK 922        TOTAL FREE ENERGY PREDICTED BY IDOCK:   -6.30 KCAL/MOL
REMARK 923 INTER-LIGAND FREE ENERGY PREDICTED BY IDOCK:   -5.80 KCAL/MOL
REMARK 924 INTRA-LIGAND FREE ENERGY PREDICTED BY IDOCK:   -0.50 KCAL/MOL
REMARK 927      BINDING AFFINITY PREDICTED BY RF-SCORE:    0.00 PKD
ROOT
HETATM    1  C   UNL     1      -9.488   8.871  71.462  1.00  0.00    -0.277 C  
HETATM    2  C   UNL     1     -11.780   8.115  72.369  1.00  0.00    -0.461 C  
HETATM    3  C   UNL     1      -9.735   7.671  73.702  1.00  0.00    -0.314 C  
HETATM    4  C   UNL     1     -10.280   7.804  72.272  1.00  0.00    -0.285 C  
ENDROOT
BRANCH   1   5
HETATM    5  C   UNL     1      -8.000   8.481  71.265  1.00  0.00    -0.132 C  
HETATM    6  H   UNL     1      -6.239   9.377  71.308  1.00  0.00     0.000 HD 
HETATM    7  O   UNL     1      -7.151   9.616  71.428  1.00  0.00    -0.324 OA 
ENDBRANCH   1   5
BRANCH   1   8
HETATM    8  N   UNL     1     -10.145   9.166  70.132  1.00  0.00    -0.190 NA 
HETATM    9  C   UNL     1     -10.586  10.879  68.439  1.00  0.00    -0.225 C  
HETATM   10  C   UNL     1     -10.332  10.478  69.695  1.00  0.00    -0.193 C  
HETATM   11  C   UNL     1     -10.773  12.321  68.162  1.00  0.00    -0.216 C  
HETATM   12  C   UNL     1     -10.633   9.845  67.397  1.00  0.00    -0.277 C  
HETATM   13  C   UNL     1     -10.361   8.446  67.794  1.00  0.00    -0.297 A  
HETATM   14  O   UNL     1     -10.906  10.152  66.238  1.00  0.00    -0.044 OA 
HETATM   15  O   UNL     1     -10.646  13.189  69.015  1.00  0.00    -0.176 OA 
HETATM   16  O   UNL     1     -11.100  12.610  66.885  1.00  0.00    -0.254 OA 
HETATM   17  C   UNL     1     -10.189   8.130  69.153  1.00  0.00    -0.214 A  
HETATM   18  C   UNL     1     -10.083   6.764  69.457  1.00  0.00    -0.192 A  
HETATM   19  C   UNL     1     -10.034   5.761  68.470  1.00  0.00    -0.154 A  
HETATM   20  C   UNL     1     -10.305   7.464  66.791  1.00  0.00    -0.321 A  
HETATM   21  C   UNL     1     -10.131   6.109  67.113  1.00  0.00    -0.210 A  
BRANCH  19  22
HETATM   22  O   UNL     1      -9.935   4.423  68.762  1.00  0.00    -0.125 OA 
HETATM   23  C   UNL     1      -8.738   3.985  69.403  1.00  0.00    -0.085 C  
ENDBRANCH  19  22
BRANCH  21  24
HETATM   24  C   UNL     1     -10.166   5.081  66.001  1.00  0.00    -0.253 C  
BRANCH  24  25
HETATM   25  C   UNL     1      -8.894   4.324  65.694  1.00  0.00    -0.123 A  
HETATM   26  C   UNL     1      -7.768   4.979  65.175  1.00  0.00    -0.083 A  
HETATM   27  C   UNL     1      -6.659   4.258  64.718  1.00  0.00    -0.044 A  
HETATM   28  F   UNL     1      -7.780   6.318  65.071  1.00  0.00    -0.077 F  
HETATM   29  C   UNL     1      -6.659   2.866  64.774  1.00  0.00    -0.039 A  
HETATM   30 CL   UNL     1      -5.300   5.070  64.040  1.00  0.00    -0.009 Cl 
HETATM   31  C   UNL     1      -7.754   2.200  65.325  1.00  0.00    -0.072 A  
HETATM   32  C   UNL     1      -8.859   2.925  65.792  1.00  0.00    -0.140 A  
ENDBRANCH  24  25
ENDBRANCH  21  24
ENDBRANCH   1   8
TORSDOF 5
ENDMDL
MODEL      119
REMARK 921   NORMALIZED FREE ENERGY PREDICTED BY IDOCK:   -3.99 KCAL/MOL
REMARK 922        TOTAL FREE ENERGY PREDICTED BY IDOCK:   -6.29 KCAL/MOL
REMARK 923 INTER-LIGAND FREE ENERGY PREDICTED BY IDOCK:   -5.95 KCAL/MOL
REMARK 924 INTRA-LIGAND FREE ENERGY PREDICTED BY IDOCK:   -0.34 KCAL/MOL
REMARK 927      BINDING AFFINITY PREDICTED BY RF-SCORE:    0.00 PKD
ROOT
HETATM    1  C   UNL     1     -10.159   7.896  72.143  1.00  0.00    -0.220 C  
HETATM    2  C   UNL     1     -12.186   6.303  72.137  1.00  0.00    -0.255 C  
HETATM    3  C   UNL     1     -10.496   6.119  73.944  1.00  0.00    -0.287 C  
HETATM    4  C   UNL     1     -10.695   6.471  72.462  1.00  0.00    -0.255 C  
ENDROOT
BRANCH   1   5
HETATM    5  C   UNL     1      -8.628   8.015  72.357  1.00  0.00    -0.163 C  
HETATM    6  H   UNL     1      -7.176   9.259  71.855  1.00  0.00     0.000 HD 
HETATM    7  O   UNL     1      -8.114   9.186  71.723  1.00  0.00    -0.343 OA 
ENDBRANCH   1   5
BRANCH   1   8
HETATM    8  N   UNL     1     -10.540   8.337  70.747  1.00  0.00    -0.206 NA 
HETATM    9  C   UNL     1     -11.198  10.234  69.344  1.00  0.00    -0.292 C  
HETATM   10  C   UNL     1     -11.115   9.589  70.518  1.00  0.00    -0.283 C  
HETATM   11  C   UNL     1     -11.861  11.555  69.287  1.00  0.00    -0.348 C  
HETATM   12  C   UNL     1     -10.585   9.587  68.176  1.00  0.00    -0.217 C  
HETATM   13  C   UNL     1      -9.891   8.297  68.379  1.00  0.00    -0.187 A  
HETATM   14  O   UNL     1     -10.671  10.113  67.067  1.00  0.00    -0.244 OA 
HETATM   15  O   UNL     1     -12.291  12.132  70.276  1.00  0.00    -0.271 OA 
HETATM   16  O   UNL     1     -11.960  12.082  68.048  1.00  0.00    -0.495 OA 
HETATM   17  C   UNL     1      -9.940   7.673  69.638  1.00  0.00    -0.185 A  
HETATM   18  C   UNL     1      -9.383   6.386  69.707  1.00  0.00    -0.151 A  
HETATM   19  C   UNL     1      -8.712   5.783  68.627  1.00  0.00    -0.108 A  
HETATM   20  C   UNL     1      -9.217   7.720  67.291  1.00  0.00    -0.162 A  
HETATM   21  C   UNL     1      -8.609   6.459  67.400  1.00  0.00    -0.107 A  
BRANCH  19  22
HETATM   22  O   UNL     1      -8.170   4.522  68.687  1.00  0.00    -0.081 OA 
HETATM   23  C   UNL     1      -9.076   3.435  68.870  1.00  0.00    -0.144 C  
ENDBRANCH  19  22
BRANCH  21  24
HETATM   24  C   UNL     1      -7.973   5.843  66.172  1.00  0.00    -0.106 C  
BRANCH  24  25
HETATM   25  C   UNL     1      -8.763   4.801  65.412  1.00  0.00    -0.138 A  
HETATM   26  C   UNL     1      -8.126   3.887  64.561  1.00  0.00    -0.086 A  
HETATM   27  C   UNL     1      -8.864   3.048  63.718  1.00  0.00    -0.092 A  
HETATM   28  F   UNL     1      -6.784   3.856  64.520  1.00  0.00    -0.039 F  
HETATM   29  C   UNL     1     -10.256   3.109  63.716  1.00  0.00    -0.200 A  
HETATM   30 CL   UNL     1      -8.071   1.961  62.643  1.00  0.00    -0.062 Cl 
HETATM   31  C   UNL     1     -10.907   3.984  64.586  1.00  0.00    -0.122 A  
HETATM   32  C   UNL     1     -10.166   4.815  65.436  1.00  0.00    -0.104 A  
ENDBRANCH  24  25
ENDBRANCH  21  24
ENDBRANCH   1   8
TORSDOF 5
ENDMDL
MODEL      120
REMARK 921   NORMALIZED FREE ENERGY PREDICTED BY IDOCK:   -3.97 KCAL/MOL
REMARK 922        TOTAL FREE ENERGY PREDICTED BY IDOCK:   -6.27 KCAL/MOL
REMARK 923 INTER-LIGAND FREE ENERGY PREDICTED BY IDOCK:   -5.60 KCAL/MOL
REMARK 924 INTRA-LIGAND FREE ENERGY PREDICTED BY IDOCK:   -0.67 KCAL/MOL
REMARK 927      BINDING AFFINITY PREDICTED BY RF-SCORE:    0.00 PKD
ROOT
HETATM    1  C   UNL     1     -10.752  11.098  65.282  1.00  0.00    -0.203 C  
HETATM    2  C   UNL     1     -11.961  12.755  66.844  1.00  0.00    -0.380 C  
HETATM    3  C   UNL     1     -12.784  12.444  64.524  1.00  0.00    -0.404 C  
HETATM    4  C   UNL     1     -11.526  12.442  65.406  1.00  0.00    -0.402 C  
ENDROOT
BRANCH   1   5
HETATM    5  C   UNL     1     -10.210  10.856  63.849  1.00  0.00    -0.354 C  
HETATM    6  H   UNL     1      -9.342  11.912  62.421  1.00  0.00     0.000 HD 
HETATM    7  O   UNL     1      -9.674  12.059  63.298  1.00  0.00    -0.353 OA 
ENDBRANCH   1   5
BRANCH   1   8
HETATM    8  N   UNL     1      -9.637  10.999  66.300  1.00  0.00    -0.194 NA 
HETATM    9  C   UNL     1      -8.146  12.255  67.781  1.00  0.00    -0.155 C  
HETATM   10  C   UNL     1      -8.912  12.127  66.686  1.00  0.00    -0.198 C  
HETATM   11  C   UNL     1      -7.432  13.528  68.023  1.00  0.00    -0.140 C  
HETATM   12  C   UNL     1      -8.091  11.112  68.703  1.00  0.00    -0.150 C  
HETATM   13  C   UNL     1      -8.906   9.920  68.382  1.00  0.00    -0.120 A  
HETATM   14  O   UNL     1      -7.370  11.159  69.698  1.00  0.00    -0.085 OA 
HETATM   15  O   UNL     1      -7.550  14.510  67.302  1.00  0.00    -0.189 OA 
HETATM   16  O   UNL     1      -6.630  13.526  69.109  1.00  0.00    -0.103 OA 
HETATM   17  C   UNL     1      -9.605   9.865  67.163  1.00  0.00    -0.162 A  
HETATM   18  C   UNL     1     -10.233   8.644  66.870  1.00  0.00    -0.367 A  
HETATM   19  C   UNL     1     -10.271   7.566  67.775  1.00  0.00    -0.201 A  
HETATM   20  C   UNL     1      -8.939   8.862  69.304  1.00  0.00    -0.144 A  
HETATM   21  C   UNL     1      -9.629   7.673  69.020  1.00  0.00    -0.151 A  
BRANCH  19  22
HETATM   22  O   UNL     1     -10.879   6.367  67.492  1.00  0.00    -0.276 OA 
HETATM   23  C   UNL     1     -10.278   5.558  66.482  1.00  0.00    -0.228 C  
ENDBRANCH  19  22
BRANCH  21  24
HETATM   24  C   UNL     1      -9.558   6.530  70.010  1.00  0.00    -0.169 C  
BRANCH  24  25
HETATM   25  C   UNL     1      -8.208   5.901  70.272  1.00  0.00    -0.114 A  
HETATM   26  C   UNL     1      -8.002   4.526  70.093  1.00  0.00    -0.063 A  
HETATM   27  C   UNL     1      -6.815   3.913  70.510  1.00  0.00    -0.033 A  
HETATM   28  F   UNL     1      -8.983   3.781  69.560  1.00  0.00    -0.110 F  
HETATM   29  C   UNL     1      -5.811   4.670  71.112  1.00  0.00    -0.017 A  
HETATM   30 CL   UNL     1      -6.589   2.215  70.328  1.00  0.00    -0.028 Cl 
HETATM   31  C   UNL     1      -5.983   6.046  71.260  1.00  0.00    -0.030 A  
HETATM   32  C   UNL     1      -7.168   6.659  70.833  1.00  0.00    -0.074 A  
ENDBRANCH  24  25
ENDBRANCH  21  24
ENDBRANCH   1   8
TORSDOF 5
ENDMDL
MODEL      121
REMARK 921   NORMALIZED FREE ENERGY PREDICTED BY IDOCK:   -3.87 KCAL/MOL
REMARK 922        TOTAL FREE ENERGY PREDICTED BY IDOCK:   -6.15 KCAL/MOL
REMARK 923 INTER-LIGAND FREE ENERGY PREDICTED BY IDOCK:   -6.38 KCAL/MOL
REMARK 924 INTRA-LIGAND FREE ENERGY PREDICTED BY IDOCK:    0.24 KCAL/MOL
REMARK 927      BINDING AFFINITY PREDICTED BY RF-SCORE:    0.00 PKD
ROOT
HETATM    1  C   UNL     1     -11.839  15.191  70.402  1.00  0.00    -0.307 C  
HETATM    2  C   UNL     1     -14.237  14.383  70.895  1.00  0.00     0.266 C  
HETATM    3  C   UNL     1     -12.970  15.586  72.656  1.00  0.00    -0.542 C  
HETATM    4  C   UNL     1     -12.832  14.631  71.461  1.00  0.00    -0.404 C  
ENDROOT
BRANCH   1   5
HETATM    5  C   UNL     1     -10.395  15.319  70.953  1.00  0.00     0.369 C  
HETATM    6  H   UNL     1      -8.611  15.821  70.266  1.00  0.00     0.000 HD 
HETATM    7  O   UNL     1      -9.495  15.742  69.929  1.00  0.00    -0.204 OA 
ENDBRANCH   1   5
BRANCH   1   8
HETATM    8  N   UNL     1     -11.856  14.372  69.131  1.00  0.00    -0.308 NA 
HETATM    9  C   UNL     1     -11.337  14.357  66.737  1.00  0.00    -0.360 C  
HETATM   10  C   UNL     1     -11.669  14.971  67.884  1.00  0.00    -0.289 C  
HETATM   11  C   UNL     1     -11.197  15.157  65.500  1.00  0.00    -0.320 C  
HETATM   12  C   UNL     1     -11.100  12.909  66.793  1.00  0.00    -0.281 C  
HETATM   13  C   UNL     1     -11.206  12.237  68.106  1.00  0.00    -0.320 A  
HETATM   14  O   UNL     1     -10.838  12.289  65.764  1.00  0.00    -0.262 OA 
HETATM   15  O   UNL     1     -11.307  16.375  65.473  1.00  0.00     0.083 OA 
HETATM   16  O   UNL     1     -10.938  14.434  64.390  1.00  0.00    -0.312 OA 
HETATM   17  C   UNL     1     -11.642  12.966  69.226  1.00  0.00    -0.310 A  
HETATM   18  C   UNL     1     -11.856  12.223  70.398  1.00  0.00    -0.259 A  
HETATM   19  C   UNL     1     -11.550  10.852  70.502  1.00  0.00    -0.300 A  
HETATM   20  C   UNL     1     -10.885  10.872  68.189  1.00  0.00    -0.283 A  
HETATM   21  C   UNL     1     -11.043  10.161  69.389  1.00  0.00    -0.288 A  
BRANCH  19  22
HETATM   22  O   UNL     1     -11.762  10.118  71.643  1.00  0.00    -0.307 OA 
HETATM   23  C   UNL     1     -13.094  10.084  72.155  1.00  0.00    -0.386 C  
ENDBRANCH  19  22
BRANCH  21  24
HETATM   24  C   UNL     1     -10.767   8.673  69.401  1.00  0.00    -0.169 C  
BRANCH  24  25
HETATM   25  C   UNL     1      -9.603   8.173  70.228  1.00  0.00    -0.171 A  
HETATM   26  C   UNL     1      -8.284   8.292  69.769  1.00  0.00    -0.121 A  
HETATM   27  C   UNL     1      -7.226   7.669  70.441  1.00  0.00    -0.063 A  
HETATM   28  F   UNL     1      -8.044   8.974  68.638  1.00  0.00    -0.100 F  
HETATM   29  C   UNL     1      -7.473   6.916  71.587  1.00  0.00    -0.085 A  
HETATM   30 CL   UNL     1      -5.614   7.784  69.843  1.00  0.00    -0.023 Cl 
HETATM   31  C   UNL     1      -8.774   6.821  72.080  1.00  0.00    -0.132 A  
HETATM   32  C   UNL     1      -9.830   7.455  71.412  1.00  0.00    -0.194 A  
ENDBRANCH  24  25
ENDBRANCH  21  24
ENDBRANCH   1   8
TORSDOF 5
ENDMDL
MODEL      122
REMARK 921   NORMALIZED FREE ENERGY PREDICTED BY IDOCK:   -3.83 KCAL/MOL
REMARK 922        TOTAL FREE ENERGY PREDICTED BY IDOCK:   -6.09 KCAL/MOL
REMARK 923 INTER-LIGAND FREE ENERGY PREDICTED BY IDOCK:   -6.02 KCAL/MOL
REMARK 924 INTRA-LIGAND FREE ENERGY PREDICTED BY IDOCK:   -0.07 KCAL/MOL
REMARK 927      BINDING AFFINITY PREDICTED BY RF-SCORE:    0.00 PKD
ROOT
HETATM    1  C   UNL     1     -10.466  14.339  65.836  1.00  0.00    -0.307 C  
HETATM    2  C   UNL     1     -11.773  12.264  66.634  1.00  0.00    -0.417 C  
HETATM    3  C   UNL     1     -13.012  14.206  65.713  1.00  0.00    -0.235 C  
HETATM    4  C   UNL     1     -11.762  13.794  66.503  1.00  0.00    -0.412 C  
ENDROOT
BRANCH   1   5
HETATM    5  C   UNL     1     -10.412  15.889  65.825  1.00  0.00    -0.370 C  
HETATM    6  H   UNL     1     -10.820  17.353  64.562  1.00  0.00     0.000 HD 
HETATM    7  O   UNL     1     -10.852  16.404  64.569  1.00  0.00    -0.719 OA 
ENDBRANCH   1   5
BRANCH   1   8
HETATM    8  N   UNL     1      -9.222  13.765  66.478  1.00  0.00    -0.233 NA 
HETATM    9  C   UNL     1      -7.776  13.802  68.453  1.00  0.00    -0.134 C  
HETATM   10  C   UNL     1      -8.650  14.361  67.603  1.00  0.00    -0.185 C  
HETATM   11  C   UNL     1      -7.259  14.596  69.590  1.00  0.00    -0.098 C  
HETATM   12  C   UNL     1      -7.405  12.401  68.213  1.00  0.00    -0.113 C  
HETATM   13  C   UNL     1      -8.044  11.696  67.081  1.00  0.00    -0.166 A  
HETATM   14  O   UNL     1      -6.573  11.853  68.935  1.00  0.00    -0.073 OA 
HETATM   15  O   UNL     1      -7.637  15.732  69.840  1.00  0.00    -0.056 OA 
HETATM   16  O   UNL     1      -6.328  13.967  70.338  1.00  0.00    -0.148 OA 
HETATM   17  C   UNL     1      -8.884  12.407  66.206  1.00  0.00     0.027 A  
HETATM   18  C   UNL     1      -9.332  11.703  65.077  1.00  0.00    -0.052 A  
HETATM   19  C   UNL     1      -9.064  10.336  64.872  1.00  0.00    -0.213 A  
HETATM   20  C   UNL     1      -7.773  10.330  66.903  1.00  0.00    -0.105 A  
HETATM   21  C   UNL     1      -8.286   9.626  65.802  1.00  0.00    -0.132 A  
BRANCH  19  22
HETATM   22  O   UNL     1      -9.495   9.642  63.767  1.00  0.00    -0.148 OA 
HETATM   23  C   UNL     1      -9.018  10.084  62.497  1.00  0.00    -0.273 C  
ENDBRANCH  19  22
BRANCH  21  24
HETATM   24  C   UNL     1      -7.891   8.178  65.608  1.00  0.00    -0.098 C  
BRANCH  24  25
HETATM   25  C   UNL     1      -8.634   7.127  66.402  1.00  0.00    -0.137 A  
HETATM   26  C   UNL     1      -8.135   5.823  66.524  1.00  0.00    -0.102 A  
HETATM   27  C   UNL     1      -8.905   4.805  67.097  1.00  0.00    -0.107 A  
HETATM   28  F   UNL     1      -6.917   5.539  66.033  1.00  0.00    -0.059 F  
HETATM   29  C   UNL     1     -10.190   5.078  67.562  1.00  0.00    -0.184 A  
HETATM   30 CL   UNL     1      -8.301   3.195  67.200  1.00  0.00    -0.087 Cl 
HETATM   31  C   UNL     1     -10.686   6.379  67.486  1.00  0.00    -0.396 A  
HETATM   32  C   UNL     1      -9.909   7.399  66.921  1.00  0.00    -0.284 A  
ENDBRANCH  24  25
ENDBRANCH  21  24
ENDBRANCH   1   8
TORSDOF 5
ENDMDL
MODEL      123
REMARK 921   NORMALIZED FREE ENERGY PREDICTED BY IDOCK:   -3.67 KCAL/MOL
REMARK 922        TOTAL FREE ENERGY PREDICTED BY IDOCK:   -5.89 KCAL/MOL
REMARK 923 INTER-LIGAND FREE ENERGY PREDICTED BY IDOCK:   -4.79 KCAL/MOL
REMARK 924 INTRA-LIGAND FREE ENERGY PREDICTED BY IDOCK:   -1.10 KCAL/MOL
REMARK 927      BINDING AFFINITY PREDICTED BY RF-SCORE:    0.00 PKD
ROOT
HETATM    1  C   UNL     1      -7.954  11.601  68.328  1.00  0.00    -0.143 C  
HETATM    2  C   UNL     1      -6.474  10.364  70.039  1.00  0.00    -0.126 C  
HETATM    3  C   UNL     1      -6.212  12.814  69.747  1.00  0.00    -0.108 C  
HETATM    4  C   UNL     1      -6.563  11.508  69.018  1.00  0.00    -0.089 C  
ENDROOT
BRANCH   1   5
HETATM    5  C   UNL     1      -7.990  12.677  67.212  1.00  0.00    -0.166 C  
HETATM    6  H   UNL     1      -9.194  14.131  66.625  1.00  0.00     0.000 HD 
HETATM    7  O   UNL     1      -9.172  13.471  67.308  1.00  0.00    -0.213 OA 
ENDBRANCH   1   5
BRANCH   1   8
HETATM    8  N   UNL     1      -8.403  10.260  67.793  1.00  0.00    -0.110 NA 
HETATM    9  C   UNL     1      -7.840   8.390  66.316  1.00  0.00    -0.098 C  
HETATM   10  C   UNL     1      -7.778   9.677  66.689  1.00  0.00    -0.098 C  
HETATM   11  C   UNL     1      -7.120   7.951  65.099  1.00  0.00    -0.060 C  
HETATM   12  C   UNL     1      -8.606   7.476  67.173  1.00  0.00    -0.121 C  
HETATM   13  C   UNL     1      -9.222   8.026  68.400  1.00  0.00    -0.135 A  
HETATM   14  O   UNL     1      -8.733   6.295  66.854  1.00  0.00    -0.112 OA 
HETATM   15  O   UNL     1      -6.410   8.694  64.437  1.00  0.00    -0.066 OA 
HETATM   16  O   UNL     1      -7.311   6.656  64.770  1.00  0.00    -0.073 OA 
HETATM   17  C   UNL     1      -9.163   9.409  68.647  1.00  0.00    -0.131 A  
HETATM   18  C   UNL     1      -9.896   9.867  69.753  1.00  0.00    -0.268 A  
HETATM   19  C   UNL     1     -10.564   9.002  70.641  1.00  0.00    -0.236 A  
HETATM   20  C   UNL     1      -9.872   7.143  69.277  1.00  0.00    -0.161 A  
HETATM   21  C   UNL     1     -10.545   7.615  70.416  1.00  0.00    -0.233 A  
BRANCH  19  22
HETATM   22  O   UNL     1     -11.287   9.444  71.721  1.00  0.00    -0.379 OA 
HETATM   23  C   UNL     1     -12.599   9.943  71.464  1.00  0.00    -0.416 C  
ENDBRANCH  19  22
BRANCH  21  24
HETATM   24  C   UNL     1     -11.305   6.632  71.280  1.00  0.00    -0.346 C  
BRANCH  24  25
HETATM   25  C   UNL     1     -10.510   5.595  72.042  1.00  0.00    -0.270 A  
HETATM   26  C   UNL     1      -9.497   5.971  72.935  1.00  0.00    -0.150 A  
HETATM   27  C   UNL     1      -8.640   5.018  73.498  1.00  0.00    -0.108 A  
HETATM   28  F   UNL     1      -9.317   7.272  73.211  1.00  0.00    -0.159 F  
HETATM   29  C   UNL     1      -8.786   3.670  73.177  1.00  0.00    -0.097 A  
HETATM   30 CL   UNL     1      -7.369   5.495  74.558  1.00  0.00    -0.085 Cl 
HETATM   31  C   UNL     1      -9.815   3.274  72.322  1.00  0.00    -0.232 A  
HETATM   32  C   UNL     1     -10.678   4.229  71.768  1.00  0.00     0.203 A  
ENDBRANCH  24  25
ENDBRANCH  21  24
ENDBRANCH   1   8
TORSDOF 5
ENDMDL
MODEL      124
REMARK 921   NORMALIZED FREE ENERGY PREDICTED BY IDOCK:   -3.67 KCAL/MOL
REMARK 922        TOTAL FREE ENERGY PREDICTED BY IDOCK:   -5.88 KCAL/MOL
REMARK 923 INTER-LIGAND FREE ENERGY PREDICTED BY IDOCK:   -5.81 KCAL/MOL
REMARK 924 INTRA-LIGAND FREE ENERGY PREDICTED BY IDOCK:   -0.07 KCAL/MOL
REMARK 927      BINDING AFFINITY PREDICTED BY RF-SCORE:    0.00 PKD
ROOT
HETATM    1  C   UNL     1      -8.777   6.721  67.870  1.00  0.00    -0.120 C  
HETATM    2  C   UNL     1     -10.719   5.649  66.555  1.00  0.00    -0.296 C  
HETATM    3  C   UNL     1      -8.392   4.918  66.104  1.00  0.00    -0.112 C  
HETATM    4  C   UNL     1      -9.258   6.117  66.519  1.00  0.00    -0.161 C  
ENDROOT
BRANCH   1   5
HETATM    5  C   UNL     1      -7.343   7.303  67.782  1.00  0.00    -0.093 C  
HETATM    6  H   UNL     1      -5.977   7.612  66.387  1.00  0.00     0.000 HD 
HETATM    7  O   UNL     1      -6.856   7.255  66.441  1.00  0.00    -0.058 OA 
ENDBRANCH   1   5
BRANCH   1   8
HETATM    8  N   UNL     1      -9.745   7.758  68.395  1.00  0.00    -0.156 NA 
HETATM    9  C   UNL     1     -10.915   8.600  70.374  1.00  0.00    -0.256 C  
HETATM   10  C   UNL     1     -10.321   7.631  69.660  1.00  0.00    -0.213 C  
HETATM   11  C   UNL     1     -11.489   8.277  71.699  1.00  0.00    -0.278 C  
HETATM   12  C   UNL     1     -10.930   9.951  69.796  1.00  0.00    -0.268 C  
HETATM   13  C   UNL     1     -10.261  10.157  68.493  1.00  0.00    -0.194 A  
HETATM   14  O   UNL     1     -11.501  10.866  70.387  1.00  0.00    -0.307 OA 
HETATM   15  O   UNL     1     -11.397   7.173  72.218  1.00  0.00    -0.249 OA 
HETATM   16  O   UNL     1     -12.131   9.302  72.299  1.00  0.00    -0.316 OA 
HETATM   17  C   UNL     1      -9.744   9.051  67.796  1.00  0.00    -0.156 A  
HETATM   18  C   UNL     1      -9.258   9.312  66.505  1.00  0.00    -0.206 A  
HETATM   19  C   UNL     1      -9.179  10.610  65.964  1.00  0.00    -0.182 A  
HETATM   20  C   UNL     1     -10.183  11.461  67.979  1.00  0.00    -0.201 A  
HETATM   21  C   UNL     1      -9.632  11.709  66.712  1.00  0.00    -0.207 A  
BRANCH  19  22
HETATM   22  O   UNL     1      -8.710  10.871  64.700  1.00  0.00    -0.140 OA 
HETATM   23  C   UNL     1      -7.687  10.012  64.197  1.00  0.00    -0.144 C  
ENDBRANCH  19  22
BRANCH  21  24
HETATM   24  C   UNL     1      -9.653  13.122  66.167  1.00  0.00    -0.209 C  
BRANCH  24  25
HETATM   25  C   UNL     1      -9.095  14.226  67.037  1.00  0.00    -0.246 A  
HETATM   26  C   UNL     1      -7.741  14.249  67.400  1.00  0.00    -0.173 A  
HETATM   27  C   UNL     1      -7.263  15.159  68.349  1.00  0.00    -0.114 A  
HETATM   28  F   UNL     1      -6.904  13.347  66.862  1.00  0.00    -0.005 F  
HETATM   29  C   UNL     1      -8.135  16.064  68.951  1.00  0.00    -0.218 A  
HETATM   30 CL   UNL     1      -5.607  15.148  68.823  1.00  0.00    -0.088 Cl 
HETATM   31  C   UNL     1      -9.477  16.082  68.572  1.00  0.00    -0.216 A  
HETATM   32  C   UNL     1      -9.951  15.177  67.613  1.00  0.00    -0.229 A  
ENDBRANCH  24  25
ENDBRANCH  21  24
ENDBRANCH   1   8
TORSDOF 5
ENDMDL
MODEL      125
REMARK 921   NORMALIZED FREE ENERGY PREDICTED BY IDOCK:   -3.66 KCAL/MOL
REMARK 922        TOTAL FREE ENERGY PREDICTED BY IDOCK:   -5.87 KCAL/MOL
REMARK 923 INTER-LIGAND FREE ENERGY PREDICTED BY IDOCK:   -6.08 KCAL/MOL
REMARK 924 INTRA-LIGAND FREE ENERGY PREDICTED BY IDOCK:    0.20 KCAL/MOL
REMARK 927      BINDING AFFINITY PREDICTED BY RF-SCORE:    0.00 PKD
ROOT
HETATM    1  C   UNL     1      -9.948   7.145  71.151  1.00  0.00    -0.183 C  
HETATM    2  C   UNL     1      -9.197   7.919  73.492  1.00  0.00    -0.340 C  
HETATM    3  C   UNL     1     -10.965   6.191  73.290  1.00  0.00    -0.230 C  
HETATM    4  C   UNL     1     -10.365   7.437  72.621  1.00  0.00    -0.292 C  
ENDROOT
BRANCH   1   5
HETATM    5  C   UNL     1     -11.159   6.780  70.254  1.00  0.00    -0.310 C  
HETATM    6  H   UNL     1     -13.015   6.143  70.496  1.00  0.00     0.000 HD 
HETATM    7  O   UNL     1     -12.272   6.365  71.045  1.00  0.00    -0.256 OA 
ENDBRANCH   1   5
BRANCH   1   8
HETATM    8  N   UNL     1      -9.165   8.292  70.553  1.00  0.00    -0.149 NA 
HETATM    9  C   UNL     1      -7.177   8.918  69.266  1.00  0.00    -0.066 C  
HETATM   10  C   UNL     1      -7.859   8.111  70.095  1.00  0.00    -0.098 C  
HETATM   11  C   UNL     1      -5.786   8.574  68.900  1.00  0.00    -0.040 C  
HETATM   12  C   UNL     1      -7.882  10.096  68.743  1.00  0.00    -0.098 C  
HETATM   13  C   UNL     1      -9.296  10.291  69.132  1.00  0.00    -0.214 A  
HETATM   14  O   UNL     1      -7.292  10.893  68.015  1.00  0.00    -0.085 OA 
HETATM   15  O   UNL     1      -5.231   7.547  69.265  1.00  0.00    -0.015 OA 
HETATM   16  O   UNL     1      -5.166   9.490  68.125  1.00  0.00    -0.036 OA 
HETATM   17  C   UNL     1      -9.882   9.426  70.073  1.00  0.00    -0.221 A  
HETATM   18  C   UNL     1     -11.176   9.767  70.497  1.00  0.00    -0.381 A  
HETATM   19  C   UNL     1     -11.906  10.837  69.945  1.00  0.00    -0.335 A  
HETATM   20  C   UNL     1     -10.008  11.356  68.559  1.00  0.00    -0.203 A  
HETATM   21  C   UNL     1     -11.326  11.641  68.949  1.00  0.00    -0.328 A  
BRANCH  19  22
HETATM   22  O   UNL     1     -13.170  11.179  70.359  1.00  0.00     0.033 OA 
HETATM   23  C   UNL     1     -13.339  11.485  71.743  1.00  0.00    -0.253 C  
ENDBRANCH  19  22
BRANCH  21  24
HETATM   24  C   UNL     1     -12.018  12.855  68.367  1.00  0.00    -0.289 C  
BRANCH  24  25
HETATM   25  C   UNL     1     -11.787  14.192  69.035  1.00  0.00    -0.384 A  
HETATM   26  C   UNL     1     -10.581  14.886  68.869  1.00  0.00    -0.247 A  
HETATM   27  C   UNL     1     -10.293  16.026  69.628  1.00  0.00    -0.283 A  
HETATM   28  F   UNL     1      -9.669  14.417  68.002  1.00  0.00    -0.202 F  
HETATM   29  C   UNL     1     -11.211  16.491  70.568  1.00  0.00    -0.105 A  
HETATM   30 CL   UNL     1      -8.788  16.846  69.450  1.00  0.00     0.077 Cl 
HETATM   31  C   UNL     1     -12.433  15.835  70.717  1.00  0.00    -0.420 A  
HETATM   32  C   UNL     1     -12.724  14.701  69.947  1.00  0.00    -0.126 A  
ENDBRANCH  24  25
ENDBRANCH  21  24
ENDBRANCH   1   8
TORSDOF 5
ENDMDL
MODEL      126
REMARK 921   NORMALIZED FREE ENERGY PREDICTED BY IDOCK:   -3.55 KCAL/MOL
REMARK 922        TOTAL FREE ENERGY PREDICTED BY IDOCK:   -5.73 KCAL/MOL
REMARK 923 INTER-LIGAND FREE ENERGY PREDICTED BY IDOCK:   -5.16 KCAL/MOL
REMARK 924 INTRA-LIGAND FREE ENERGY PREDICTED BY IDOCK:   -0.57 KCAL/MOL
REMARK 927      BINDING AFFINITY PREDICTED BY RF-SCORE:    0.00 PKD
ROOT
HETATM    1  C   UNL     1      -8.379   8.858  71.892  1.00  0.00     0.048 C  
HETATM    2  C   UNL     1     -10.330   7.679  73.095  1.00  0.00    -0.411 C  
HETATM    3  C   UNL     1      -8.179   8.003  74.289  1.00  0.00    -0.308 C  
HETATM    4  C   UNL     1      -8.808   7.762  72.909  1.00  0.00    -0.233 C  
ENDROOT
BRANCH   1   5
HETATM    5  C   UNL     1      -6.852   8.847  71.619  1.00  0.00    -0.053 C  
HETATM    6  H   UNL     1      -5.450  10.146  71.116  1.00  0.00     0.000 HD 
HETATM    7  O   UNL     1      -6.386  10.153  71.282  1.00  0.00    -0.322 OA 
ENDBRANCH   1   5
BRANCH   1   8
HETATM    8  N   UNL     1      -9.155   8.756  70.598  1.00  0.00    -0.169 NA 
HETATM    9  C   UNL     1     -10.402   9.997  68.895  1.00  0.00    -0.217 C  
HETATM   10  C   UNL     1      -9.939   9.817  70.141  1.00  0.00    -0.263 C  
HETATM   11  C   UNL     1     -11.238  11.181  68.595  1.00  0.00    -0.255 C  
HETATM   12  C   UNL     1     -10.017   9.005  67.882  1.00  0.00    -0.178 C  
HETATM   13  C   UNL     1      -9.119   7.904  68.295  1.00  0.00    -0.134 A  
HETATM   14  O   UNL     1     -10.450   9.097  66.735  1.00  0.00    -0.249 OA 
HETATM   15  O   UNL     1     -11.485  12.053  69.417  1.00  0.00    -0.273 OA 
HETATM   16  O   UNL     1     -11.717  11.227  67.334  1.00  0.00    -0.580 OA 
HETATM   17  C   UNL     1      -8.763   7.767  69.648  1.00  0.00    -0.135 A  
HETATM   18  C   UNL     1      -8.032   6.616  69.977  1.00  0.00    -0.116 A  
HETATM   19  C   UNL     1      -7.573   5.698  69.014  1.00  0.00    -0.088 A  
HETATM   20  C   UNL     1      -8.664   7.007  67.314  1.00  0.00    -0.120 A  
HETATM   21  C   UNL     1      -7.877   5.897  67.656  1.00  0.00    -0.098 A  
BRANCH  19  22
HETATM   22  O   UNL     1      -6.862   4.566  69.330  1.00  0.00    -0.044 OA 
HETATM   23  C   UNL     1      -7.482   3.638  70.219  1.00  0.00    -0.041 C  
ENDBRANCH  19  22
BRANCH  21  24
HETATM   24  C   UNL     1      -7.488   4.912  66.574  1.00  0.00    -0.087 C  
BRANCH  24  25
HETATM   25  C   UNL     1      -7.935   5.200  65.158  1.00  0.00    -0.106 A  
HETATM   26  C   UNL     1      -9.070   4.582  64.616  1.00  0.00    -0.151 A  
HETATM   27  C   UNL     1      -9.379   4.702  63.257  1.00  0.00     0.004 A  
HETATM   28  F   UNL     1      -9.842   3.821  65.409  1.00  0.00    -0.168 F  
HETATM   29  C   UNL     1      -8.555   5.448  62.416  1.00  0.00    -0.090 A  
HETATM   30 CL   UNL     1     -10.751   3.900  62.591  1.00  0.00    -0.201 Cl 
HETATM   31  C   UNL     1      -7.444   6.103  62.947  1.00  0.00    -0.066 A  
HETATM   32  C   UNL     1      -7.143   5.990  64.310  1.00  0.00    -0.053 A  
ENDBRANCH  24  25
ENDBRANCH  21  24
ENDBRANCH   1   8
TORSDOF 5
ENDMDL
MODEL      127
REMARK 921   NORMALIZED FREE ENERGY PREDICTED BY IDOCK:   -3.51 KCAL/MOL
REMARK 922        TOTAL FREE ENERGY PREDICTED BY IDOCK:   -5.68 KCAL/MOL
REMARK 923 INTER-LIGAND FREE ENERGY PREDICTED BY IDOCK:   -5.31 KCAL/MOL
REMARK 924 INTRA-LIGAND FREE ENERGY PREDICTED BY IDOCK:   -0.37 KCAL/MOL
REMARK 927      BINDING AFFINITY PREDICTED BY RF-SCORE:    0.00 PKD
ROOT
HETATM    1  C   UNL     1      -9.213   9.061  70.655  1.00  0.00    -0.231 C  
HETATM    2  C   UNL     1     -11.473   8.005  71.308  1.00  0.00    -0.299 C  
HETATM    3  C   UNL     1      -9.624   8.044  72.961  1.00  0.00    -0.347 C  
HETATM    4  C   UNL     1      -9.947   7.950  71.462  1.00  0.00    -0.214 C  
ENDROOT
BRANCH   1   5
HETATM    5  C   UNL     1      -7.671   8.917  70.719  1.00  0.00    -0.115 C  
HETATM    6  H   UNL     1      -6.107  10.092  71.006  1.00  0.00     0.000 HD 
HETATM    7  O   UNL     1      -7.052  10.179  70.966  1.00  0.00    -0.286 OA 
ENDBRANCH   1   5
BRANCH   1   8
HETATM    8  N   UNL     1      -9.687   9.115  69.220  1.00  0.00    -0.161 NA 
HETATM    9  C   UNL     1     -10.492  10.566  67.419  1.00  0.00    -0.291 C  
HETATM   10  C   UNL     1     -10.320  10.250  68.713  1.00  0.00    -0.195 C  
HETATM   11  C   UNL     1     -11.207  11.812  67.065  1.00  0.00    -0.322 C  
HETATM   12  C   UNL     1      -9.921   9.651  66.421  1.00  0.00    -0.255 C  
HETATM   13  C   UNL     1      -9.169   8.474  66.907  1.00  0.00    -0.197 A  
HETATM   14  O   UNL     1     -10.088   9.869  65.222  1.00  0.00    -0.313 OA 
HETATM   15  O   UNL     1     -11.603  12.617  67.896  1.00  0.00    -0.306 OA 
HETATM   16  O   UNL     1     -11.393  11.996  65.741  1.00  0.00    -0.330 OA 
HETATM   17  C   UNL     1      -9.125   8.198  68.285  1.00  0.00    -0.135 A  
HETATM   18  C   UNL     1      -8.518   6.986  68.649  1.00  0.00    -0.121 A  
HETATM   19  C   UNL     1      -7.884   6.138  67.721  1.00  0.00    -0.105 A  
HETATM   20  C   UNL     1      -8.535   7.648  65.964  1.00  0.00    -0.149 A  
HETATM   21  C   UNL     1      -7.875   6.473  66.357  1.00  0.00    -0.104 A  
BRANCH  19  22
HETATM   22  O   UNL     1      -7.294   4.948  68.071  1.00  0.00    -0.069 OA 
HETATM   23  C   UNL     1      -6.767   4.849  69.393  1.00  0.00    -0.051 C  
ENDBRANCH  19  22
BRANCH  21  24
HETATM   24  C   UNL     1      -7.286   5.572  65.293  1.00  0.00    -0.067 C  
BRANCH  24  25
HETATM   25  C   UNL     1      -8.074   4.350  64.881  1.00  0.00    -0.099 A  
HETATM   26  C   UNL     1      -9.026   4.412  63.854  1.00  0.00    -0.143 A  
HETATM   27  C   UNL     1      -9.884   3.337  63.597  1.00  0.00    -0.149 A  
HETATM   28  F   UNL     1      -9.146   5.544  63.141  1.00  0.00     0.021 F  
HETATM   29  C   UNL     1      -9.802   2.178  64.365  1.00  0.00    -0.004 A  
HETATM   30 CL   UNL     1     -11.081   3.442  62.362  1.00  0.00    -0.067 Cl 
HETATM   31  C   UNL     1      -8.834   2.083  65.365  1.00  0.00    -0.120 A  
HETATM   32  C   UNL     1      -7.969   3.157  65.613  1.00  0.00    -0.086 A  
ENDBRANCH  24  25
ENDBRANCH  21  24
ENDBRANCH   1   8
TORSDOF 5
ENDMDL
MODEL      128
REMARK 921   NORMALIZED FREE ENERGY PREDICTED BY IDOCK:   -3.46 KCAL/MOL
REMARK 922        TOTAL FREE ENERGY PREDICTED BY IDOCK:   -5.62 KCAL/MOL
REMARK 923 INTER-LIGAND FREE ENERGY PREDICTED BY IDOCK:   -4.31 KCAL/MOL
REMARK 924 INTRA-LIGAND FREE ENERGY PREDICTED BY IDOCK:   -1.30 KCAL/MOL
REMARK 927      BINDING AFFINITY PREDICTED BY RF-SCORE:    0.00 PKD
ROOT
HETATM    1  C   UNL     1      -9.669   8.150  71.413  1.00  0.00    -0.171 C  
HETATM    2  C   UNL     1      -7.190   7.695  71.956  1.00  0.00    -0.070 C  
HETATM    3  C   UNL     1      -8.807   8.005  73.812  1.00  0.00    -0.313 C  
HETATM    4  C   UNL     1      -8.475   8.425  72.372  1.00  0.00    -0.238 C  
ENDROOT
BRANCH   1   5
HETATM    5  C   UNL     1     -10.922   8.991  71.773  1.00  0.00    -0.372 C  
HETATM    6  H   UNL     1     -12.814   9.101  71.212  1.00  0.00     0.000 HD 
HETATM    7  O   UNL     1     -12.047   8.587  70.992  1.00  0.00    -0.282 OA 
ENDBRANCH   1   5
BRANCH   1   8
HETATM    8  N   UNL     1      -9.284   8.357  69.966  1.00  0.00    -0.157 NA 
HETATM    9  C   UNL     1      -8.225   9.874  68.361  1.00  0.00    -0.106 C  
HETATM   10  C   UNL     1      -8.892   9.611  69.496  1.00  0.00    -0.190 C  
HETATM   11  C   UNL     1      -7.907  11.276  68.013  1.00  0.00    -0.115 C  
HETATM   12  C   UNL     1      -7.820   8.726  67.537  1.00  0.00    -0.102 C  
HETATM   13  C   UNL     1      -8.139   7.369  68.030  1.00  0.00    -0.124 A  
HETATM   14  O   UNL     1      -7.247   8.912  66.465  1.00  0.00    -0.083 OA 
HETATM   15  O   UNL     1      -8.166  12.223  68.743  1.00  0.00    -0.056 OA 
HETATM   16  O   UNL     1      -7.305  11.436  66.816  1.00  0.00    -0.141 OA 
HETATM   17  C   UNL     1      -8.916   7.217  69.192  1.00  0.00    -0.135 A  
HETATM   18  C   UNL     1      -9.296   5.904  69.509  1.00  0.00    -0.156 A  
HETATM   19  C   UNL     1      -8.847   4.781  68.788  1.00  0.00    -0.098 A  
HETATM   20  C   UNL     1      -7.670   6.264  67.302  1.00  0.00    -0.100 A  
HETATM   21  C   UNL     1      -8.008   4.953  67.674  1.00  0.00    -0.094 A  
BRANCH  19  22
HETATM   22  O   UNL     1      -9.220   3.494  69.090  1.00  0.00    -0.131 OA 
HETATM   23  C   UNL     1      -9.271   3.140  70.471  1.00  0.00    -0.140 C  
ENDBRANCH  19  22
BRANCH  21  24
HETATM   24  C   UNL     1      -7.551   3.802  66.804  1.00  0.00    -0.080 C  
BRANCH  24  25
HETATM   25  C   UNL     1      -7.793   3.899  65.314  1.00  0.00    -0.089 A  
HETATM   26  C   UNL     1      -9.092   3.861  64.787  1.00  0.00    -0.141 A  
HETATM   27  C   UNL     1      -9.309   3.764  63.408  1.00  0.00    -0.121 A  
HETATM   28  F   UNL     1     -10.139   3.867  65.627  1.00  0.00    -0.184 F  
HETATM   29  C   UNL     1      -8.227   3.705  62.532  1.00  0.00    -0.072 A  
HETATM   30 CL   UNL     1     -10.908   3.671  62.774  1.00  0.00    -0.169 Cl 
HETATM   31  C   UNL     1      -6.929   3.783  63.037  1.00  0.00    -0.040 A  
HETATM   32  C   UNL     1      -6.714   3.891  64.417  1.00  0.00    -0.044 A  
ENDBRANCH  24  25
ENDBRANCH  21  24
ENDBRANCH   1   8
TORSDOF 5
ENDMDL
MODEL      129
REMARK 921   NORMALIZED FREE ENERGY PREDICTED BY IDOCK:   -3.37 KCAL/MOL
REMARK 922        TOTAL FREE ENERGY PREDICTED BY IDOCK:   -5.50 KCAL/MOL
REMARK 923 INTER-LIGAND FREE ENERGY PREDICTED BY IDOCK:   -5.40 KCAL/MOL
REMARK 924 INTRA-LIGAND FREE ENERGY PREDICTED BY IDOCK:   -0.10 KCAL/MOL
REMARK 927      BINDING AFFINITY PREDICTED BY RF-SCORE:    0.00 PKD
ROOT
HETATM    1  C   UNL     1      -7.169   7.850  71.799  1.00  0.00    -0.071 C  
HETATM    2  C   UNL     1      -9.594   8.439  72.449  1.00  0.00    -0.373 C  
HETATM    3  C   UNL     1      -7.899   8.113  74.231  1.00  0.00    -0.291 C  
HETATM    4  C   UNL     1      -8.323   7.663  72.825  1.00  0.00    -0.167 C  
ENDROOT
BRANCH   1   5
HETATM    5  C   UNL     1      -5.939   6.963  72.125  1.00  0.00    -0.038 C  
HETATM    6  H   UNL     1      -5.283   5.154  71.672  1.00  0.00     0.000 HD 
HETATM    7  O   UNL     1      -6.037   5.697  71.473  1.00  0.00    -0.028 OA 
ENDBRANCH   1   5
BRANCH   1   8
HETATM    8  N   UNL     1      -7.638   7.615  70.381  1.00  0.00    -0.086 NA 
HETATM    9  C   UNL     1      -8.971   6.178  68.913  1.00  0.00    -0.124 C  
HETATM   10  C   UNL     1      -8.229   6.407  70.008  1.00  0.00    -0.125 C  
HETATM   11  C   UNL     1      -9.507   4.821  68.670  1.00  0.00    -0.150 C  
HETATM   12  C   UNL     1      -9.234   7.320  68.027  1.00  0.00    -0.131 C  
HETATM   13  C   UNL     1      -8.698   8.642  68.418  1.00  0.00    -0.142 A  
HETATM   14  O   UNL     1      -9.871   7.157  66.987  1.00  0.00    -0.171 OA 
HETATM   15  O   UNL     1      -9.362   3.893  69.453  1.00  0.00    -0.145 OA 
HETATM   16  O   UNL     1     -10.173   4.680  67.504  1.00  0.00    -0.115 OA 
HETATM   17  C   UNL     1      -7.863   8.747  69.544  1.00  0.00    -0.091 A  
HETATM   18  C   UNL     1      -7.280  10.005  69.761  1.00  0.00    -0.127 A  
HETATM   19  C   UNL     1      -7.586  11.136  68.981  1.00  0.00    -0.119 A  
HETATM   20  C   UNL     1      -9.027   9.758  67.632  1.00  0.00    -0.133 A  
HETATM   21  C   UNL     1      -8.484  11.023  67.906  1.00  0.00    -0.128 A  
BRANCH  19  22
HETATM   22  O   UNL     1      -7.015  12.368  69.184  1.00  0.00    -0.097 OA 
HETATM   23  C   UNL     1      -5.834  12.412  69.984  1.00  0.00    -0.151 C  
ENDBRANCH  19  22
BRANCH  21  24
HETATM   24  C   UNL     1      -8.801  12.174  66.975  1.00  0.00    -0.203 C  
BRANCH  24  25
HETATM   25  C   UNL     1      -9.288  11.846  65.581  1.00  0.00    -0.125 A  
HETATM   26  C   UNL     1     -10.412  12.483  65.037  1.00  0.00    -0.297 A  
HETATM   27  C   UNL     1     -10.973  12.053  63.830  1.00  0.00    -0.426 A  
HETATM   28  F   UNL     1     -10.986  13.489  65.716  1.00  0.00    -0.278 F  
HETATM   29  C   UNL     1     -10.415  10.975  63.145  1.00  0.00    -0.176 A  
HETATM   30 CL   UNL     1     -12.382  12.812  63.193  1.00  0.00    -0.445 Cl 
HETATM   31  C   UNL     1      -9.273  10.356  63.651  1.00  0.00    -0.310 A  
HETATM   32  C   UNL     1      -8.706  10.796  64.854  1.00  0.00    -0.135 A  
ENDBRANCH  24  25
ENDBRANCH  21  24
ENDBRANCH   1   8
TORSDOF 5
ENDMDL
MODEL      130
REMARK 921   NORMALIZED FREE ENERGY PREDICTED BY IDOCK:   -3.32 KCAL/MOL
REMARK 922        TOTAL FREE ENERGY PREDICTED BY IDOCK:   -5.43 KCAL/MOL
REMARK 923 INTER-LIGAND FREE ENERGY PREDICTED BY IDOCK:   -5.01 KCAL/MOL
REMARK 924 INTRA-LIGAND FREE ENERGY PREDICTED BY IDOCK:   -0.43 KCAL/MOL
REMARK 927      BINDING AFFINITY PREDICTED BY RF-SCORE:    0.00 PKD
ROOT
HETATM    1  C   UNL     1      -7.535   6.725  64.332  1.00  0.00    -0.100 C  
HETATM    2  C   UNL     1      -5.274   7.671  65.133  1.00  0.00    -0.029 C  
HETATM    3  C   UNL     1      -5.307   5.671  63.664  1.00  0.00    -0.013 C  
HETATM    4  C   UNL     1      -6.075   6.412  64.769  1.00  0.00    -0.030 C  
ENDROOT
BRANCH   1   5
HETATM    5  C   UNL     1      -8.368   5.439  64.089  1.00  0.00    -0.118 C  
HETATM    6  H   UNL     1      -9.259   4.544  62.569  1.00  0.00     0.000 HD 
HETATM    7  O   UNL     1      -8.749   5.331  62.718  1.00  0.00    -0.119 OA 
ENDBRANCH   1   5
BRANCH   1   8
HETATM    8  N   UNL     1      -8.231   7.636  65.317  1.00  0.00    -0.136 NA 
HETATM    9  C   UNL     1      -9.584   9.660  65.578  1.00  0.00    -0.351 C  
HETATM   10  C   UNL     1      -8.686   8.899  64.934  1.00  0.00    -0.149 C  
HETATM   11  C   UNL     1      -9.936  10.989  65.029  1.00  0.00    -0.285 C  
HETATM   12  C   UNL     1     -10.195   9.102  66.792  1.00  0.00    -0.261 C  
HETATM   13  C   UNL     1      -9.808   7.733  67.198  1.00  0.00    -0.270 A  
HETATM   14  O   UNL     1     -10.990   9.775  67.446  1.00  0.00    -0.259 OA 
HETATM   15  O   UNL     1      -9.495  11.415  63.971  1.00  0.00    -0.208 OA 
HETATM   16  O   UNL     1     -10.789  11.705  65.793  1.00  0.00    -0.277 OA 
HETATM   17  C   UNL     1      -8.794   7.060  66.494  1.00  0.00    -0.141 A  
HETATM   18  C   UNL     1      -8.386   5.829  67.031  1.00  0.00    -0.108 A  
HETATM   19  C   UNL     1      -9.015   5.231  68.139  1.00  0.00    -0.109 A  
HETATM   20  C   UNL     1     -10.457   7.151  68.298  1.00  0.00    -0.235 A  
HETATM   21  C   UNL     1     -10.078   5.889  68.780  1.00  0.00    -0.220 A  
BRANCH  19  22
HETATM   22  O   UNL     1      -8.617   4.030  68.673  1.00  0.00    -0.088 OA 
HETATM   23  C   UNL     1      -7.798   3.196  67.855  1.00  0.00    -0.067 C  
ENDBRANCH  19  22
BRANCH  21  24
HETATM   24  C   UNL     1     -10.750   5.346  70.024  1.00  0.00    -0.296 C  
BRANCH  24  25
HETATM   25  C   UNL     1      -9.960   5.344  71.313  1.00  0.00    -0.253 A  
HETATM   26  C   UNL     1      -9.987   4.241  72.179  1.00  0.00    -0.179 A  
HETATM   27  C   UNL     1      -9.411   4.306  73.452  1.00  0.00    -0.107 A  
HETATM   28  F   UNL     1     -10.624   3.123  71.794  1.00  0.00    -0.086 F  
HETATM   29  C   UNL     1      -8.793   5.480  73.880  1.00  0.00    -0.120 A  
HETATM   30 CL   UNL     1      -9.491   2.961  74.525  1.00  0.00    -0.111 Cl 
HETATM   31  C   UNL     1      -8.721   6.573  73.017  1.00  0.00    -0.130 A  
HETATM   32  C   UNL     1      -9.290   6.502  71.738  1.00  0.00    -0.149 A  
ENDBRANCH  24  25
ENDBRANCH  21  24
ENDBRANCH   1   8
TORSDOF 5
ENDMDL
MODEL      131
REMARK 921   NORMALIZED FREE ENERGY PREDICTED BY IDOCK:   -3.30 KCAL/MOL
REMARK 922        TOTAL FREE ENERGY PREDICTED BY IDOCK:   -5.40 KCAL/MOL
REMARK 923 INTER-LIGAND FREE ENERGY PREDICTED BY IDOCK:   -4.82 KCAL/MOL
REMARK 924 INTRA-LIGAND FREE ENERGY PREDICTED BY IDOCK:   -0.58 KCAL/MOL
REMARK 927      BINDING AFFINITY PREDICTED BY RF-SCORE:    0.00 PKD
ROOT
HETATM    1  C   UNL     1     -10.062   8.320  69.140  1.00  0.00    -0.202 C  
HETATM    2  C   UNL     1      -8.307   7.831  67.315  1.00  0.00    -0.118 C  
HETATM    3  C   UNL     1     -10.386   6.479  67.401  1.00  0.00    -0.263 C  
HETATM    4  C   UNL     1      -9.366   7.243  68.259  1.00  0.00    -0.135 C  
ENDROOT
BRANCH   1   5
HETATM    5  C   UNL     1     -11.037   7.699  70.174  1.00  0.00    -0.218 C  
HETATM    6  H   UNL     1     -12.370   8.335  71.487  1.00  0.00     0.000 HD 
HETATM    7  O   UNL     1     -11.773   8.715  70.853  1.00  0.00    -0.282 OA 
ENDBRANCH   1   5
BRANCH   1   8
HETATM    8  N   UNL     1      -9.057   9.218  69.824  1.00  0.00    -0.163 NA 
HETATM    9  C   UNL     1      -7.061   9.295  71.241  1.00  0.00    -0.015 C  
HETATM   10  C   UNL     1      -8.191   8.721  70.799  1.00  0.00    -0.156 C  
HETATM   11  C   UNL     1      -6.272   8.626  72.299  1.00  0.00    -0.076 C  
HETATM   12  C   UNL     1      -6.656  10.559  70.610  1.00  0.00     0.067 C  
HETATM   13  C   UNL     1      -7.496  11.089  69.515  1.00  0.00    -0.031 A  
HETATM   14  O   UNL     1      -5.654  11.151  71.008  1.00  0.00    -0.254 OA 
HETATM   15  O   UNL     1      -6.563   7.530  72.759  1.00  0.00    -0.058 OA 
HETATM   16  O   UNL     1      -5.198   9.323  72.725  1.00  0.00    -0.073 OA 
HETATM   17  C   UNL     1      -8.704  10.447  69.192  1.00  0.00    -0.166 A  
HETATM   18  C   UNL     1      -9.510  11.095  68.243  1.00  0.00    -0.182 A  
HETATM   19  C   UNL     1      -9.105  12.258  67.560  1.00  0.00    -0.182 A  
HETATM   20  C   UNL     1      -7.066  12.243  68.839  1.00  0.00    -0.088 A  
HETATM   21  C   UNL     1      -7.859  12.839  67.846  1.00  0.00    -0.156 A  
BRANCH  19  22
HETATM   22  O   UNL     1      -9.891  12.900  66.636  1.00  0.00    -0.237 OA 
HETATM   23  C   UNL     1     -10.773  13.911  67.124  1.00  0.00    -0.282 C  
ENDBRANCH  19  22
BRANCH  21  24
HETATM   24  C   UNL     1      -7.390  14.132  67.211  1.00  0.00    -0.035 C  
BRANCH  24  25
HETATM   25  C   UNL     1      -7.128  15.313  68.118  1.00  0.00    -0.126 A  
HETATM   26  C   UNL     1      -7.551  16.603  67.769  1.00  0.00    -0.159 A  
HETATM   27  C   UNL     1      -7.152  17.721  68.510  1.00  0.00    -0.245 A  
HETATM   28  F   UNL     1      -8.310  16.769  66.673  1.00  0.00    -0.201 F  
HETATM   29  C   UNL     1      -6.321  17.564  69.619  1.00  0.00    -0.191 A  
HETATM   30 CL   UNL     1      -7.639  19.306  68.045  1.00  0.00    -0.309 Cl 
HETATM   31  C   UNL     1      -5.925  16.284  70.005  1.00  0.00    -0.167 A  
HETATM   32  C   UNL     1      -6.335  15.165  69.267  1.00  0.00    -0.117 A  
ENDBRANCH  24  25
ENDBRANCH  21  24
ENDBRANCH   1   8
TORSDOF 5
ENDMDL
MODEL      132
REMARK 921   NORMALIZED FREE ENERGY PREDICTED BY IDOCK:   -3.28 KCAL/MOL
REMARK 922        TOTAL FREE ENERGY PREDICTED BY IDOCK:   -5.38 KCAL/MOL
REMARK 923 INTER-LIGAND FREE ENERGY PREDICTED BY IDOCK:   -4.66 KCAL/MOL
REMARK 924 INTRA-LIGAND FREE ENERGY PREDICTED BY IDOCK:   -0.71 KCAL/MOL
REMARK 927      BINDING AFFINITY PREDICTED BY RF-SCORE:    0.00 PKD
ROOT
HETATM    1  C   UNL     1     -10.020   6.615  70.672  1.00  0.00    -0.184 C  
HETATM    2  C   UNL     1      -8.522   6.227  68.609  1.00  0.00    -0.122 C  
HETATM    3  C   UNL     1     -10.229   4.531  69.212  1.00  0.00     0.039 C  
HETATM    4  C   UNL     1      -9.266   5.581  69.786  1.00  0.00    -0.168 C  
ENDROOT
BRANCH   1   5
HETATM    5  C   UNL     1     -10.661   5.965  71.925  1.00  0.00    -0.239 C  
HETATM    6  H   UNL     1     -12.466   5.778  72.709  1.00  0.00     0.000 HD 
HETATM    7  O   UNL     1     -12.073   6.176  71.942  1.00  0.00    -0.304 OA 
ENDBRANCH   1   5
BRANCH   1   8
HETATM    8  N   UNL     1      -9.127   7.771  71.065  1.00  0.00    -0.146 NA 
HETATM    9  C   UNL     1      -7.068   8.421  72.219  1.00  0.00    -0.116 C  
HETATM   10  C   UNL     1      -8.118   7.611  72.015  1.00  0.00    -0.101 C  
HETATM   11  C   UNL     1      -6.099   8.100  73.290  1.00  0.00    -0.077 C  
HETATM   12  C   UNL     1      -6.929   9.580  71.326  1.00  0.00     0.117 C  
HETATM   13  C   UNL     1      -7.927   9.752  70.249  1.00  0.00    -0.185 A  
HETATM   14  O   UNL     1      -6.010  10.381  71.497  1.00  0.00    -0.313 OA 
HETATM   15  O   UNL     1      -6.167   7.088  73.974  1.00  0.00    -0.066 OA 
HETATM   16  O   UNL     1      -5.126   9.019  73.462  1.00  0.00    -0.073 OA 
HETATM   17  C   UNL     1      -9.033   8.887  70.183  1.00  0.00    -0.172 A  
HETATM   18  C   UNL     1     -10.007   9.207  69.224  1.00  0.00    -0.187 A  
HETATM   19  C   UNL     1      -9.855  10.257  68.299  1.00  0.00    -0.146 A  
HETATM   20  C   UNL     1      -7.748  10.798  69.330  1.00  0.00    -0.129 A  
HETATM   21  C   UNL     1      -8.703  11.061  68.335  1.00  0.00    -0.150 A  
BRANCH  19  22
HETATM   22  O   UNL     1     -10.806  10.579  67.362  1.00  0.00    -0.266 OA 
HETATM   23  C   UNL     1     -12.005  11.189  67.838  1.00  0.00     0.083 C  
ENDBRANCH  19  22
BRANCH  21  24
HETATM   24  C   UNL     1      -8.506  12.256  67.426  1.00  0.00    -0.176 C  
BRANCH  24  25
HETATM   25  C   UNL     1      -8.949  13.611  67.930  1.00  0.00    -0.195 A  
HETATM   26  C   UNL     1      -8.015  14.610  68.242  1.00  0.00    -0.133 A  
HETATM   27  C   UNL     1      -8.406  15.792  68.880  1.00  0.00    -0.213 A  
HETATM   28  F   UNL     1      -6.717  14.400  67.968  1.00  0.00    -0.092 F  
HETATM   29  C   UNL     1      -9.744  15.995  69.216  1.00  0.00    -0.257 A  
HETATM   30 CL   UNL     1      -7.244  16.992  69.300  1.00  0.00    -0.201 Cl 
HETATM   31  C   UNL     1     -10.692  15.031  68.877  1.00  0.00    -0.240 A  
HETATM   32  C   UNL     1     -10.299  13.852  68.228  1.00  0.00    -0.249 A  
ENDBRANCH  24  25
ENDBRANCH  21  24
ENDBRANCH   1   8
TORSDOF 5
ENDMDL
MODEL      133
REMARK 921   NORMALIZED FREE ENERGY PREDICTED BY IDOCK:   -3.20 KCAL/MOL
REMARK 922        TOTAL FREE ENERGY PREDICTED BY IDOCK:   -5.28 KCAL/MOL
REMARK 923 INTER-LIGAND FREE ENERGY PREDICTED BY IDOCK:   -4.71 KCAL/MOL
REMARK 924 INTRA-LIGAND FREE ENERGY PREDICTED BY IDOCK:   -0.56 KCAL/MOL
REMARK 927      BINDING AFFINITY PREDICTED BY RF-SCORE:    0.00 PKD
ROOT
HETATM    1  C   UNL     1      -8.931  10.869  68.013  1.00  0.00    -0.145 C  
HETATM    2  C   UNL     1      -6.771  10.615  69.399  1.00  0.00    -0.083 C  
HETATM    3  C   UNL     1      -6.878  12.334  67.612  1.00  0.00    -0.124 C  
HETATM    4  C   UNL     1      -7.376  10.941  68.026  1.00  0.00    -0.088 C  
ENDROOT
BRANCH   1   5
HETATM    5  C   UNL     1      -9.521  11.076  66.594  1.00  0.00    -0.184 C  
HETATM    6  H   UNL     1     -11.306  11.292  65.774  1.00  0.00     0.000 HD 
HETATM    7  O   UNL     1     -10.944  11.165  66.643  1.00  0.00    -0.274 OA 
ENDBRANCH   1   5
BRANCH   1   8
HETATM    8  N   UNL     1      -9.436   9.580  68.621  1.00  0.00    -0.141 NA 
HETATM    9  C   UNL     1     -11.081   8.577  70.133  1.00  0.00    -0.192 C  
HETATM   10  C   UNL     1     -10.310   9.591  69.710  1.00  0.00    -0.230 C  
HETATM   11  C   UNL     1     -11.938   8.765  71.324  1.00  0.00    -0.301 C  
HETATM   12  C   UNL     1     -11.045   7.332  69.353  1.00  0.00    -0.068 C  
HETATM   13  C   UNL     1     -10.197   7.295  68.142  1.00  0.00    -0.222 A  
HETATM   14  O   UNL     1     -11.697   6.356  69.722  1.00  0.00    -0.414 OA 
HETATM   15  O   UNL     1     -12.035   9.829  71.919  1.00  0.00    -0.365 OA 
HETATM   16  O   UNL     1     -12.613   7.662  71.711  1.00  0.00    -0.314 OA 
HETATM   17  C   UNL     1      -9.367   8.389  67.841  1.00  0.00    -0.135 A  
HETATM   18  C   UNL     1      -8.488   8.215  66.761  1.00  0.00    -0.123 A  
HETATM   19  C   UNL     1      -8.497   7.068  65.943  1.00  0.00    -0.147 A  
HETATM   20  C   UNL     1     -10.231   6.146  67.335  1.00  0.00    -0.226 A  
HETATM   21  C   UNL     1      -9.390   6.019  66.218  1.00  0.00    -0.165 A  
BRANCH  19  22
HETATM   22  O   UNL     1      -7.636   6.889  64.888  1.00  0.00    -0.091 OA 
HETATM   23  C   UNL     1      -6.242   7.036  65.156  1.00  0.00    -0.037 C  
ENDBRANCH  19  22
BRANCH  21  24
HETATM   24  C   UNL     1      -9.403   4.724  65.434  1.00  0.00    -0.161 C  
BRANCH  24  25
HETATM   25  C   UNL     1      -8.278   3.741  65.669  1.00  0.00    -0.105 A  
HETATM   26  C   UNL     1      -8.096   3.134  66.920  1.00  0.00    -0.080 A  
HETATM   27  C   UNL     1      -6.955   2.371  67.193  1.00  0.00    -0.044 A  
HETATM   28  F   UNL     1      -9.009   3.333  67.883  1.00  0.00    -0.117 F  
HETATM   29  C   UNL     1      -5.976   2.202  66.216  1.00  0.00    -0.023 A  
HETATM   30 CL   UNL     1      -6.717   1.668  68.748  1.00  0.00    -0.029 Cl 
HETATM   31  C   UNL     1      -6.161   2.765  64.953  1.00  0.00    -0.019 A  
HETATM   32  C   UNL     1      -7.309   3.519  64.678  1.00  0.00    -0.071 A  
ENDBRANCH  24  25
ENDBRANCH  21  24
ENDBRANCH   1   8
TORSDOF 5
ENDMDL
MODEL      134
REMARK 921   NORMALIZED FREE ENERGY PREDICTED BY IDOCK:   -3.11 KCAL/MOL
REMARK 922        TOTAL FREE ENERGY PREDICTED BY IDOCK:   -5.16 KCAL/MOL
REMARK 923 INTER-LIGAND FREE ENERGY PREDICTED BY IDOCK:   -4.62 KCAL/MOL
REMARK 924 INTRA-LIGAND FREE ENERGY PREDICTED BY IDOCK:   -0.54 KCAL/MOL
REMARK 927      BINDING AFFINITY PREDICTED BY RF-SCORE:    0.00 PKD
ROOT
HETATM    1  C   UNL     1      -8.680   9.785  68.681  1.00  0.00    -0.122 C  
HETATM    2  C   UNL     1     -10.888   8.649  69.378  1.00  0.00    -0.108 C  
HETATM    3  C   UNL     1      -9.119   9.021  71.077  1.00  0.00    -0.322 C  
HETATM    4  C   UNL     1      -9.369   8.727  69.591  1.00  0.00    -0.158 C  
ENDROOT
BRANCH   1   5
HETATM    5  C   UNL     1      -7.135   9.764  68.815  1.00  0.00    -0.067 C  
HETATM    6  H   UNL     1      -5.707  10.994  69.409  1.00  0.00     0.000 HD 
HETATM    7  O   UNL     1      -6.653  11.007  69.326  1.00  0.00    -0.070 OA 
ENDBRANCH   1   5
BRANCH   1   8
HETATM    8  N   UNL     1      -9.094   9.633  67.234  1.00  0.00    -0.134 NA 
HETATM    9  C   UNL     1      -9.693  10.818  65.176  1.00  0.00    -0.319 C  
HETATM   10  C   UNL     1      -9.599  10.715  66.511  1.00  0.00    -0.180 C  
HETATM   11  C   UNL     1     -10.274  12.041  64.582  1.00  0.00    -0.282 C  
HETATM   12  C   UNL     1      -9.174   9.700  64.377  1.00  0.00    -0.200 C  
HETATM   13  C   UNL     1      -8.554   8.563  65.091  1.00  0.00    -0.179 A  
HETATM   14  O   UNL     1      -9.275   9.722  63.151  1.00  0.00    -0.265 OA 
HETATM   15  O   UNL     1     -10.624  13.008  65.245  1.00  0.00    -0.290 OA 
HETATM   16  O   UNL     1     -10.394  12.011  63.238  1.00  0.00    -0.434 OA 
HETATM   17  C   UNL     1      -8.586   8.524  66.496  1.00  0.00    -0.121 A  
HETATM   18  C   UNL     1      -8.109   7.345  67.089  1.00  0.00    -0.114 A  
HETATM   19  C   UNL     1      -7.524   6.299  66.351  1.00  0.00    -0.086 A  
HETATM   20  C   UNL     1      -7.966   7.536  64.334  1.00  0.00    -0.117 A  
HETATM   21  C   UNL     1      -7.434   6.393  64.952  1.00  0.00    -0.085 A  
BRANCH  19  22
HETATM   22  O   UNL     1      -7.060   5.140  66.924  1.00  0.00    -0.069 OA 
HETATM   23  C   UNL     1      -7.881   4.538  67.926  1.00  0.00    -0.081 C  
ENDBRANCH  19  22
BRANCH  21  24
HETATM   24  C   UNL     1      -6.892   5.276  64.085  1.00  0.00    -0.047 C  
BRANCH  24  25
HETATM   25  C   UNL     1      -7.722   4.019  63.948  1.00  0.00    -0.082 A  
HETATM   26  C   UNL     1      -8.911   4.013  63.206  1.00  0.00    -0.114 A  
HETATM   27  C   UNL     1      -9.772   2.910  63.229  1.00  0.00    -0.098 A  
HETATM   28  F   UNL     1      -9.250   5.106  62.504  1.00  0.00    -0.123 F  
HETATM   29  C   UNL     1      -9.454   1.791  63.996  1.00  0.00    -0.126 A  
HETATM   30 CL   UNL     1     -11.254   2.931  62.350  1.00  0.00    -0.082 Cl 
HETATM   31  C   UNL     1      -8.255   1.764  64.708  1.00  0.00    -0.079 A  
HETATM   32  C   UNL     1      -7.389   2.866  64.675  1.00  0.00    -0.066 A  
ENDBRANCH  24  25
ENDBRANCH  21  24
ENDBRANCH   1   8
TORSDOF 5
ENDMDL
MODEL      135
REMARK 921   NORMALIZED FREE ENERGY PREDICTED BY IDOCK:   -3.08 KCAL/MOL
REMARK 922        TOTAL FREE ENERGY PREDICTED BY IDOCK:   -5.12 KCAL/MOL
REMARK 923 INTER-LIGAND FREE ENERGY PREDICTED BY IDOCK:   -4.91 KCAL/MOL
REMARK 924 INTRA-LIGAND FREE ENERGY PREDICTED BY IDOCK:   -0.21 KCAL/MOL
REMARK 927      BINDING AFFINITY PREDICTED BY RF-SCORE:    0.00 PKD
ROOT
HETATM    1  C   UNL     1     -10.184   9.934  68.135  1.00  0.00    -0.179 C  
HETATM    2  C   UNL     1     -10.959  11.275  70.197  1.00  0.00     0.120 C  
HETATM    3  C   UNL     1     -11.476   8.852  70.054  1.00  0.00     0.021 C  
HETATM    4  C   UNL     1     -11.278  10.130  69.225  1.00  0.00    -0.247 C  
ENDROOT
BRANCH   1   5
HETATM    5  C   UNL     1     -10.579   8.860  67.088  1.00  0.00    -0.231 C  
HETATM    6  H   UNL     1     -10.845   8.759  65.132  1.00  0.00     0.000 HD 
HETATM    7  O   UNL     1     -10.604   9.417  65.774  1.00  0.00     0.164 OA 
ENDBRANCH   1   5
BRANCH   1   8
HETATM    8  N   UNL     1      -9.829  11.238  67.458  1.00  0.00    -0.177 NA 
HETATM    9  C   UNL     1     -10.710  13.240  66.356  1.00  0.00    -0.291 C  
HETATM   10  C   UNL     1     -10.778  11.951  66.723  1.00  0.00    -0.246 C  
HETATM   11  C   UNL     1     -11.810  13.827  65.559  1.00  0.00    -0.363 C  
HETATM   12  C   UNL     1      -9.540  14.007  66.805  1.00  0.00    -0.286 C  
HETATM   13  C   UNL     1      -8.544  13.321  67.656  1.00  0.00    -0.196 A  
HETATM   14  O   UNL     1      -9.405  15.180  66.460  1.00  0.00    -0.242 OA 
HETATM   15  O   UNL     1     -12.825  13.212  65.262  1.00  0.00    -0.617 OA 
HETATM   16  O   UNL     1     -11.607  15.106  65.178  1.00  0.00    -0.326 OA 
HETATM   17  C   UNL     1      -8.675  11.944  67.907  1.00  0.00    -0.167 A  
HETATM   18  C   UNL     1      -7.613  11.342  68.599  1.00  0.00    -0.130 A  
HETATM   19  C   UNL     1      -6.525  12.071  69.117  1.00  0.00    -0.099 A  
HETATM   20  C   UNL     1      -7.475  14.071  68.172  1.00  0.00    -0.131 A  
HETATM   21  C   UNL     1      -6.454  13.460  68.919  1.00  0.00    -0.103 A  
BRANCH  19  22
HETATM   22  O   UNL     1      -5.480  11.487  69.789  1.00  0.00    -0.062 OA 
HETATM   23  C   UNL     1      -5.748  10.988  71.099  1.00  0.00     0.082 C  
ENDBRANCH  19  22
BRANCH  21  24
HETATM   24  C   UNL     1      -5.279  14.297  69.376  1.00  0.00    -0.086 C  
BRANCH  24  25
HETATM   25  C   UNL     1      -5.457  15.797  69.439  1.00  0.00    -0.110 A  
HETATM   26  C   UNL     1      -5.440  16.578  68.275  1.00  0.00    -0.108 A  
HETATM   27  C   UNL     1      -5.419  17.976  68.343  1.00  0.00    -0.161 A  
HETATM   28  F   UNL     1      -5.391  15.970  67.079  1.00  0.00    -0.099 F  
HETATM   29  C   UNL     1      -5.417  18.616  69.581  1.00  0.00    -0.217 A  
HETATM   30 CL   UNL     1      -5.350  18.926  66.907  1.00  0.00    -0.144 Cl 
HETATM   31  C   UNL     1      -5.475  17.854  70.748  1.00  0.00    -0.175 A  
HETATM   32  C   UNL     1      -5.507  16.456  70.677  1.00  0.00    -0.106 A  
ENDBRANCH  24  25
ENDBRANCH  21  24
ENDBRANCH   1   8
TORSDOF 5
ENDMDL
MODEL      136
REMARK 921   NORMALIZED FREE ENERGY PREDICTED BY IDOCK:   -2.97 KCAL/MOL
REMARK 922        TOTAL FREE ENERGY PREDICTED BY IDOCK:   -4.98 KCAL/MOL
REMARK 923 INTER-LIGAND FREE ENERGY PREDICTED BY IDOCK:   -3.75 KCAL/MOL
REMARK 924 INTRA-LIGAND FREE ENERGY PREDICTED BY IDOCK:   -1.23 KCAL/MOL
REMARK 927      BINDING AFFINITY PREDICTED BY RF-SCORE:    0.00 PKD
ROOT
HETATM    1  C   UNL     1     -10.496  15.705  67.660  1.00  0.00    -0.283 C  
HETATM    2  C   UNL     1     -10.574  15.251  70.197  1.00  0.00    -0.279 C  
HETATM    3  C   UNL     1     -12.693  15.609  68.957  1.00  0.00     0.649 C  
HETATM    4  C   UNL     1     -11.207  15.995  69.013  1.00  0.00    -0.347 C  
ENDROOT
BRANCH   1   5
HETATM    5  C   UNL     1     -11.065  16.558  66.497  1.00  0.00     0.221 C  
HETATM    6  H   UNL     1     -10.633  16.912  64.601  1.00  0.00     0.000 HD 
HETATM    7  O   UNL     1     -10.285  16.390  65.314  1.00  0.00    -0.575 OA 
ENDBRANCH   1   5
BRANCH   1   8
HETATM    8  N   UNL     1      -8.997  15.877  67.768  1.00  0.00    -0.176 NA 
HETATM    9  C   UNL     1      -7.189  17.216  68.734  1.00  0.00    -0.232 C  
HETATM   10  C   UNL     1      -8.441  17.050  68.281  1.00  0.00    -0.233 C  
HETATM   11  C   UNL     1      -6.766  18.544  69.229  1.00  0.00    -0.234 C  
HETATM   12  C   UNL     1      -6.312  16.037  68.736  1.00  0.00    -0.117 C  
HETATM   13  C   UNL     1      -6.876  14.749  68.278  1.00  0.00    -0.115 A  
HETATM   14  O   UNL     1      -5.141  16.143  69.098  1.00  0.00    -0.108 OA 
HETATM   15  O   UNL     1      -7.523  19.501  69.310  1.00  0.00    -0.351 OA 
HETATM   16  O   UNL     1      -5.467  18.623  69.588  1.00  0.00    -0.200 OA 
HETATM   17  C   UNL     1      -8.177  14.711  67.747  1.00  0.00    -0.162 A  
HETATM   18  C   UNL     1      -8.582  13.482  67.202  1.00  0.00    -0.203 A  
HETATM   19  C   UNL     1      -7.796  12.317  67.273  1.00  0.00    -0.171 A  
HETATM   20  C   UNL     1      -6.079  13.597  68.370  1.00  0.00    -0.096 A  
HETATM   21  C   UNL     1      -6.529  12.362  67.878  1.00  0.00    -0.095 A  
BRANCH  19  22
HETATM   22  O   UNL     1      -8.184  11.113  66.736  1.00  0.00    -0.142 OA 
HETATM   23  C   UNL     1      -9.503  10.662  67.041  1.00  0.00    -0.164 C  
ENDBRANCH  19  22
BRANCH  21  24
HETATM   24  C   UNL     1      -5.595  11.171  67.920  1.00  0.00    -0.043 C  
BRANCH  24  25
HETATM   25  C   UNL     1      -5.795  10.152  69.020  1.00  0.00    -0.037 A  
HETATM   26  C   UNL     1      -5.841   8.779  68.736  1.00  0.00    -0.041 A  
HETATM   27  C   UNL     1      -6.209   7.851  69.716  1.00  0.00    -0.026 A  
HETATM   28  F   UNL     1      -5.578   8.360  67.488  1.00  0.00    -0.035 F  
HETATM   29  C   UNL     1      -6.535   8.283  71.001  1.00  0.00    -0.039 A  
HETATM   30 CL   UNL     1      -6.308   6.172  69.346  1.00  0.00    -0.039 Cl 
HETATM   31  C   UNL     1      -6.454   9.640  71.311  1.00  0.00     0.050 A  
HETATM   32  C   UNL     1      -6.075  10.566  70.331  1.00  0.00    -0.125 A  
ENDBRANCH  24  25
ENDBRANCH  21  24
ENDBRANCH   1   8
TORSDOF 5
ENDMDL
MODEL      137
REMARK 921   NORMALIZED FREE ENERGY PREDICTED BY IDOCK:   -2.93 KCAL/MOL
REMARK 922        TOTAL FREE ENERGY PREDICTED BY IDOCK:   -4.92 KCAL/MOL
REMARK 923 INTER-LIGAND FREE ENERGY PREDICTED BY IDOCK:   -4.90 KCAL/MOL
REMARK 924 INTRA-LIGAND FREE ENERGY PREDICTED BY IDOCK:   -0.02 KCAL/MOL
REMARK 927      BINDING AFFINITY PREDICTED BY RF-SCORE:    0.00 PKD
ROOT
HETATM    1  C   UNL     1      -7.367  12.202  68.462  1.00  0.00    -0.105 C  
HETATM    2  C   UNL     1      -7.774  10.182  70.012  1.00  0.00    -0.150 C  
HETATM    3  C   UNL     1      -5.848  11.686  70.448  1.00  0.00    -0.156 C  
HETATM    4  C   UNL     1      -6.731  11.088  69.342  1.00  0.00    -0.112 C  
ENDROOT
BRANCH   1   5
HETATM    5  C   UNL     1      -6.304  13.028  67.692  1.00  0.00    -0.161 C  
HETATM    6  H   UNL     1      -6.156  14.829  66.890  1.00  0.00     0.000 HD 
HETATM    7  O   UNL     1      -6.807  14.322  67.361  1.00  0.00    -0.221 OA 
ENDBRANCH   1   5
BRANCH   1   8
HETATM    8  N   UNL     1      -8.401  11.642  67.511  1.00  0.00    -0.144 NA 
HETATM    9  C   UNL     1     -10.469  12.106  66.284  1.00  0.00    -0.270 C  
HETATM   10  C   UNL     1      -9.620  12.291  67.307  1.00  0.00    -0.187 C  
HETATM   11  C   UNL     1     -11.732  12.876  66.241  1.00  0.00    -0.399 C  
HETATM   12  C   UNL     1     -10.068  11.154  65.239  1.00  0.00    -0.276 C  
HETATM   13  C   UNL     1      -8.748  10.499  65.365  1.00  0.00    -0.195 A  
HETATM   14  O   UNL     1     -10.829  10.913  64.303  1.00  0.00    -0.309 OA 
HETATM   15  O   UNL     1     -12.023  13.732  67.064  1.00  0.00    -0.387 OA 
HETATM   16  O   UNL     1     -12.549  12.558  65.214  1.00  0.00    -0.645 OA 
HETATM   17  C   UNL     1      -7.978  10.706  66.523  1.00  0.00    -0.138 A  
HETATM   18  C   UNL     1      -6.810   9.935  66.629  1.00  0.00    -0.084 A  
HETATM   19  C   UNL     1      -6.357   9.084  65.602  1.00  0.00    -0.063 A  
HETATM   20  C   UNL     1      -8.312   9.665  64.323  1.00  0.00    -0.169 A  
HETATM   21  C   UNL     1      -7.106   8.952  64.421  1.00  0.00    -0.089 A  
BRANCH  19  22
HETATM   22  O   UNL     1      -5.219   8.323  65.702  1.00  0.00    -0.031 OA 
HETATM   23  C   UNL     1      -5.141   7.412  66.798  1.00  0.00    -0.023 C  
ENDBRANCH  19  22
BRANCH  21  24
HETATM   24  C   UNL     1      -6.726   7.998  63.308  1.00  0.00    -0.080 C  
BRANCH  24  25
HETATM   25  C   UNL     1      -6.788   6.514  63.594  1.00  0.00    -0.049 A  
HETATM   26  C   UNL     1      -7.734   5.986  64.484  1.00  0.00    -0.100 A  
HETATM   27  C   UNL     1      -7.676   4.649  64.891  1.00  0.00    -0.078 A  
HETATM   28  F   UNL     1      -8.679   6.795  64.991  1.00  0.00    -0.095 F  
HETATM   29  C   UNL     1      -6.667   3.815  64.410  1.00  0.00    -0.044 A  
HETATM   30 CL   UNL     1      -8.815   4.021  66.020  1.00  0.00    -0.116 Cl 
HETATM   31  C   UNL     1      -5.742   4.314  63.493  1.00  0.00    -0.014 A  
HETATM   32  C   UNL     1      -5.809   5.650  63.079  1.00  0.00    -0.014 A  
ENDBRANCH  24  25
ENDBRANCH  21  24
ENDBRANCH   1   8
TORSDOF 5
ENDMDL
MODEL      138
REMARK 921   NORMALIZED FREE ENERGY PREDICTED BY IDOCK:   -2.80 KCAL/MOL
REMARK 922        TOTAL FREE ENERGY PREDICTED BY IDOCK:   -4.76 KCAL/MOL
REMARK 923 INTER-LIGAND FREE ENERGY PREDICTED BY IDOCK:   -4.19 KCAL/MOL
REMARK 924 INTRA-LIGAND FREE ENERGY PREDICTED BY IDOCK:   -0.58 KCAL/MOL
REMARK 927      BINDING AFFINITY PREDICTED BY RF-SCORE:    0.00 PKD
ROOT
HETATM    1  C   UNL     1     -10.604  14.415  68.308  1.00  0.00    -0.243 C  
HETATM    2  C   UNL     1      -9.610  15.593  70.375  1.00  0.00     0.647 C  
HETATM    3  C   UNL     1     -12.065  15.621  70.020  1.00  0.00    -0.379 C  
HETATM    4  C   UNL     1     -10.707  15.609  69.302  1.00  0.00    -0.239 C  
ENDROOT
BRANCH   1   5
HETATM    5  C   UNL     1     -11.640  14.512  67.158  1.00  0.00    -0.388 C  
HETATM    6  H   UNL     1     -12.192  13.431  65.598  1.00  0.00     0.000 HD 
HETATM    7  O   UNL     1     -11.558  13.372  66.303  1.00  0.00    -0.318 OA 
ENDBRANCH   1   5
BRANCH   1   8
HETATM    8  N   UNL     1      -9.204  14.266  67.757  1.00  0.00    -0.189 NA 
HETATM    9  C   UNL     1      -7.107  15.423  67.247  1.00  0.00    -0.206 C  
HETATM   10  C   UNL     1      -8.436  15.384  67.426  1.00  0.00    -0.181 C  
HETATM   11  C   UNL     1      -6.461  16.703  66.880  1.00  0.00    -0.188 C  
HETATM   12  C   UNL     1      -6.361  14.176  67.463  1.00  0.00    -0.007 C  
HETATM   13  C   UNL     1      -7.116  12.980  67.895  1.00  0.00    -0.128 A  
HETATM   14  O   UNL     1      -5.147  14.145  67.269  1.00  0.00    -0.283 OA 
HETATM   15  O   UNL     1      -7.071  17.759  66.788  1.00  0.00    -0.176 OA 
HETATM   16  O   UNL     1      -5.134  16.617  66.649  1.00  0.00    -0.342 OA 
HETATM   17  C   UNL     1      -8.519  13.034  67.969  1.00  0.00    -0.181 A  
HETATM   18  C   UNL     1      -9.166  11.819  68.243  1.00  0.00    -0.188 A  
HETATM   19  C   UNL     1      -8.472  10.631  68.542  1.00  0.00    -0.136 A  
HETATM   20  C   UNL     1      -6.402  11.810  68.199  1.00  0.00    -0.051 A  
HETATM   21  C   UNL     1      -7.067  10.621  68.537  1.00  0.00    -0.069 A  
BRANCH  19  22
HETATM   22  O   UNL     1      -9.100   9.438  68.806  1.00  0.00    -0.131 OA 
HETATM   23  C   UNL     1     -10.119   9.448  69.805  1.00  0.00    -0.211 C  
ENDBRANCH  19  22
BRANCH  21  24
HETATM   24  C   UNL     1      -6.253   9.366  68.769  1.00  0.00    -0.044 C  
BRANCH  24  25
HETATM   25  C   UNL     1      -6.602   8.505  69.963  1.00  0.00    -0.038 A  
HETATM   26  C   UNL     1      -6.807   7.125  69.827  1.00  0.00    -0.050 A  
HETATM   27  C   UNL     1      -7.308   6.361  70.886  1.00  0.00    -0.083 A  
HETATM   28  F   UNL     1      -6.566   6.541  68.642  1.00  0.00    -0.042 F  
HETATM   29  C   UNL     1      -7.610   6.967  72.104  1.00  0.00    -0.091 A  
HETATM   30 CL   UNL     1      -7.600   4.674  70.694  1.00  0.00    -0.053 Cl 
HETATM   31  C   UNL     1      -7.374   8.332  72.270  1.00  0.00    -0.131 A  
HETATM   32  C   UNL     1      -6.862   9.093  71.211  1.00  0.00    -0.070 A  
ENDBRANCH  24  25
ENDBRANCH  21  24
ENDBRANCH   1   8
TORSDOF 5
ENDMDL
MODEL      139
REMARK 921   NORMALIZED FREE ENERGY PREDICTED BY IDOCK:   -2.78 KCAL/MOL
REMARK 922        TOTAL FREE ENERGY PREDICTED BY IDOCK:   -4.73 KCAL/MOL
REMARK 923 INTER-LIGAND FREE ENERGY PREDICTED BY IDOCK:   -6.71 KCAL/MOL
REMARK 924 INTRA-LIGAND FREE ENERGY PREDICTED BY IDOCK:    1.98 KCAL/MOL
REMARK 927      BINDING AFFINITY PREDICTED BY RF-SCORE:    0.00 PKD
ROOT
HETATM    1  C   UNL     1     -11.766  13.666  64.601  1.00  0.00    -0.388 C  
HETATM    2  C   UNL     1     -10.295  12.161  63.111  1.00  0.00    -0.205 C  
HETATM    3  C   UNL     1     -12.708  11.644  63.360  1.00  0.00    -0.250 C  
HETATM    4  C   UNL     1     -11.484  12.227  64.081  1.00  0.00    -0.453 C  
ENDROOT
BRANCH   1   5
HETATM    5  C   UNL     1     -12.886  13.698  65.674  1.00  0.00    -0.371 C  
HETATM    6  H   UNL     1     -13.032  13.508  67.636  1.00  0.00     0.000 HD 
HETATM    7  O   UNL     1     -12.347  13.488  66.979  1.00  0.00    -0.335 OA 
ENDBRANCH   1   5
BRANCH   1   8
HETATM    8  N   UNL     1     -10.510  14.330  65.119  1.00  0.00    -0.386 NA 
HETATM    9  C   UNL     1      -9.541  16.404  65.990  1.00  0.00    -0.352 C  
HETATM   10  C   UNL     1     -10.432  15.717  65.258  1.00  0.00    -0.412 C  
HETATM   11  C   UNL     1      -9.600  17.882  66.006  1.00  0.00    -0.083 C  
HETATM   12  C   UNL     1      -8.565  15.627  66.767  1.00  0.00    -0.274 C  
HETATM   13  C   UNL     1      -8.655  14.151  66.719  1.00  0.00    -0.097 A  
HETATM   14  O   UNL     1      -7.698  16.206  67.419  1.00  0.00    -0.136 OA 
HETATM   15  O   UNL     1     -10.468  18.524  65.430  1.00  0.00    -0.538 OA 
HETATM   16  O   UNL     1      -8.613  18.477  66.709  1.00  0.00    -0.266 OA 
HETATM   17  C   UNL     1      -9.577  13.539  65.851  1.00  0.00    -0.111 A  
HETATM   18  C   UNL     1      -9.497  12.141  65.758  1.00  0.00    -0.156 A  
HETATM   19  C   UNL     1      -8.633  11.368  66.558  1.00  0.00    -0.175 A  
HETATM   20  C   UNL     1      -7.792  13.401  67.534  1.00  0.00    -0.181 A  
HETATM   21  C   UNL     1      -7.775  11.998  67.473  1.00  0.00    -0.155 A  
BRANCH  19  22
HETATM   22  O   UNL     1      -8.546  10.000  66.467  1.00  0.00    -0.125 OA 
HETATM   23  C   UNL     1      -9.769   9.267  66.531  1.00  0.00    -0.240 C  
ENDBRANCH  19  22
BRANCH  21  24
HETATM   24  C   UNL     1      -6.763  11.241  68.308  1.00  0.00    -0.059 C  
BRANCH  24  25
HETATM   25  C   UNL     1      -7.251  10.055  69.110  1.00  0.00    -0.076 A  
HETATM   26  C   UNL     1      -8.474  10.096  69.794  1.00  0.00    -0.128 A  
HETATM   27  C   UNL     1      -8.840   9.078  70.682  1.00  0.00    -0.219 A  
HETATM   28  F   UNL     1      -9.280  11.157  69.631  1.00  0.00     0.047 F  
HETATM   29  C   UNL     1      -7.985   7.998  70.898  1.00  0.00    -0.094 A  
HETATM   30 CL   UNL     1     -10.323   9.160  71.553  1.00  0.00    -0.413 Cl 
HETATM   31  C   UNL     1      -6.783   7.921  70.195  1.00  0.00    -0.038 A  
HETATM   32  C   UNL     1      -6.424   8.936  69.298  1.00  0.00    -0.042 A  
ENDBRANCH  24  25
ENDBRANCH  21  24
ENDBRANCH   1   8
TORSDOF 5
ENDMDL
MODEL      140
REMARK 921   NORMALIZED FREE ENERGY PREDICTED BY IDOCK:   -2.68 KCAL/MOL
REMARK 922        TOTAL FREE ENERGY PREDICTED BY IDOCK:   -4.60 KCAL/MOL
REMARK 923 INTER-LIGAND FREE ENERGY PREDICTED BY IDOCK:   -4.23 KCAL/MOL
REMARK 924 INTRA-LIGAND FREE ENERGY PREDICTED BY IDOCK:   -0.37 KCAL/MOL
REMARK 927      BINDING AFFINITY PREDICTED BY RF-SCORE:    0.00 PKD
ROOT
HETATM    1  C   UNL     1      -9.470   5.242  68.347  1.00  0.00    -0.124 C  
HETATM    2  C   UNL     1      -7.453   3.993  69.357  1.00  0.00    -0.053 C  
HETATM    3  C   UNL     1      -9.705   3.673  70.347  1.00  0.00    -0.201 C  
HETATM    4  C   UNL     1      -8.796   4.684  69.633  1.00  0.00    -0.121 C  
ENDROOT
BRANCH   1   5
HETATM    5  C   UNL     1     -10.760   6.046  68.656  1.00  0.00    -0.297 C  
HETATM    6  H   UNL     1     -12.236   6.882  67.641  1.00  0.00     0.000 HD 
HETATM    7  O   UNL     1     -11.445   6.390  67.452  1.00  0.00    -0.157 OA 
ENDBRANCH   1   5
BRANCH   1   8
HETATM    8  N   UNL     1      -8.508   6.070  67.525  1.00  0.00    -0.108 NA 
HETATM    9  C   UNL     1      -7.818   6.697  65.260  1.00  0.00    -0.110 C  
HETATM   10  C   UNL     1      -8.362   5.856  66.153  1.00  0.00    -0.124 C  
HETATM   11  C   UNL     1      -7.732   6.292  63.840  1.00  0.00    -0.107 C  
HETATM   12  C   UNL     1      -7.361   8.002  65.756  1.00  0.00    -0.079 C  
HETATM   13  C   UNL     1      -7.566   8.313  67.187  1.00  0.00    -0.093 A  
HETATM   14  O   UNL     1      -6.814   8.793  64.990  1.00  0.00    -0.071 OA 
HETATM   15  O   UNL     1      -8.193   5.242  63.413  1.00  0.00    -0.110 OA 
HETATM   16  O   UNL     1      -7.098   7.175  63.040  1.00  0.00    -0.055 OA 
HETATM   17  C   UNL     1      -8.072   7.322  68.048  1.00  0.00    -0.120 A  
HETATM   18  C   UNL     1      -8.097   7.649  69.412  1.00  0.00    -0.127 A  
HETATM   19  C   UNL     1      -7.751   8.923  69.901  1.00  0.00    -0.076 A  
HETATM   20  C   UNL     1      -7.225   9.594  67.651  1.00  0.00    -0.089 A  
HETATM   21  C   UNL     1      -7.321   9.922  69.012  1.00  0.00    -0.080 A  
BRANCH  19  22
HETATM   22  O   UNL     1      -7.769   9.247  71.236  1.00  0.00    -0.314 OA 
HETATM   23  C   UNL     1      -8.193   8.232  72.145  1.00  0.00    -0.157 C  
ENDBRANCH  19  22
BRANCH  21  24
HETATM   24  C   UNL     1      -6.857  11.288  69.472  1.00  0.00    -0.115 C  
BRANCH  24  25
HETATM   25  C   UNL     1      -7.381  12.500  68.736  1.00  0.00    -0.070 A  
HETATM   26  C   UNL     1      -8.722  12.581  68.335  1.00  0.00    -0.122 A  
HETATM   27  C   UNL     1      -9.165  13.611  67.497  1.00  0.00    -0.218 A  
HETATM   28  F   UNL     1      -9.580  11.624  68.723  1.00  0.00    -0.191 F  
HETATM   29  C   UNL     1      -8.270  14.580  67.048  1.00  0.00    -0.164 A  
HETATM   30 CL   UNL     1     -10.805  13.676  66.973  1.00  0.00    -0.285 Cl 
HETATM   31  C   UNL     1      -6.941  14.538  67.470  1.00  0.00    -0.188 A  
HETATM   32  C   UNL     1      -6.503  13.512  68.317  1.00  0.00    -0.104 A  
ENDBRANCH  24  25
ENDBRANCH  21  24
ENDBRANCH   1   8
TORSDOF 5
ENDMDL
MODEL      141
REMARK 921   NORMALIZED FREE ENERGY PREDICTED BY IDOCK:   -2.64 KCAL/MOL
REMARK 922        TOTAL FREE ENERGY PREDICTED BY IDOCK:   -4.55 KCAL/MOL
REMARK 923 INTER-LIGAND FREE ENERGY PREDICTED BY IDOCK:   -4.28 KCAL/MOL
REMARK 924 INTRA-LIGAND FREE ENERGY PREDICTED BY IDOCK:   -0.27 KCAL/MOL
REMARK 927      BINDING AFFINITY PREDICTED BY RF-SCORE:    0.00 PKD
ROOT
HETATM    1  C   UNL     1     -10.798   9.521  70.848  1.00  0.00    -0.337 C  
HETATM    2  C   UNL     1     -13.187   8.571  71.038  1.00  0.00     0.084 C  
HETATM    3  C   UNL     1     -11.539   8.090  72.828  1.00  0.00    -0.390 C  
HETATM    4  C   UNL     1     -11.696   8.342  71.321  1.00  0.00    -0.318 C  
ENDROOT
BRANCH   1   5
HETATM    5  C   UNL     1      -9.286   9.222  71.026  1.00  0.00    -0.227 C  
HETATM    6  H   UNL     1      -7.583   9.771  70.187  1.00  0.00     0.000 HD 
HETATM    7  O   UNL     1      -8.509   9.954  70.078  1.00  0.00    -0.193 OA 
ENDBRANCH   1   5
BRANCH   1   8
HETATM    8  N   UNL     1     -11.101   9.918  69.421  1.00  0.00    -0.223 NA 
HETATM    9  C   UNL     1     -11.306  11.786  67.850  1.00  0.00    -0.362 C  
HETATM   10  C   UNL     1     -11.349  11.249  69.080  1.00  0.00    -0.278 C  
HETATM   11  C   UNL     1     -11.617  13.222  67.675  1.00  0.00    -0.346 C  
HETATM   12  C   UNL     1     -10.914  10.904  66.743  1.00  0.00    -0.185 C  
HETATM   13  C   UNL     1     -10.561   9.503  67.061  1.00  0.00    -0.271 A  
HETATM   14  O   UNL     1     -10.901  11.333  65.590  1.00  0.00    -0.250 OA 
HETATM   15  O   UNL     1     -11.855  13.975  68.608  1.00  0.00    -0.326 OA 
HETATM   16  O   UNL     1     -11.620  13.643  66.392  1.00  0.00    -0.323 OA 
HETATM   17  C   UNL     1     -10.724   9.027  68.374  1.00  0.00    -0.096 A  
HETATM   18  C   UNL     1     -10.507   7.653  68.560  1.00  0.00    -0.206 A  
HETATM   19  C   UNL     1     -10.045   6.805  67.536  1.00  0.00    -0.170 A  
HETATM   20  C   UNL     1     -10.090   8.679  66.027  1.00  0.00     0.038 A  
HETATM   21  C   UNL     1      -9.815   7.320  66.249  1.00  0.00    -0.029 A  
BRANCH  19  22
HETATM   22  O   UNL     1      -9.836   5.458  67.710  1.00  0.00    -0.129 OA 
HETATM   23  C   UNL     1      -8.881   5.072  68.697  1.00  0.00    -0.097 C  
ENDBRANCH  19  22
BRANCH  21  24
HETATM   24  C   UNL     1      -9.396   6.456  65.080  1.00  0.00     0.785 C  
BRANCH  24  25
HETATM   25  C   UNL     1      -7.921   6.168  64.903  1.00  0.00    -0.123 A  
HETATM   26  C   UNL     1      -7.373   4.934  65.281  1.00  0.00    -0.072 A  
HETATM   27  C   UNL     1      -5.989   4.732  65.293  1.00  0.00    -0.022 A  
HETATM   28  F   UNL     1      -8.192   3.951  65.688  1.00  0.00    -0.101 F  
HETATM   29  C   UNL     1      -5.128   5.764  64.922  1.00  0.00    -0.009 A  
HETATM   30 CL   UNL     1      -5.323   3.227  65.804  1.00  0.00    -0.009 Cl 
HETATM   31  C   UNL     1      -5.658   6.984  64.504  1.00  0.00    -0.032 A  
HETATM   32  C   UNL     1      -7.045   7.181  64.483  1.00  0.00    -0.058 A  
ENDBRANCH  24  25
ENDBRANCH  21  24
ENDBRANCH   1   8
TORSDOF 5
ENDMDL
MODEL      142
REMARK 921   NORMALIZED FREE ENERGY PREDICTED BY IDOCK:   -2.61 KCAL/MOL
REMARK 922        TOTAL FREE ENERGY PREDICTED BY IDOCK:   -4.52 KCAL/MOL
REMARK 923 INTER-LIGAND FREE ENERGY PREDICTED BY IDOCK:   -3.73 KCAL/MOL
REMARK 924 INTRA-LIGAND FREE ENERGY PREDICTED BY IDOCK:   -0.78 KCAL/MOL
REMARK 927      BINDING AFFINITY PREDICTED BY RF-SCORE:    0.00 PKD
ROOT
HETATM    1  C   UNL     1     -10.829  15.158  67.270  1.00  0.00    -0.316 C  
HETATM    2  C   UNL     1     -10.547  14.527  69.755  1.00  0.00    -0.013 C  
HETATM    3  C   UNL     1     -12.761  15.289  68.935  1.00  0.00     0.549 C  
HETATM    4  C   UNL     1     -11.245  15.446  68.742  1.00  0.00    -0.305 C  
ENDROOT
BRANCH   1   5
HETATM    5  C   UNL     1     -11.444  16.173  66.272  1.00  0.00     0.551 C  
HETATM    6  H   UNL     1     -11.410  16.505  64.324  1.00  0.00     0.000 HD 
HETATM    7  O   UNL     1     -11.034  15.884  64.936  1.00  0.00    -0.443 OA 
ENDBRANCH   1   5
BRANCH   1   8
HETATM    8  N   UNL     1      -9.326  15.097  67.115  1.00  0.00    -0.206 NA 
HETATM    9  C   UNL     1      -7.207  16.234  67.579  1.00  0.00    -0.179 C  
HETATM   10  C   UNL     1      -8.531  16.218  67.358  1.00  0.00    -0.172 C  
HETATM   11  C   UNL     1      -6.523  17.526  67.802  1.00  0.00    -0.154 C  
HETATM   12  C   UNL     1      -6.515  14.938  67.617  1.00  0.00    -0.145 C  
HETATM   13  C   UNL     1      -7.325  13.712  67.447  1.00  0.00    -0.127 A  
HETATM   14  O   UNL     1      -5.296  14.896  67.771  1.00  0.00    -0.243 OA 
HETATM   15  O   UNL     1      -7.114  18.596  67.859  1.00  0.00    -0.227 OA 
HETATM   16  O   UNL     1      -5.183  17.438  67.938  1.00  0.00    -0.118 OA 
HETATM   17  C   UNL     1      -8.693  13.820  67.137  1.00  0.00    -0.221 A  
HETATM   18  C   UNL     1      -9.354  12.617  66.848  1.00  0.00    -0.228 A  
HETATM   19  C   UNL     1      -8.737  11.357  66.965  1.00  0.00    -0.160 A  
HETATM   20  C   UNL     1      -6.692  12.466  67.580  1.00  0.00    -0.132 A  
HETATM   21  C   UNL     1      -7.389  11.269  67.351  1.00  0.00    -0.115 A  
BRANCH  19  22
HETATM   22  O   UNL     1      -9.377  10.176  66.678  1.00  0.00    -0.156 OA 
HETATM   23  C   UNL     1     -10.770  10.102  66.979  1.00  0.00    -0.196 C  
ENDBRANCH  19  22
BRANCH  21  24
HETATM   24  C   UNL     1      -6.637   9.957  67.421  1.00  0.00    -0.069 C  
BRANCH  24  25
HETATM   25  C   UNL     1      -7.276   8.812  68.174  1.00  0.00    -0.083 A  
HETATM   26  C   UNL     1      -7.660   8.951  69.515  1.00  0.00    -0.080 A  
HETATM   27  C   UNL     1      -8.079   7.846  70.265  1.00  0.00    -0.115 A  
HETATM   28  F   UNL     1      -7.576  10.157  70.098  1.00  0.00    -0.142 F  
HETATM   29  C   UNL     1      -8.120   6.581  69.682  1.00  0.00    -0.125 A  
HETATM   30 CL   UNL     1      -8.505   8.020  71.925  1.00  0.00    -0.157 Cl 
HETATM   31  C   UNL     1      -7.779   6.432  68.338  1.00  0.00    -0.104 A  
HETATM   32  C   UNL     1      -7.372   7.541  67.586  1.00  0.00    -0.103 A  
ENDBRANCH  24  25
ENDBRANCH  21  24
ENDBRANCH   1   8
TORSDOF 5
ENDMDL
MODEL      143
REMARK 921   NORMALIZED FREE ENERGY PREDICTED BY IDOCK:   -2.58 KCAL/MOL
REMARK 922        TOTAL FREE ENERGY PREDICTED BY IDOCK:   -4.47 KCAL/MOL
REMARK 923 INTER-LIGAND FREE ENERGY PREDICTED BY IDOCK:   -4.43 KCAL/MOL
REMARK 924 INTRA-LIGAND FREE ENERGY PREDICTED BY IDOCK:   -0.05 KCAL/MOL
REMARK 927      BINDING AFFINITY PREDICTED BY RF-SCORE:    0.00 PKD
ROOT
HETATM    1  C   UNL     1      -7.510   9.778  69.579  1.00  0.00    -0.101 C  
HETATM    2  C   UNL     1      -5.219   8.599  69.483  1.00  0.00    -0.031 C  
HETATM    3  C   UNL     1      -5.463  10.869  68.512  1.00  0.00    -0.040 C  
HETATM    4  C   UNL     1      -6.198   9.546  68.775  1.00  0.00    -0.043 C  
ENDROOT
BRANCH   1   5
HETATM    5  C   UNL     1      -8.540  10.634  68.797  1.00  0.00    -0.150 C  
HETATM    6  H   UNL     1     -10.482  10.996  68.859  1.00  0.00     0.000 HD 
HETATM    7  O   UNL     1      -9.851  10.472  69.338  1.00  0.00    -0.221 OA 
ENDBRANCH   1   5
BRANCH   1   8
HETATM    8  N   UNL     1      -8.129   8.474  70.029  1.00  0.00    -0.107 NA 
HETATM    9  C   UNL     1      -9.366   7.341  71.813  1.00  0.00    -0.161 C  
HETATM   10  C   UNL     1      -8.528   8.283  71.353  1.00  0.00    -0.138 C  
HETATM   11  C   UNL     1      -9.663   7.280  73.261  1.00  0.00    -0.232 C  
HETATM   12  C   UNL     1      -9.969   6.435  70.826  1.00  0.00    -0.185 C  
HETATM   13  C   UNL     1      -9.643   6.645  69.399  1.00  0.00    -0.148 A  
HETATM   14  O   UNL     1     -10.709   5.526  71.199  1.00  0.00    -0.247 OA 
HETATM   15  O   UNL     1      -9.231   8.090  74.069  1.00  0.00    -0.166 OA 
HETATM   16  O   UNL     1     -10.454   6.250  73.629  1.00  0.00    -0.244 OA 
HETATM   17  C   UNL     1      -8.686   7.611  69.040  1.00  0.00    -0.136 A  
HETATM   18  C   UNL     1      -8.328   7.645  67.683  1.00  0.00    -0.118 A  
HETATM   19  C   UNL     1      -8.956   6.851  66.705  1.00  0.00    -0.132 A  
HETATM   20  C   UNL     1     -10.290   5.850  68.440  1.00  0.00    -0.261 A  
HETATM   21  C   UNL     1      -9.964   5.947  67.078  1.00  0.00    -0.195 A  
BRANCH  19  22
HETATM   22  O   UNL     1      -8.606   6.876  65.377  1.00  0.00    -0.131 OA 
HETATM   23  C   UNL     1      -7.250   6.565  65.057  1.00  0.00    -0.067 C  
ENDBRANCH  19  22
BRANCH  21  24
HETATM   24  C   UNL     1     -10.627   5.004  66.096  1.00  0.00    -0.321 C  
BRANCH  24  25
HETATM   25  C   UNL     1      -9.767   3.955  65.428  1.00  0.00    -0.181 A  
HETATM   26  C   UNL     1      -8.765   3.279  66.138  1.00  0.00    -0.128 A  
HETATM   27  C   UNL     1      -7.850   2.448  65.483  1.00  0.00    -0.078 A  
HETATM   28  F   UNL     1      -8.655   3.475  67.462  1.00  0.00    -0.091 F  
HETATM   29  C   UNL     1      -7.924   2.279  64.101  1.00  0.00    -0.077 A  
HETATM   30 CL   UNL     1      -6.594   1.657  66.358  1.00  0.00    -0.026 Cl 
HETATM   31  C   UNL     1      -8.939   2.912  63.385  1.00  0.00    -0.091 A  
HETATM   32  C   UNL     1      -9.861   3.735  64.045  1.00  0.00    -0.179 A  
ENDBRANCH  24  25
ENDBRANCH  21  24
ENDBRANCH   1   8
TORSDOF 5
ENDMDL
MODEL      144
REMARK 921   NORMALIZED FREE ENERGY PREDICTED BY IDOCK:   -2.53 KCAL/MOL
REMARK 922        TOTAL FREE ENERGY PREDICTED BY IDOCK:   -4.40 KCAL/MOL
REMARK 923 INTER-LIGAND FREE ENERGY PREDICTED BY IDOCK:   -4.71 KCAL/MOL
REMARK 924 INTRA-LIGAND FREE ENERGY PREDICTED BY IDOCK:    0.31 KCAL/MOL
REMARK 927      BINDING AFFINITY PREDICTED BY RF-SCORE:    0.00 PKD
ROOT
HETATM    1  C   UNL     1     -10.521   6.816  71.367  1.00  0.00    -0.215 C  
HETATM    2  C   UNL     1      -8.567   5.183  70.961  1.00  0.00    -0.130 C  
HETATM    3  C   UNL     1     -10.840   4.283  71.383  1.00  0.00     0.644 C  
HETATM    4  C   UNL     1      -9.883   5.439  71.710  1.00  0.00    -0.223 C  
ENDROOT
BRANCH   1   5
HETATM    5  C   UNL     1     -11.779   7.115  72.223  1.00  0.00    -0.258 C  
HETATM    6  H   UNL     1     -12.346   8.448  73.568  1.00  0.00     0.000 HD 
HETATM    7  O   UNL     1     -11.575   8.264  73.044  1.00  0.00    -0.252 OA 
ENDBRANCH   1   5
BRANCH   1   8
HETATM    8  N   UNL     1      -9.517   7.942  71.481  1.00  0.00    -0.144 NA 
HETATM    9  C   UNL     1      -7.304   8.591  72.306  1.00  0.00    -0.095 C  
HETATM   10  C   UNL     1      -8.421   7.846  72.340  1.00  0.00    -0.141 C  
HETATM   11  C   UNL     1      -6.246   8.359  73.314  1.00  0.00    -0.102 C  
HETATM   12  C   UNL     1      -7.190   9.585  71.230  1.00  0.00     0.197 C  
HETATM   13  C   UNL     1      -8.289   9.672  70.244  1.00  0.00    -0.216 A  
HETATM   14  O   UNL     1      -6.209  10.325  71.179  1.00  0.00    -0.313 OA 
HETATM   15  O   UNL     1      -6.304   7.471  74.153  1.00  0.00    -0.076 OA 
HETATM   16  O   UNL     1      -5.202   9.211  73.239  1.00  0.00    -0.085 OA 
HETATM   17  C   UNL     1      -9.449   8.899  70.427  1.00  0.00    -0.195 A  
HETATM   18  C   UNL     1     -10.500   9.148  69.530  1.00  0.00    -0.226 A  
HETATM   19  C   UNL     1     -10.383  10.029  68.439  1.00  0.00    -0.191 A  
HETATM   20  C   UNL     1      -8.145  10.548  69.156  1.00  0.00    -0.152 A  
HETATM   21  C   UNL     1      -9.185  10.734  68.232  1.00  0.00    -0.157 A  
BRANCH  19  22
HETATM   22  O   UNL     1     -11.410  10.282  67.562  1.00  0.00    -0.335 OA 
HETATM   23  C   UNL     1     -12.101  11.521  67.711  1.00  0.00     0.189 C  
ENDBRANCH  19  22
BRANCH  21  24
HETATM   24  C   UNL     1      -9.013  11.756  67.129  1.00  0.00    -0.177 C  
BRANCH  24  25
HETATM   25  C   UNL     1      -9.357  11.341  65.716  1.00  0.00    -0.245 A  
HETATM   26  C   UNL     1      -8.858  10.152  65.167  1.00  0.00    -0.183 A  
HETATM   27  C   UNL     1      -9.021   9.858  63.809  1.00  0.00    -0.250 A  
HETATM   28  F   UNL     1      -8.167   9.309  65.952  1.00  0.00    -0.108 F  
HETATM   29  C   UNL     1      -9.691  10.752  62.976  1.00  0.00    -0.374 A  
HETATM   30 CL   UNL     1      -8.363   8.416  63.135  1.00  0.00    -0.132 Cl 
HETATM   31  C   UNL     1     -10.230  11.921  63.514  1.00  0.00    -0.485 A  
HETATM   32  C   UNL     1     -10.074  12.208  64.876  1.00  0.00    -0.280 A  
ENDBRANCH  24  25
ENDBRANCH  21  24
ENDBRANCH   1   8
TORSDOF 5
ENDMDL
MODEL      145
REMARK 921   NORMALIZED FREE ENERGY PREDICTED BY IDOCK:   -2.42 KCAL/MOL
REMARK 922        TOTAL FREE ENERGY PREDICTED BY IDOCK:   -4.27 KCAL/MOL
REMARK 923 INTER-LIGAND FREE ENERGY PREDICTED BY IDOCK:   -5.59 KCAL/MOL
REMARK 924 INTRA-LIGAND FREE ENERGY PREDICTED BY IDOCK:    1.31 KCAL/MOL
REMARK 927      BINDING AFFINITY PREDICTED BY RF-SCORE:    0.00 PKD
ROOT
HETATM    1  C   UNL     1     -11.509  13.000  70.230  1.00  0.00     0.184 C  
HETATM    2  C   UNL     1     -10.330  14.798  68.807  1.00  0.00    -0.248 C  
HETATM    3  C   UNL     1     -12.237  15.447  70.254  1.00  0.00    -0.414 C  
HETATM    4  C   UNL     1     -11.658  14.308  69.401  1.00  0.00    -0.354 C  
ENDROOT
BRANCH   1   5
HETATM    5  C   UNL     1     -12.874  12.449  70.718  1.00  0.00    -0.015 C  
HETATM    6  H   UNL     1     -13.850  12.277  72.428  1.00  0.00     0.000 HD 
HETATM    7  O   UNL     1     -13.014  12.613  72.129  1.00  0.00    -0.328 OA 
ENDBRANCH   1   5
BRANCH   1   8
HETATM    8  N   UNL     1     -10.745  11.940  69.469  1.00  0.00     0.046 NA 
HETATM    9  C   UNL     1      -8.661  11.411  68.296  1.00  0.00    -0.160 C  
HETATM   10  C   UNL     1      -9.602  12.261  68.734  1.00  0.00     0.062 C  
HETATM   11  C   UNL     1      -7.520  11.932  67.513  1.00  0.00    -0.136 C  
HETATM   12  C   UNL     1      -8.813   9.994  68.656  1.00  0.00    -0.132 C  
HETATM   13  C   UNL     1      -9.964   9.611  69.503  1.00  0.00    -0.223 A  
HETATM   14  O   UNL     1      -8.004   9.165  68.243  1.00  0.00    -0.102 OA 
HETATM   15  O   UNL     1      -7.348  13.123  67.290  1.00  0.00    -0.137 OA 
HETATM   16  O   UNL     1      -6.673  10.986  67.054  1.00  0.00    -0.091 OA 
HETATM   17  C   UNL     1     -10.933  10.574  69.834  1.00  0.00    -0.298 A  
HETATM   18  C   UNL     1     -12.065  10.098  70.514  1.00  0.00    -0.380 A  
HETATM   19  C   UNL     1     -12.192   8.765  70.949  1.00  0.00    -0.116 A  
HETATM   20  C   UNL     1     -10.064   8.279  69.935  1.00  0.00    -0.195 A  
HETATM   21  C   UNL     1     -11.174   7.837  70.673  1.00  0.00    -0.278 A  
BRANCH  19  22
HETATM   22  O   UNL     1     -13.299   8.291  71.610  1.00  0.00    -0.333 OA 
HETATM   23  C   UNL     1     -14.061   9.236  72.360  1.00  0.00    -0.284 C  
ENDBRANCH  19  22
BRANCH  21  24
HETATM   24  C   UNL     1     -11.275   6.371  71.037  1.00  0.00    -0.370 C  
BRANCH  24  25
HETATM   25  C   UNL     1     -10.314   5.829  72.072  1.00  0.00    -0.254 A  
HETATM   26  C   UNL     1      -9.623   4.628  71.860  1.00  0.00    -0.154 A  
HETATM   27  C   UNL     1      -8.880   4.032  72.885  1.00  0.00    -0.099 A  
HETATM   28  F   UNL     1      -9.721   4.018  70.668  1.00  0.00    -0.222 F  
HETATM   29  C   UNL     1      -8.816   4.631  74.141  1.00  0.00    -0.109 A  
HETATM   30 CL   UNL     1      -8.072   2.532  72.629  1.00  0.00    -0.054 Cl 
HETATM   31  C   UNL     1      -9.464   5.847  74.357  1.00  0.00    -0.164 A  
HETATM   32  C   UNL     1     -10.198   6.448  73.326  1.00  0.00    -0.230 A  
ENDBRANCH  24  25
ENDBRANCH  21  24
ENDBRANCH   1   8
TORSDOF 5
ENDMDL
MODEL      146
REMARK 921   NORMALIZED FREE ENERGY PREDICTED BY IDOCK:   -2.36 KCAL/MOL
REMARK 922        TOTAL FREE ENERGY PREDICTED BY IDOCK:   -4.19 KCAL/MOL
REMARK 923 INTER-LIGAND FREE ENERGY PREDICTED BY IDOCK:   -5.13 KCAL/MOL
REMARK 924 INTRA-LIGAND FREE ENERGY PREDICTED BY IDOCK:    0.94 KCAL/MOL
REMARK 927      BINDING AFFINITY PREDICTED BY RF-SCORE:    0.00 PKD
ROOT
HETATM    1  C   UNL     1      -7.779  11.207  67.883  1.00  0.00    -0.105 C  
HETATM    2  C   UNL     1      -6.826   9.963  65.835  1.00  0.00    -0.101 C  
HETATM    3  C   UNL     1      -6.120   9.280  68.114  1.00  0.00    -0.053 C  
HETATM    4  C   UNL     1      -6.556  10.478  67.256  1.00  0.00    -0.072 C  
ENDROOT
BRANCH   1   5
HETATM    5  C   UNL     1      -7.452  11.831  69.264  1.00  0.00     0.112 C  
HETATM    6  H   UNL     1      -5.878  12.019  70.444  1.00  0.00     0.000 HD 
HETATM    7  O   UNL     1      -6.078  11.636  69.598  1.00  0.00    -0.089 OA 
ENDBRANCH   1   5
BRANCH   1   8
HETATM    8  N   UNL     1      -8.349  12.249  66.946  1.00  0.00    -0.168 NA 
HETATM    9  C   UNL     1     -10.317  12.942  65.664  1.00  0.00    -0.295 C  
HETATM   10  C   UNL     1      -9.538  12.020  66.251  1.00  0.00    -0.231 C  
HETATM   11  C   UNL     1     -11.540  12.511  64.952  1.00  0.00    -0.341 C  
HETATM   12  C   UNL     1      -9.913  14.348  65.795  1.00  0.00    -0.329 C  
HETATM   13  C   UNL     1      -8.704  14.653  66.591  1.00  0.00    -0.197 A  
HETATM   14  O   UNL     1     -10.565  15.230  65.238  1.00  0.00    -0.355 OA 
HETATM   15  O   UNL     1     -11.923  11.349  64.920  1.00  0.00     0.086 OA 
HETATM   16  O   UNL     1     -12.210  13.505  64.332  1.00  0.00    -0.431 OA 
HETATM   17  C   UNL     1      -7.918  13.600  67.091  1.00  0.00    -0.041 A  
HETATM   18  C   UNL     1      -6.713  13.972  67.708  1.00  0.00    -0.188 A  
HETATM   19  C   UNL     1      -6.347  15.314  67.925  1.00  0.00    -0.157 A  
HETATM   20  C   UNL     1      -8.365  15.998  66.806  1.00  0.00    -0.305 A  
HETATM   21  C   UNL     1      -7.187  16.350  67.484  1.00  0.00    -0.171 A  
BRANCH  19  22
HETATM   22  O   UNL     1      -5.167  15.685  68.523  1.00  0.00    -0.090 OA 
HETATM   23  C   UNL     1      -5.220  16.024  69.908  1.00  0.00    -0.131 C  
ENDBRANCH  19  22
BRANCH  21  24
HETATM   24  C   UNL     1      -6.823  17.814  67.611  1.00  0.00    -0.189 C  
BRANCH  24  25
HETATM   25  C   UNL     1      -7.915  18.838  67.395  1.00  0.00    -0.254 A  
HETATM   26  C   UNL     1      -8.594  19.413  68.478  1.00  0.00    -0.364 A  
HETATM   27  C   UNL     1      -9.723  20.216  68.280  1.00  0.00    -0.252 A  
HETATM   28  F   UNL     1      -8.180  19.144  69.727  1.00  0.00     0.058 F  
HETATM   29  C   UNL     1     -10.190  20.458  66.989  1.00  0.00    -0.421 A  
HETATM   30 CL   UNL     1     -10.577  20.880  69.620  1.00  0.00     0.491 Cl 
HETATM   31  C   UNL     1      -9.502  19.927  65.898  1.00  0.00    -0.294 A  
HETATM   32  C   UNL     1      -8.366  19.133  66.099  1.00  0.00    -0.254 A  
ENDBRANCH  24  25
ENDBRANCH  21  24
ENDBRANCH   1   8
TORSDOF 5
ENDMDL
MODEL      147
REMARK 921   NORMALIZED FREE ENERGY PREDICTED BY IDOCK:   -2.33 KCAL/MOL
REMARK 922        TOTAL FREE ENERGY PREDICTED BY IDOCK:   -4.15 KCAL/MOL
REMARK 923 INTER-LIGAND FREE ENERGY PREDICTED BY IDOCK:   -5.65 KCAL/MOL
REMARK 924 INTRA-LIGAND FREE ENERGY PREDICTED BY IDOCK:    1.51 KCAL/MOL
REMARK 927      BINDING AFFINITY PREDICTED BY RF-SCORE:    0.00 PKD
ROOT
HETATM    1  C   UNL     1     -12.647  14.419  69.816  1.00  0.00    -0.115 C  
HETATM    2  C   UNL     1     -11.044  12.401  69.889  1.00  0.00     0.220 C  
HETATM    3  C   UNL     1     -12.723  12.689  71.692  1.00  0.00    -0.292 C  
HETATM    4  C   UNL     1     -11.821  13.444  70.704  1.00  0.00    -0.163 C  
ENDROOT
BRANCH   1   5
HETATM    5  C   UNL     1     -13.325  15.542  70.643  1.00  0.00    -0.148 C  
HETATM    6  H   UNL     1     -12.934  16.595  72.269  1.00  0.00     0.000 HD 
HETATM    7  O   UNL     1     -12.519  15.906  71.763  1.00  0.00    -0.429 OA 
ENDBRANCH   1   5
BRANCH   1   8
HETATM    8  N   UNL     1     -11.810  15.005  68.701  1.00  0.00    -0.320 NA 
HETATM    9  C   UNL     1     -10.265  16.798  68.073  1.00  0.00    -0.300 C  
HETATM   10  C   UNL     1     -11.267  16.287  68.805  1.00  0.00    -0.343 C  
HETATM   11  C   UNL     1      -9.828  18.191  68.313  1.00  0.00    -0.351 C  
HETATM   12  C   UNL     1      -9.633  15.913  67.085  1.00  0.00    -0.218 C  
HETATM   13  C   UNL     1     -10.116  14.519  66.990  1.00  0.00    -0.254 A  
HETATM   14  O   UNL     1      -8.740  16.344  66.356  1.00  0.00    -0.260 OA 
HETATM   15  O   UNL     1     -10.295  18.897  69.196  1.00  0.00    -0.204 OA 
HETATM   16  O   UNL     1      -8.868  18.632  67.472  1.00  0.00    -0.267 OA 
HETATM   17  C   UNL     1     -11.230  14.117  67.749  1.00  0.00    -0.287 A  
HETATM   18  C   UNL     1     -11.713  12.824  67.493  1.00  0.00    -0.422 A  
HETATM   19  C   UNL     1     -11.072  11.926  66.618  1.00  0.00    -0.310 A  
HETATM   20  C   UNL     1      -9.454  13.637  66.121  1.00  0.00    -0.166 A  
HETATM   21  C   UNL     1      -9.916  12.326  65.928  1.00  0.00    -0.272 A  
BRANCH  19  22
HETATM   22  O   UNL     1     -11.544  10.663  66.358  1.00  0.00     0.146 OA 
HETATM   23  C   UNL     1     -11.151   9.626  67.257  1.00  0.00     0.120 C  
ENDBRANCH  19  22
BRANCH  21  24
HETATM   24  C   UNL     1      -9.219  11.445  64.912  1.00  0.00    -0.074 C  
BRANCH  24  25
HETATM   25  C   UNL     1      -8.307  10.354  65.426  1.00  0.00    -0.166 A  
HETATM   26  C   UNL     1      -8.240   9.106  64.790  1.00  0.00    -0.149 A  
HETATM   27  C   UNL     1      -7.543   8.038  65.366  1.00  0.00    -0.083 A  
HETATM   28  F   UNL     1      -8.900   8.923  63.635  1.00  0.00    -0.192 F  
HETATM   29  C   UNL     1      -6.898   8.203  66.590  1.00  0.00    -0.068 A  
HETATM   30 CL   UNL     1      -7.506   6.495  64.600  1.00  0.00    -0.082 Cl 
HETATM   31  C   UNL     1      -6.921   9.449  67.216  1.00  0.00    -0.085 A  
HETATM   32  C   UNL     1      -7.610  10.520  66.633  1.00  0.00    -0.120 A  
ENDBRANCH  24  25
ENDBRANCH  21  24
ENDBRANCH   1   8
TORSDOF 5
ENDMDL
MODEL      148
REMARK 921   NORMALIZED FREE ENERGY PREDICTED BY IDOCK:   -2.30 KCAL/MOL
REMARK 922        TOTAL FREE ENERGY PREDICTED BY IDOCK:   -4.12 KCAL/MOL
REMARK 923 INTER-LIGAND FREE ENERGY PREDICTED BY IDOCK:   -4.06 KCAL/MOL
REMARK 924 INTRA-LIGAND FREE ENERGY PREDICTED BY IDOCK:   -0.06 KCAL/MOL
REMARK 927      BINDING AFFINITY PREDICTED BY RF-SCORE:    0.00 PKD
ROOT
HETATM    1  C   UNL     1      -6.631   7.874  65.399  1.00  0.00    -0.045 C  
HETATM    2  C   UNL     1      -6.224   8.262  67.915  1.00  0.00    -0.052 C  
HETATM    3  C   UNL     1      -5.125   9.748  66.259  1.00  0.00    -0.038 C  
HETATM    4  C   UNL     1      -5.627   8.316  66.502  1.00  0.00    -0.035 C  
ENDROOT
BRANCH   1   5
HETATM    5  C   UNL     1      -5.978   7.813  63.994  1.00  0.00    -0.053 C  
HETATM    6  H   UNL     1      -6.519   7.334  62.154  1.00  0.00     0.000 HD 
HETATM    7  O   UNL     1      -6.918   7.371  63.015  1.00  0.00    -0.063 OA 
ENDBRANCH   1   5
BRANCH   1   8
HETATM    8  N   UNL     1      -7.293   6.558  65.740  1.00  0.00    -0.077 NA 
HETATM    9  C   UNL     1      -6.976   4.138  65.941  1.00  0.00    -0.066 C  
HETATM   10  C   UNL     1      -6.684   5.342  65.425  1.00  0.00    -0.045 C  
HETATM   11  C   UNL     1      -6.233   2.948  65.473  1.00  0.00    -0.024 C  
HETATM   12  C   UNL     1      -8.015   4.084  66.980  1.00  0.00    -0.096 C  
HETATM   13  C   UNL     1      -8.636   5.356  67.408  1.00  0.00    -0.108 A  
HETATM   14  O   UNL     1      -8.353   3.001  67.454  1.00  0.00    -0.081 OA 
HETATM   15  O   UNL     1      -5.308   3.006  64.675  1.00  0.00    -0.008 OA 
HETATM   16  O   UNL     1      -6.656   1.778  65.997  1.00  0.00    -0.023 OA 
HETATM   17  C   UNL     1      -8.310   6.548  66.738  1.00  0.00    -0.111 A  
HETATM   18  C   UNL     1      -9.051   7.682  67.109  1.00  0.00    -0.146 A  
HETATM   19  C   UNL     1      -9.986   7.676  68.161  1.00  0.00    -0.175 A  
HETATM   20  C   UNL     1      -9.556   5.328  68.468  1.00  0.00    -0.180 A  
HETATM   21  C   UNL     1     -10.238   6.488  68.867  1.00  0.00    -0.206 A  
BRANCH  19  22
HETATM   22  O   UNL     1     -10.717   8.780  68.524  1.00  0.00    -0.168 OA 
HETATM   23  C   UNL     1     -10.055  10.044  68.469  1.00  0.00    -0.169 C  
ENDBRANCH  19  22
BRANCH  21  24
HETATM   24  C   UNL     1     -11.286   6.386  69.956  1.00  0.00    -0.475 C  
BRANCH  24  25
HETATM   25  C   UNL     1     -10.816   6.135  71.371  1.00  0.00    -0.319 A  
HETATM   26  C   UNL     1     -10.563   4.835  71.832  1.00  0.00    -0.080 A  
HETATM   27  C   UNL     1     -10.309   4.584  73.185  1.00  0.00    -0.180 A  
HETATM   28  F   UNL     1     -10.617   3.812  70.964  1.00  0.00     0.080 F  
HETATM   29  C   UNL     1     -10.303   5.634  74.101  1.00  0.00    -0.299 A  
HETATM   30 CL   UNL     1     -10.045   2.978  73.748  1.00  0.00    -0.163 Cl 
HETATM   31  C   UNL     1     -10.512   6.938  73.654  1.00  0.00    -0.400 A  
HETATM   32  C   UNL     1     -10.755   7.188  72.297  1.00  0.00    -0.252 A  
ENDBRANCH  24  25
ENDBRANCH  21  24
ENDBRANCH   1   8
TORSDOF 5
ENDMDL
MODEL      149
REMARK 921   NORMALIZED FREE ENERGY PREDICTED BY IDOCK:   -2.22 KCAL/MOL
REMARK 922        TOTAL FREE ENERGY PREDICTED BY IDOCK:   -4.01 KCAL/MOL
REMARK 923 INTER-LIGAND FREE ENERGY PREDICTED BY IDOCK:   -3.20 KCAL/MOL
REMARK 924 INTRA-LIGAND FREE ENERGY PREDICTED BY IDOCK:   -0.81 KCAL/MOL
REMARK 927      BINDING AFFINITY PREDICTED BY RF-SCORE:    0.00 PKD
ROOT
HETATM    1  C   UNL     1      -9.675   6.103  71.593  1.00  0.00    -0.158 C  
HETATM    2  C   UNL     1     -11.820   6.711  70.299  1.00  0.00    -0.378 C  
HETATM    3  C   UNL     1     -11.815   6.835  72.777  1.00  0.00     0.060 C  
HETATM    4  C   UNL     1     -11.230   6.085  71.570  1.00  0.00    -0.326 C  
ENDROOT
BRANCH   1   5
HETATM    5  C   UNL     1      -9.092   5.356  72.821  1.00  0.00    -0.130 C  
HETATM    6  H   UNL     1      -9.117   5.543  74.789  1.00  0.00     0.000 HD 
HETATM    7  O   UNL     1      -9.473   6.001  74.036  1.00  0.00    -0.135 OA 
ENDBRANCH   1   5
BRANCH   1   8
HETATM    8  N   UNL     1      -9.090   5.559  70.309  1.00  0.00    -0.136 NA 
HETATM    9  C   UNL     1      -9.281   3.834  68.582  1.00  0.00    -0.216 C  
HETATM   10  C   UNL     1      -9.450   4.299  69.829  1.00  0.00    -0.190 C  
HETATM   11  C   UNL     1      -9.712   2.457  68.256  1.00  0.00     0.143 C  
HETATM   12  C   UNL     1      -8.695   4.751  67.595  1.00  0.00    -0.103 C  
HETATM   13  C   UNL     1      -8.369   6.126  68.031  1.00  0.00    -0.117 A  
HETATM   14  O   UNL     1      -8.475   4.361  66.449  1.00  0.00    -0.112 OA 
HETATM   15  O   UNL     1     -10.281   1.726  69.055  1.00  0.00     0.479 OA 
HETATM   16  O   UNL     1      -9.426   2.061  66.998  1.00  0.00    -0.016 OA 
HETATM   17  C   UNL     1      -8.512   6.478  69.384  1.00  0.00    -0.127 A  
HETATM   18  C   UNL     1      -8.044   7.752  69.740  1.00  0.00    -0.117 A  
HETATM   19  C   UNL     1      -7.562   8.682  68.799  1.00  0.00    -0.096 A  
HETATM   20  C   UNL     1      -7.902   7.040  67.072  1.00  0.00    -0.108 A  
HETATM   21  C   UNL     1      -7.500   8.334  67.439  1.00  0.00    -0.094 A  
BRANCH  19  22
HETATM   22  O   UNL     1      -7.097   9.928  69.142  1.00  0.00    -0.063 OA 
HETATM   23  C   UNL     1      -8.045  10.847  69.684  1.00  0.00     0.233 C  
ENDBRANCH  19  22
BRANCH  21  24
HETATM   24  C   UNL     1      -6.920   9.249  66.382  1.00  0.00    -0.084 C  
BRANCH  24  25
HETATM   25  C   UNL     1      -7.779   9.581  65.182  1.00  0.00    -0.112 A  
HETATM   26  C   UNL     1      -8.932  10.367  65.311  1.00  0.00    -0.187 A  
HETATM   27  C   UNL     1      -9.825  10.521  64.244  1.00  0.00    -0.338 A  
HETATM   28  F   UNL     1      -9.206  10.938  66.495  1.00  0.00    -0.164 F  
HETATM   29  C   UNL     1      -9.576   9.890  63.028  1.00  0.00     0.041 A  
HETATM   30 CL   UNL     1     -11.263  11.452  64.427  1.00  0.00    -0.334 Cl 
HETATM   31  C   UNL     1      -8.413   9.137  62.869  1.00  0.00    -0.209 A  
HETATM   32  C   UNL     1      -7.515   8.993  63.935  1.00  0.00    -0.110 A  
ENDBRANCH  24  25
ENDBRANCH  21  24
ENDBRANCH   1   8
TORSDOF 5
ENDMDL
MODEL      150
REMARK 921   NORMALIZED FREE ENERGY PREDICTED BY IDOCK:   -2.20 KCAL/MOL
REMARK 922        TOTAL FREE ENERGY PREDICTED BY IDOCK:   -3.98 KCAL/MOL
REMARK 923 INTER-LIGAND FREE ENERGY PREDICTED BY IDOCK:   -3.51 KCAL/MOL
REMARK 924 INTRA-LIGAND FREE ENERGY PREDICTED BY IDOCK:   -0.47 KCAL/MOL
REMARK 927      BINDING AFFINITY PREDICTED BY RF-SCORE:    0.00 PKD
ROOT
HETATM    1  C   UNL     1      -9.757   7.971  67.794  1.00  0.00    -0.156 C  
HETATM    2  C   UNL     1     -10.630   9.192  69.891  1.00  0.00    -0.246 C  
HETATM    3  C   UNL     1     -11.078   6.767  69.617  1.00  0.00    -0.343 C  
HETATM    4  C   UNL     1     -10.888   8.087  68.856  1.00  0.00    -0.001 C  
ENDROOT
BRANCH   1   5
HETATM    5  C   UNL     1     -10.091   6.940  66.685  1.00  0.00    -0.141 C  
HETATM    6  H   UNL     1      -9.262   5.329  65.894  1.00  0.00     0.000 HD 
HETATM    7  O   UNL     1      -9.058   5.961  66.573  1.00  0.00    -0.134 OA 
ENDBRANCH   1   5
BRANCH   1   8
HETATM    8  N   UNL     1      -9.416   9.315  67.191  1.00  0.00    -0.144 NA 
HETATM    9  C   UNL     1     -10.310  11.323  66.110  1.00  0.00    -0.300 C  
HETATM   10  C   UNL     1     -10.346  10.018  66.423  1.00  0.00    -0.179 C  
HETATM   11  C   UNL     1     -11.381  11.896  65.266  1.00  0.00    -0.275 C  
HETATM   12  C   UNL     1      -9.206  12.118  66.664  1.00  0.00    -0.206 C  
HETATM   13  C   UNL     1      -8.237  11.439  67.551  1.00  0.00    -0.130 A  
HETATM   14  O   UNL     1      -9.099  13.308  66.373  1.00  0.00    -0.173 OA 
HETATM   15  O   UNL     1     -12.347  11.253  64.879  1.00  0.00     0.455 OA 
HETATM   16  O   UNL     1     -11.209  13.197  64.947  1.00  0.00    -0.295 OA 
HETATM   17  C   UNL     1      -8.325  10.049  67.742  1.00  0.00    -0.114 A  
HETATM   18  C   UNL     1      -7.283   9.463  68.478  1.00  0.00    -0.072 A  
HETATM   19  C   UNL     1      -6.264  10.213  69.094  1.00  0.00    -0.040 A  
HETATM   20  C   UNL     1      -7.236  12.210  68.165  1.00  0.00    -0.096 A  
HETATM   21  C   UNL     1      -6.240  11.611  68.953  1.00  0.00    -0.057 A  
BRANCH  19  22
HETATM   22  O   UNL     1      -5.239   9.645  69.811  1.00  0.00    -0.033 OA 
HETATM   23  C   UNL     1      -5.362   9.649  71.233  1.00  0.00    -0.063 C  
ENDBRANCH  19  22
BRANCH  21  24
HETATM   24  C   UNL     1      -5.134  12.476  69.519  1.00  0.00    -0.071 C  
BRANCH  24  25
HETATM   25  C   UNL     1      -5.390  13.960  69.649  1.00  0.00    -0.086 A  
HETATM   26  C   UNL     1      -5.422  14.792  68.521  1.00  0.00    -0.102 A  
HETATM   27  C   UNL     1      -5.473  16.185  68.651  1.00  0.00    -0.105 A  
HETATM   28  F   UNL     1      -5.351  14.241  67.299  1.00  0.00     0.066 F  
HETATM   29  C   UNL     1      -5.495  16.768  69.916  1.00  0.00    -0.194 A  
HETATM   30 CL   UNL     1      -5.466  17.200  67.259  1.00  0.00    -0.152 Cl 
HETATM   31  C   UNL     1      -5.504  15.954  71.049  1.00  0.00     0.032 A  
HETATM   32  C   UNL     1      -5.464  14.560  70.916  1.00  0.00    -0.156 A  
ENDBRANCH  24  25
ENDBRANCH  21  24
ENDBRANCH   1   8
TORSDOF 5
ENDMDL
MODEL      151
REMARK 921   NORMALIZED FREE ENERGY PREDICTED BY IDOCK:   -2.03 KCAL/MOL
REMARK 922        TOTAL FREE ENERGY PREDICTED BY IDOCK:   -3.77 KCAL/MOL
REMARK 923 INTER-LIGAND FREE ENERGY PREDICTED BY IDOCK:   -5.55 KCAL/MOL
REMARK 924 INTRA-LIGAND FREE ENERGY PREDICTED BY IDOCK:    1.78 KCAL/MOL
REMARK 927      BINDING AFFINITY PREDICTED BY RF-SCORE:    0.00 PKD
ROOT
HETATM    1  C   UNL     1      -9.306  11.136  64.374  1.00  0.00    -0.159 C  
HETATM    2  C   UNL     1      -8.292   8.770  64.528  1.00  0.00    -0.171 C  
HETATM    3  C   UNL     1      -9.108   9.606  62.339  1.00  0.00    -0.290 C  
HETATM    4  C   UNL     1      -9.340   9.669  63.857  1.00  0.00    -0.096 C  
ENDROOT
BRANCH   1   5
HETATM    5  C   UNL     1     -10.450  11.999  63.781  1.00  0.00    -0.429 C  
HETATM    6  H   UNL     1     -12.424  12.053  63.852  1.00  0.00     0.000 HD 
HETATM    7  O   UNL     1     -11.723  11.524  64.215  1.00  0.00    -0.229 OA 
ENDBRANCH   1   5
BRANCH   1   8
HETATM    8  N   UNL     1      -9.318  11.197  65.885  1.00  0.00    -0.206 NA 
HETATM    9  C   UNL     1      -8.307  10.336  67.943  1.00  0.00    -0.114 C  
HETATM   10  C   UNL     1      -8.656  10.235  66.650  1.00  0.00    -0.127 C  
HETATM   11  C   UNL     1      -7.620   9.202  68.599  1.00  0.00    -0.084 C  
HETATM   12  C   UNL     1      -8.608  11.602  68.625  1.00  0.00    -0.086 C  
HETATM   13  C   UNL     1      -9.236  12.684  67.837  1.00  0.00    -0.201 A  
HETATM   14  O   UNL     1      -8.350  11.731  69.821  1.00  0.00     1.038 OA 
HETATM   15  O   UNL     1      -7.290   8.184  68.006  1.00  0.00    -0.092 OA 
HETATM   16  O   UNL     1      -7.383   9.375  69.917  1.00  0.00    -0.067 OA 
HETATM   17  C   UNL     1      -9.634  12.437  66.512  1.00  0.00    -0.240 A  
HETATM   18  C   UNL     1     -10.353  13.467  65.885  1.00  0.00    -0.290 A  
HETATM   19  C   UNL     1     -10.575  14.721  66.484  1.00  0.00    -0.299 A  
HETATM   20  C   UNL     1      -9.437  13.931  68.452  1.00  0.00    -0.211 A  
HETATM   21  C   UNL     1     -10.101  14.971  67.783  1.00  0.00    -0.234 A  
BRANCH  19  22
HETATM   22  O   UNL     1     -11.283  15.730  65.878  1.00  0.00    -0.168 OA 
HETATM   23  C   UNL     1     -10.845  16.143  64.584  1.00  0.00    -0.142 C  
ENDBRANCH  19  22
BRANCH  21  24
HETATM   24  C   UNL     1     -10.371  16.264  68.522  1.00  0.00    -0.261 C  
BRANCH  24  25
HETATM   25  C   UNL     1      -9.601  17.496  68.101  1.00  0.00    -0.294 A  
HETATM   26  C   UNL     1      -8.200  17.522  68.132  1.00  0.00    -0.251 A  
HETATM   27  C   UNL     1      -7.494  18.712  67.922  1.00  0.00    -0.238 A  
HETATM   28  F   UNL     1      -7.531  16.394  68.419  1.00  0.00    -0.148 F  
HETATM   29  C   UNL     1      -8.182  19.898  67.675  1.00  0.00    -0.349 A  
HETATM   30 CL   UNL     1      -5.774  18.742  68.009  1.00  0.00    -0.189 Cl 
HETATM   31  C   UNL     1      -9.575  19.883  67.600  1.00  0.00    -0.493 A  
HETATM   32  C   UNL     1     -10.279  18.688  67.800  1.00  0.00    -0.427 A  
ENDBRANCH  24  25
ENDBRANCH  21  24
ENDBRANCH   1   8
TORSDOF 5
ENDMDL
MODEL      152
REMARK 921   NORMALIZED FREE ENERGY PREDICTED BY IDOCK:   -2.00 KCAL/MOL
REMARK 922        TOTAL FREE ENERGY PREDICTED BY IDOCK:   -3.72 KCAL/MOL
REMARK 923 INTER-LIGAND FREE ENERGY PREDICTED BY IDOCK:   -3.90 KCAL/MOL
REMARK 924 INTRA-LIGAND FREE ENERGY PREDICTED BY IDOCK:    0.18 KCAL/MOL
REMARK 927      BINDING AFFINITY PREDICTED BY RF-SCORE:    0.00 PKD
ROOT
HETATM    1  C   UNL     1      -7.267  11.294  69.473  1.00  0.00    -0.018 C  
HETATM    2  C   UNL     1      -7.670   9.123  70.803  1.00  0.00    -0.162 C  
HETATM    3  C   UNL     1      -5.712  10.544  71.354  1.00  0.00     0.128 C  
HETATM    4  C   UNL     1      -6.628  10.082  70.210  1.00  0.00    -0.127 C  
ENDROOT
BRANCH   1   5
HETATM    5  C   UNL     1      -6.209  12.186  68.773  1.00  0.00    -0.071 C  
HETATM    6  H   UNL     1      -5.935  14.108  68.403  1.00  0.00     0.000 HD 
HETATM    7  O   UNL     1      -6.584  13.562  68.831  1.00  0.00    -0.094 OA 
ENDBRANCH   1   5
BRANCH   1   8
HETATM    8  N   UNL     1      -8.331  10.855  68.492  1.00  0.00    -0.135 NA 
HETATM    9  C   UNL     1     -10.275  11.560  67.180  1.00  0.00    -0.233 C  
HETATM   10  C   UNL     1      -9.446  11.653  68.231  1.00  0.00    -0.191 C  
HETATM   11  C   UNL     1     -11.423  12.487  67.076  1.00  0.00    -0.356 C  
HETATM   12  C   UNL     1      -9.964  10.544  66.165  1.00  0.00    -0.229 C  
HETATM   13  C   UNL     1      -8.747   9.724  66.352  1.00  0.00    -0.144 A  
HETATM   14  O   UNL     1     -10.716  10.385  65.205  1.00  0.00    -0.094 OA 
HETATM   15  O   UNL     1     -11.629  13.391  67.875  1.00  0.00    -0.297 OA 
HETATM   16  O   UNL     1     -12.237  12.259  66.024  1.00  0.00    -0.646 OA 
HETATM   17  C   UNL     1      -7.998   9.852  67.535  1.00  0.00    -0.106 A  
HETATM   18  C   UNL     1      -6.946   8.937  67.697  1.00  0.00    -0.075 A  
HETATM   19  C   UNL     1      -6.573   8.015  66.701  1.00  0.00    -0.056 A  
HETATM   20  C   UNL     1      -8.387   8.820  65.340  1.00  0.00    -0.159 A  
HETATM   21  C   UNL     1      -7.289   7.958  65.494  1.00  0.00    -0.076 A  
BRANCH  19  22
HETATM   22  O   UNL     1      -5.548   7.114  66.856  1.00  0.00    -0.021 OA 
HETATM   23  C   UNL     1      -5.478   6.418  68.100  1.00  0.00    -0.008 C  
ENDBRANCH  19  22
BRANCH  21  24
HETATM   24  C   UNL     1      -6.998   6.941  64.412  1.00  0.00    -0.055 C  
BRANCH  24  25
HETATM   25  C   UNL     1      -7.794   5.655  64.414  1.00  0.00    -0.115 A  
HETATM   26  C   UNL     1      -7.440   4.582  63.583  1.00  0.00    -0.055 A  
HETATM   27  C   UNL     1      -8.276   3.468  63.446  1.00  0.00    -0.089 A  
HETATM   28  F   UNL     1      -6.304   4.653  62.871  1.00  0.00    -0.023 F  
HETATM   29  C   UNL     1      -9.482   3.410  64.142  1.00  0.00    -0.139 A  
HETATM   30 CL   UNL     1      -7.855   2.176  62.388  1.00  0.00    -0.052 Cl 
HETATM   31  C   UNL     1      -9.830   4.450  65.004  1.00  0.00    -0.169 A  
HETATM   32  C   UNL     1      -8.986   5.559  65.148  1.00  0.00    -0.036 A  
ENDBRANCH  24  25
ENDBRANCH  21  24
ENDBRANCH   1   8
TORSDOF 5
ENDMDL
MODEL      153
REMARK 921   NORMALIZED FREE ENERGY PREDICTED BY IDOCK:   -1.93 KCAL/MOL
REMARK 922        TOTAL FREE ENERGY PREDICTED BY IDOCK:   -3.64 KCAL/MOL
REMARK 923 INTER-LIGAND FREE ENERGY PREDICTED BY IDOCK:   -5.83 KCAL/MOL
REMARK 924 INTRA-LIGAND FREE ENERGY PREDICTED BY IDOCK:    2.19 KCAL/MOL
REMARK 927      BINDING AFFINITY PREDICTED BY RF-SCORE:    0.00 PKD
ROOT
HETATM    1  C   UNL     1      -8.037   6.462  64.778  1.00  0.00    -0.114 C  
HETATM    2  C   UNL     1      -9.127   4.183  65.297  1.00  0.00    -0.140 C  
HETATM    3  C   UNL     1      -7.555   4.375  63.387  1.00  0.00    -0.059 C  
HETATM    4  C   UNL     1      -8.610   5.133  64.207  1.00  0.00    -0.110 C  
ENDROOT
BRANCH   1   5
HETATM    5  C   UNL     1      -7.636   7.461  63.662  1.00  0.00    -0.121 C  
HETATM    6  H   UNL     1      -6.157   8.720  63.293  1.00  0.00     0.000 HD 
HETATM    7  O   UNL     1      -6.403   8.108  63.977  1.00  0.00    -0.065 OA 
ENDBRANCH   1   5
BRANCH   1   8
HETATM    8  N   UNL     1      -8.990   7.107  65.758  1.00  0.00    -0.071 NA 
HETATM    9  C   UNL     1      -9.865   7.060  68.045  1.00  0.00    -0.156 C  
HETATM   10  C   UNL     1      -9.317   6.484  66.963  1.00  0.00    -0.139 C  
HETATM   11  C   UNL     1     -10.159   6.235  69.237  1.00  0.00    -0.175 C  
HETATM   12  C   UNL     1     -10.113   8.507  67.984  1.00  0.00    -0.200 C  
HETATM   13  C   UNL     1      -9.710   9.231  66.759  1.00  0.00    -0.260 A  
HETATM   14  O   UNL     1     -10.655   9.078  68.930  1.00  0.00    -0.222 OA 
HETATM   15  O   UNL     1      -9.870   5.049  69.318  1.00  0.00    -0.163 OA 
HETATM   16  O   UNL     1     -10.779   6.894  70.238  1.00  0.00    -0.223 OA 
HETATM   17  C   UNL     1      -9.221   8.510  65.655  1.00  0.00    -0.095 A  
HETATM   18  C   UNL     1      -9.002   9.254  64.485  1.00  0.00    -0.183 A  
HETATM   19  C   UNL     1      -9.146  10.653  64.428  1.00  0.00    -0.215 A  
HETATM   20  C   UNL     1      -9.851  10.628  66.729  1.00  0.00    -0.240 A  
HETATM   21  C   UNL     1      -9.562  11.361  65.567  1.00  0.00    -0.256 A  
BRANCH  19  22
HETATM   22  O   UNL     1      -8.938  11.385  63.285  1.00  0.00    -0.135 OA 
HETATM   23  C   UNL     1      -7.966  10.889  62.364  1.00  0.00    -0.148 C  
ENDBRANCH  19  22
BRANCH  21  24
HETATM   24  C   UNL     1      -9.816  12.854  65.560  1.00  0.00    -0.159 C  
BRANCH  24  25
HETATM   25  C   UNL     1     -10.520  13.459  66.754  1.00  0.00    -0.275 A  
HETATM   26  C   UNL     1     -10.018  14.604  67.388  1.00  0.00    -0.231 A  
HETATM   27  C   UNL     1     -10.558  15.056  68.597  1.00  0.00    -0.237 A  
HETATM   28  F   UNL     1      -8.967  15.243  66.849  1.00  0.00    -0.201 F  
HETATM   29  C   UNL     1     -11.615  14.369  69.191  1.00  0.00    -0.344 A  
HETATM   30 CL   UNL     1      -9.903  16.437  69.393  1.00  0.00    -0.224 Cl 
HETATM   31  C   UNL     1     -12.154  13.252  68.552  1.00  0.00    -0.256 A  
HETATM   32  C   UNL     1     -11.618  12.808  67.337  1.00  0.00    -0.415 A  
ENDBRANCH  24  25
ENDBRANCH  21  24
ENDBRANCH   1   8
TORSDOF 5
ENDMDL
MODEL      154
REMARK 921   NORMALIZED FREE ENERGY PREDICTED BY IDOCK:   -1.93 KCAL/MOL
REMARK 922        TOTAL FREE ENERGY PREDICTED BY IDOCK:   -3.63 KCAL/MOL
REMARK 923 INTER-LIGAND FREE ENERGY PREDICTED BY IDOCK:   -4.70 KCAL/MOL
REMARK 924 INTRA-LIGAND FREE ENERGY PREDICTED BY IDOCK:    1.07 KCAL/MOL
REMARK 927      BINDING AFFINITY PREDICTED BY RF-SCORE:    0.00 PKD
ROOT
HETATM    1  C   UNL     1      -8.928   9.429  64.484  1.00  0.00    -0.181 C  
HETATM    2  C   UNL     1      -7.162  10.506  62.945  1.00  0.00    -0.053 C  
HETATM    3  C   UNL     1      -7.869   8.163  62.536  1.00  0.00    -0.140 C  
HETATM    4  C   UNL     1      -7.645   9.219  63.629  1.00  0.00    -0.112 C  
ENDROOT
BRANCH   1   5
HETATM    5  C   UNL     1      -9.331   8.153  65.268  1.00  0.00     0.481 C  
HETATM    6  H   UNL     1      -8.610   6.338  65.571  1.00  0.00     0.000 HD 
HETATM    7  O   UNL     1      -8.363   7.120  65.091  1.00  0.00    -0.136 OA 
ENDBRANCH   1   5
BRANCH   1   8
HETATM    8  N   UNL     1      -8.790  10.611  65.418  1.00  0.00    -0.185 NA 
HETATM    9  C   UNL     1      -9.690  12.802  66.038  1.00  0.00    -0.226 C  
HETATM   10  C   UNL     1      -9.454  11.812  65.163  1.00  0.00    -0.092 C  
HETATM   11  C   UNL     1     -10.399  14.019  65.583  1.00  0.00    -0.329 C  
HETATM   12  C   UNL     1      -9.249  12.596  67.424  1.00  0.00    -0.191 C  
HETATM   13  C   UNL     1      -8.612  11.306  67.766  1.00  0.00    -0.126 A  
HETATM   14  O   UNL     1      -9.400  13.490  68.256  1.00  0.00    -0.204 OA 
HETATM   15  O   UNL     1     -10.845  14.151  64.451  1.00  0.00    -0.353 OA 
HETATM   16  O   UNL     1     -10.517  14.984  66.519  1.00  0.00    -0.273 OA 
HETATM   17  C   UNL     1      -8.340  10.374  66.749  1.00  0.00    -0.126 A  
HETATM   18  C   UNL     1      -7.604   9.243  67.135  1.00  0.00    -0.091 A  
HETATM   19  C   UNL     1      -7.248   8.979  68.471  1.00  0.00    -0.073 A  
HETATM   20  C   UNL     1      -8.277  11.060  69.107  1.00  0.00    -0.052 A  
HETATM   21  C   UNL     1      -7.598   9.889  69.482  1.00  0.00    -0.125 A  
BRANCH  19  22
HETATM   22  O   UNL     1      -6.523   7.877  68.853  1.00  0.00    -0.045 OA 
HETATM   23  C   UNL     1      -5.134   7.868  68.527  1.00  0.00    -0.027 C  
ENDBRANCH  19  22
BRANCH  21  24
HETATM   24  C   UNL     1      -7.181   9.714  70.927  1.00  0.00    -0.009 C  
BRANCH  24  25
HETATM   25  C   UNL     1      -8.007   8.792  71.797  1.00  0.00    -0.107 A  
HETATM   26  C   UNL     1      -9.403   8.741  71.679  1.00  0.00    -0.275 A  
HETATM   27  C   UNL     1     -10.180   8.033  72.601  1.00  0.00    -0.316 A  
HETATM   28  F   UNL     1     -10.001   9.427  70.692  1.00  0.00    -0.249 F  
HETATM   29  C   UNL     1      -9.571   7.360  73.659  1.00  0.00    -0.337 A  
HETATM   30 CL   UNL     1     -11.898   8.014  72.474  1.00  0.00    -0.429 Cl 
HETATM   31  C   UNL     1      -8.181   7.367  73.768  1.00  0.00    -0.181 A  
HETATM   32  C   UNL     1      -7.403   8.068  72.837  1.00  0.00    -0.141 A  
ENDBRANCH  24  25
ENDBRANCH  21  24
ENDBRANCH   1   8
TORSDOF 5
ENDMDL
MODEL      155
REMARK 921   NORMALIZED FREE ENERGY PREDICTED BY IDOCK:   -1.83 KCAL/MOL
REMARK 922        TOTAL FREE ENERGY PREDICTED BY IDOCK:   -3.50 KCAL/MOL
REMARK 923 INTER-LIGAND FREE ENERGY PREDICTED BY IDOCK:   -5.96 KCAL/MOL
REMARK 924 INTRA-LIGAND FREE ENERGY PREDICTED BY IDOCK:    2.46 KCAL/MOL
REMARK 927      BINDING AFFINITY PREDICTED BY RF-SCORE:    0.00 PKD
ROOT
HETATM    1  C   UNL     1      -9.290   5.871  71.657  1.00  0.00    -0.149 C  
HETATM    2  C   UNL     1     -11.560   6.791  70.848  1.00  0.00    -0.403 C  
HETATM    3  C   UNL     1     -11.488   5.278  72.814  1.00  0.00    -0.317 C  
HETATM    4  C   UNL     1     -10.812   5.604  71.473  1.00  0.00    -0.297 C  
ENDROOT
BRANCH   1   5
HETATM    5  C   UNL     1      -8.528   4.622  72.171  1.00  0.00    -0.118 C  
HETATM    6  H   UNL     1      -8.691   2.657  72.037  1.00  0.00     0.000 HD 
HETATM    7  O   UNL     1      -9.158   3.422  71.723  1.00  0.00    -0.100 OA 
ENDBRANCH   1   5
BRANCH   1   8
HETATM    8  N   UNL     1      -8.658   6.400  70.389  1.00  0.00    -0.141 NA 
HETATM    9  C   UNL     1      -7.486   5.804  68.323  1.00  0.00    -0.081 C  
HETATM   10  C   UNL     1      -7.837   5.592  69.601  1.00  0.00    -0.090 C  
HETATM   11  C   UNL     1      -6.588   4.842  67.648  1.00  0.00    -0.047 C  
HETATM   12  C   UNL     1      -8.053   6.984  67.656  1.00  0.00    -0.114 C  
HETATM   13  C   UNL     1      -8.994   7.830  68.421  1.00  0.00    -0.132 A  
HETATM   14  O   UNL     1      -7.730   7.250  66.500  1.00  0.00    -0.090 OA 
HETATM   15  O   UNL     1      -6.189   3.813  68.176  1.00  0.00    -0.031 OA 
HETATM   16  O   UNL     1      -6.236   5.188  66.392  1.00  0.00    -0.033 OA 
HETATM   17  C   UNL     1      -9.224   7.559  69.781  1.00  0.00    -0.147 A  
HETATM   18  C   UNL     1     -10.013   8.494  70.469  1.00  0.00    -0.214 A  
HETATM   19  C   UNL     1     -10.641   9.582  69.833  1.00  0.00    -0.241 A  
HETATM   20  C   UNL     1      -9.618   8.902  67.763  1.00  0.00    -0.176 A  
HETATM   21  C   UNL     1     -10.458   9.788  68.456  1.00  0.00    -0.239 A  
BRANCH  19  22
HETATM   22  O   UNL     1     -11.410  10.503  70.501  1.00  0.00    -0.312 OA 
HETATM   23  C   UNL     1     -12.725  10.098  70.881  1.00  0.00    -0.357 C  
ENDBRANCH  19  22
BRANCH  21  24
HETATM   24  C   UNL     1     -11.034  10.979  67.719  1.00  0.00    -0.323 C  
BRANCH  24  25
HETATM   25  C   UNL     1     -10.512  12.354  68.074  1.00  0.00    -0.227 A  
HETATM   26  C   UNL     1     -11.350  13.325  68.638  1.00  0.00    -0.288 A  
HETATM   27  C   UNL     1     -10.921  14.647  68.795  1.00  0.00    -0.258 A  
HETATM   28  F   UNL     1     -12.602  12.987  68.986  1.00  0.00    -0.114 F  
HETATM   29  C   UNL     1      -9.641  15.020  68.389  1.00  0.00    -0.212 A  
HETATM   30 CL   UNL     1     -11.975  15.844  69.448  1.00  0.00    -0.333 Cl 
HETATM   31  C   UNL     1      -8.779  14.057  67.863  1.00  0.00    -0.184 A  
HETATM   32  C   UNL     1      -9.208  12.731  67.718  1.00  0.00    -0.199 A  
ENDBRANCH  24  25
ENDBRANCH  21  24
ENDBRANCH   1   8
TORSDOF 5
ENDMDL
MODEL      156
REMARK 921   NORMALIZED FREE ENERGY PREDICTED BY IDOCK:   -1.70 KCAL/MOL
REMARK 922        TOTAL FREE ENERGY PREDICTED BY IDOCK:   -3.33 KCAL/MOL
REMARK 923 INTER-LIGAND FREE ENERGY PREDICTED BY IDOCK:   -4.29 KCAL/MOL
REMARK 924 INTRA-LIGAND FREE ENERGY PREDICTED BY IDOCK:    0.96 KCAL/MOL
REMARK 927      BINDING AFFINITY PREDICTED BY RF-SCORE:    0.00 PKD
ROOT
HETATM    1  C   UNL     1      -9.849  15.137  68.146  1.00  0.00    -0.218 C  
HETATM    2  C   UNL     1     -12.157  15.266  69.288  1.00  0.00    -0.280 C  
HETATM    3  C   UNL     1     -10.284  16.635  70.167  1.00  0.00     0.392 C  
HETATM    4  C   UNL     1     -10.634  15.308  69.479  1.00  0.00    -0.272 C  
ENDROOT
BRANCH   1   5
HETATM    5  C   UNL     1      -8.317  15.054  68.368  1.00  0.00    -0.154 C  
HETATM    6  H   UNL     1      -6.732  16.190  68.043  1.00  0.00     0.000 HD 
HETATM    7  O   UNL     1      -7.671  16.240  67.906  1.00  0.00    -0.137 OA 
ENDBRANCH   1   5
BRANCH   1   8
HETATM    8  N   UNL     1     -10.341  13.945  67.356  1.00  0.00    -0.251 NA 
HETATM    9  C   UNL     1     -11.719  13.209  65.470  1.00  0.00    -0.393 C  
HETATM   10  C   UNL     1     -11.399  14.065  66.453  1.00  0.00    -0.333 C  
HETATM   11  C   UNL     1     -12.893  13.492  64.615  1.00  0.00    -0.060 C  
HETATM   12  C   UNL     1     -10.848  12.040  65.284  1.00  0.00    -0.294 C  
HETATM   13  C   UNL     1      -9.665  11.908  66.162  1.00  0.00    -0.251 A  
HETATM   14  O   UNL     1     -11.120  11.201  64.427  1.00  0.00    -0.279 OA 
HETATM   15  O   UNL     1     -13.564  14.510  64.714  1.00  0.00     0.399 OA 
HETATM   16  O   UNL     1     -13.173  12.531  63.709  1.00  0.00    -0.576 OA 
HETATM   17  C   UNL     1      -9.475  12.822  67.214  1.00  0.00    -0.204 A  
HETATM   18  C   UNL     1      -8.412  12.540  68.086  1.00  0.00    -0.180 A  
HETATM   19  C   UNL     1      -7.510  11.480  67.878  1.00  0.00    -0.103 A  
HETATM   20  C   UNL     1      -8.772  10.850  65.928  1.00  0.00    -0.190 A  
HETATM   21  C   UNL     1      -7.676  10.625  66.776  1.00  0.00    -0.127 A  
BRANCH  19  22
HETATM   22  O   UNL     1      -6.472  11.196  68.732  1.00  0.00    -0.048 OA 
HETATM   23  C   UNL     1      -6.757  10.341  69.838  1.00  0.00    -0.125 C  
ENDBRANCH  19  22
BRANCH  21  24
HETATM   24  C   UNL     1      -6.795   9.418  66.531  1.00  0.00    -0.083 C  
BRANCH  24  25
HETATM   25  C   UNL     1      -6.879   8.740  65.182  1.00  0.00    -0.075 A  
HETATM   26  C   UNL     1      -6.830   7.343  65.068  1.00  0.00    -0.050 A  
HETATM   27  C   UNL     1      -6.722   6.723  63.819  1.00  0.00    -0.049 A  
HETATM   28  F   UNL     1      -6.836   6.595  66.183  1.00  0.00    -0.053 F  
HETATM   29  C   UNL     1      -6.662   7.494  62.659  1.00  0.00    -0.070 A  
HETATM   30 CL   UNL     1      -6.615   5.009  63.692  1.00  0.00    -0.033 Cl 
HETATM   31  C   UNL     1      -6.751   8.883  62.751  1.00  0.00    -0.094 A  
HETATM   32  C   UNL     1      -6.871   9.501  64.002  1.00  0.00    -0.105 A  
ENDBRANCH  24  25
ENDBRANCH  21  24
ENDBRANCH   1   8
TORSDOF 5
ENDMDL
MODEL      157
REMARK 921   NORMALIZED FREE ENERGY PREDICTED BY IDOCK:   -1.38 KCAL/MOL
REMARK 922        TOTAL FREE ENERGY PREDICTED BY IDOCK:   -2.93 KCAL/MOL
REMARK 923 INTER-LIGAND FREE ENERGY PREDICTED BY IDOCK:   -3.12 KCAL/MOL
REMARK 924 INTRA-LIGAND FREE ENERGY PREDICTED BY IDOCK:    0.20 KCAL/MOL
REMARK 927      BINDING AFFINITY PREDICTED BY RF-SCORE:    0.00 PKD
ROOT
HETATM    1  C   UNL     1      -7.899  12.544  68.206  1.00  0.00    -0.144 C  
HETATM    2  C   UNL     1      -6.157  11.647  69.883  1.00  0.00    -0.147 C  
HETATM    3  C   UNL     1      -6.948  13.990  70.083  1.00  0.00     0.284 C  
HETATM    4  C   UNL     1      -6.654  12.861  69.085  1.00  0.00    -0.104 C  
ENDROOT
BRANCH   1   5
HETATM    5  C   UNL     1      -8.312  13.741  67.312  1.00  0.00    -0.174 C  
HETATM    6  H   UNL     1      -9.122  15.528  67.549  1.00  0.00     0.000 HD 
HETATM    7  O   UNL     1      -8.869  14.794  68.097  1.00  0.00    -0.160 OA 
ENDBRANCH   1   5
BRANCH   1   8
HETATM    8  N   UNL     1      -7.693  11.299  67.373  1.00  0.00    -0.121 NA 
HETATM    9  C   UNL     1      -6.366  10.263  65.594  1.00  0.00    -0.118 C  
HETATM   10  C   UNL     1      -6.896  11.321  66.228  1.00  0.00    -0.001 C  
HETATM   11  C   UNL     1      -5.555  10.477  64.376  1.00  0.00    -0.118 C  
HETATM   12  C   UNL     1      -6.606   8.937  66.181  1.00  0.00    -0.065 C  
HETATM   13  C   UNL     1      -7.377   8.864  67.441  1.00  0.00    -0.081 A  
HETATM   14  O   UNL     1      -6.182   7.930  65.617  1.00  0.00    -0.038 OA 
HETATM   15  O   UNL     1      -5.282  11.587  63.939  1.00  0.00     0.297 OA 
HETATM   16  O   UNL     1      -5.135   9.345  63.773  1.00  0.00    -0.058 OA 
HETATM   17  C   UNL     1      -7.955  10.031  67.971  1.00  0.00    -0.101 A  
HETATM   18  C   UNL     1      -8.790   9.852  69.085  1.00  0.00    -0.165 A  
HETATM   19  C   UNL     1      -8.963   8.607  69.719  1.00  0.00    -0.145 A  
HETATM   20  C   UNL     1      -7.526   7.614  68.064  1.00  0.00    -0.104 A  
HETATM   21  C   UNL     1      -8.314   7.468  69.217  1.00  0.00    -0.132 A  
BRANCH  19  22
HETATM   22  O   UNL     1      -9.784   8.424  70.806  1.00  0.00    -0.168 OA 
HETATM   23  C   UNL     1     -10.421   9.584  71.340  1.00  0.00    -0.188 C  
ENDBRANCH  19  22
BRANCH  21  24
HETATM   24  C   UNL     1      -8.515   6.083  69.796  1.00  0.00    -0.126 C  
BRANCH  24  25
HETATM   25  C   UNL     1      -8.412   5.920  71.296  1.00  0.00    -0.128 A  
HETATM   26  C   UNL     1      -9.451   5.338  72.035  1.00  0.00    -0.145 A  
HETATM   27  C   UNL     1      -9.440   5.353  73.434  1.00  0.00    -0.134 A  
HETATM   28  F   UNL     1     -10.497   4.802  71.385  1.00  0.00    -0.265 F  
HETATM   29  C   UNL     1      -8.384   5.953  74.118  1.00  0.00    -0.112 A  
HETATM   30 CL   UNL     1     -10.744   4.676  74.333  1.00  0.00    -0.289 Cl 
HETATM   31  C   UNL     1      -7.323   6.502  73.399  1.00  0.00    -0.085 A  
HETATM   32  C   UNL     1      -7.331   6.475  71.999  1.00  0.00    -0.091 A  
ENDBRANCH  24  25
ENDBRANCH  21  24
ENDBRANCH   1   8
TORSDOF 5
ENDMDL
MODEL      158
REMARK 921   NORMALIZED FREE ENERGY PREDICTED BY IDOCK:   -1.17 KCAL/MOL
REMARK 922        TOTAL FREE ENERGY PREDICTED BY IDOCK:   -2.66 KCAL/MOL
REMARK 923 INTER-LIGAND FREE ENERGY PREDICTED BY IDOCK:   -5.22 KCAL/MOL
REMARK 924 INTRA-LIGAND FREE ENERGY PREDICTED BY IDOCK:    2.56 KCAL/MOL
REMARK 927      BINDING AFFINITY PREDICTED BY RF-SCORE:    0.00 PKD
ROOT
HETATM    1  C   UNL     1      -9.425  17.003  68.975  1.00  0.00    -0.177 C  
HETATM    2  C   UNL     1      -7.267  15.780  69.681  1.00  0.00    -0.134 C  
HETATM    3  C   UNL     1      -7.106  17.845  68.316  1.00  0.00    -0.232 C  
HETATM    4  C   UNL     1      -7.970  16.605  68.593  1.00  0.00    -0.236 C  
ENDROOT
BRANCH   1   5
HETATM    5  C   UNL     1     -10.163  17.727  67.820  1.00  0.00    -0.361 C  
HETATM    6  H   UNL     1     -10.878  19.532  67.449  1.00  0.00     0.000 HD 
HETATM    7  O   UNL     1     -10.426  19.088  68.157  1.00  0.00    -0.377 OA 
ENDBRANCH   1   5
BRANCH   1   8
HETATM    8  N   UNL     1     -10.222  15.812  69.458  1.00  0.00    -0.253 NA 
HETATM    9  C   UNL     1     -12.332  15.073  70.457  1.00  0.00    -0.411 C  
HETATM   10  C   UNL     1     -11.366  15.979  70.240  1.00  0.00    -0.382 C  
HETATM   11  C   UNL     1     -13.471  15.422  71.334  1.00  0.00    -0.522 C  
HETATM   12  C   UNL     1     -12.208  13.779  69.772  1.00  0.00    -0.310 C  
HETATM   13  C   UNL     1     -11.056  13.579  68.866  1.00  0.00    -0.305 A  
HETATM   14  O   UNL     1     -13.041  12.897  69.971  1.00  0.00     0.518 OA 
HETATM   15  O   UNL     1     -13.618  16.530  71.833  1.00  0.00     0.838 OA 
HETATM   16  O   UNL     1     -14.344  14.416  71.549  1.00  0.00    -0.409 OA 
HETATM   17  C   UNL     1     -10.061  14.568  68.780  1.00  0.00    -0.239 A  
HETATM   18  C   UNL     1      -8.932  14.238  68.014  1.00  0.00    -0.183 A  
HETATM   19  C   UNL     1      -8.830  13.044  67.275  1.00  0.00    -0.208 A  
HETATM   20  C   UNL     1     -10.982  12.386  68.130  1.00  0.00    -0.263 A  
HETATM   21  C   UNL     1      -9.873  12.104  67.317  1.00  0.00    -0.202 A  
BRANCH  19  22
HETATM   22  O   UNL     1      -7.726  12.713  66.528  1.00  0.00     0.254 OA 
HETATM   23  C   UNL     1      -7.336  11.340  66.521  1.00  0.00    -0.101 C  
ENDBRANCH  19  22
BRANCH  21  24
HETATM   24  C   UNL     1      -9.800  10.764  66.615  1.00  0.00    -0.241 C  
BRANCH  24  25
HETATM   25  C   UNL     1     -10.123   9.524  67.418  1.00  0.00    -0.262 A  
HETATM   26  C   UNL     1      -9.595   9.334  68.702  1.00  0.00    -0.147 A  
HETATM   27  C   UNL     1      -9.739   8.112  69.370  1.00  0.00    -0.170 A  
HETATM   28  F   UNL     1      -8.895  10.326  69.275  1.00  0.00    -0.141 F  
HETATM   29  C   UNL     1     -10.419   7.059  68.761  1.00  0.00    -0.222 A  
HETATM   30 CL   UNL     1      -9.046   7.874  70.929  1.00  0.00    -0.151 Cl 
HETATM   31  C   UNL     1     -10.986   7.244  67.500  1.00  0.00    -0.221 A  
HETATM   32  C   UNL     1     -10.850   8.472  66.838  1.00  0.00     0.030 A  
ENDBRANCH  24  25
ENDBRANCH  21  24
ENDBRANCH   1   8
TORSDOF 5
ENDMDL
MODEL      159
REMARK 921   NORMALIZED FREE ENERGY PREDICTED BY IDOCK:   -0.88 KCAL/MOL
REMARK 922        TOTAL FREE ENERGY PREDICTED BY IDOCK:   -2.28 KCAL/MOL
REMARK 923 INTER-LIGAND FREE ENERGY PREDICTED BY IDOCK:   -4.67 KCAL/MOL
REMARK 924 INTRA-LIGAND FREE ENERGY PREDICTED BY IDOCK:    2.39 KCAL/MOL
REMARK 927      BINDING AFFINITY PREDICTED BY RF-SCORE:    0.00 PKD
ROOT
HETATM    1  C   UNL     1     -10.590   6.890  71.099  1.00  0.00    -0.222 C  
HETATM    2  C   UNL     1     -10.011   8.565  72.972  1.00  0.00     0.049 C  
HETATM    3  C   UNL     1     -12.302   7.622  72.846  1.00  0.00     0.309 C  
HETATM    4  C   UNL     1     -11.089   8.051  72.007  1.00  0.00    -0.353 C  
ENDROOT
BRANCH   1   5
HETATM    5  C   UNL     1     -11.646   6.466  70.046  1.00  0.00    -0.377 C  
HETATM    6  H   UNL     1     -12.438   7.207  68.394  1.00  0.00     0.000 HD 
HETATM    7  O   UNL     1     -11.791   7.467  69.040  1.00  0.00     0.730 OA 
ENDBRANCH   1   5
BRANCH   1   8
HETATM    8  N   UNL     1      -9.275   7.226  70.433  1.00  0.00    -0.158 NA 
HETATM    9  C   UNL     1      -7.249   6.315  69.401  1.00  0.00    -0.082 C  
HETATM   10  C   UNL     1      -8.293   6.253  70.243  1.00  0.00    -0.126 C  
HETATM   11  C   UNL     1      -6.293   5.188  69.345  1.00  0.00    -0.034 C  
HETATM   12  C   UNL     1      -7.140   7.509  68.551  1.00  0.00    -0.081 C  
HETATM   13  C   UNL     1      -8.200   8.535  68.654  1.00  0.00    -0.122 A  
HETATM   14  O   UNL     1      -6.179   7.639  67.794  1.00  0.00    -0.046 OA 
HETATM   15  O   UNL     1      -6.434   4.157  69.988  1.00  0.00    -0.030 OA 
HETATM   16  O   UNL     1      -5.240   5.384  68.524  1.00  0.00    -0.003 OA 
HETATM   17  C   UNL     1      -9.202   8.403  69.632  1.00  0.00    -0.160 A  
HETATM   18  C   UNL     1     -10.081   9.490  69.760  1.00  0.00    -0.238 A  
HETATM   19  C   UNL     1     -10.053  10.603  68.900  1.00  0.00    -0.202 A  
HETATM   20  C   UNL     1      -8.159   9.631  67.778  1.00  0.00    -0.113 A  
HETATM   21  C   UNL     1      -9.090  10.677  67.880  1.00  0.00    -0.145 A  
BRANCH  19  22
HETATM   22  O   UNL     1     -10.908  11.672  69.023  1.00  0.00    -0.209 OA 
HETATM   23  C   UNL     1     -11.663  11.762  70.231  1.00  0.00    -0.228 C  
ENDBRANCH  19  22
BRANCH  21  24
HETATM   24  C   UNL     1      -8.948  11.878  66.968  1.00  0.00    -0.190 C  
BRANCH  24  25
HETATM   25  C   UNL     1     -10.203  12.626  66.579  1.00  0.00    -0.255 A  
HETATM   26  C   UNL     1     -10.837  12.388  65.351  1.00  0.00    -0.285 A  
HETATM   27  C   UNL     1     -11.884  13.204  64.909  1.00  0.00    -0.358 A  
HETATM   28  F   UNL     1     -10.394  11.392  64.568  1.00  0.00    -0.281 F  
HETATM   29  C   UNL     1     -12.316  14.273  65.692  1.00  0.00    -0.416 A  
HETATM   30 CL   UNL     1     -12.626  12.932  63.378  1.00  0.00    -0.368 Cl 
HETATM   31  C   UNL     1     -11.724  14.498  66.934  1.00  0.00    -0.399 A  
HETATM   32  C   UNL     1     -10.683  13.674  67.380  1.00  0.00    -0.272 A  
ENDBRANCH  24  25
ENDBRANCH  21  24
ENDBRANCH   1   8
TORSDOF 5
ENDMDL
MODEL      160
REMARK 921   NORMALIZED FREE ENERGY PREDICTED BY IDOCK:   -0.76 KCAL/MOL
REMARK 922        TOTAL FREE ENERGY PREDICTED BY IDOCK:   -2.12 KCAL/MOL
REMARK 923 INTER-LIGAND FREE ENERGY PREDICTED BY IDOCK:   -3.09 KCAL/MOL
REMARK 924 INTRA-LIGAND FREE ENERGY PREDICTED BY IDOCK:    0.97 KCAL/MOL
REMARK 927      BINDING AFFINITY PREDICTED BY RF-SCORE:    0.00 PKD
ROOT
HETATM    1  C   UNL     1      -6.680  11.122  68.406  1.00  0.00    -0.060 C  
HETATM    2  C   UNL     1      -6.212   9.279  70.147  1.00  0.00    -0.045 C  
HETATM    3  C   UNL     1      -5.392  11.583  70.562  1.00  0.00    -0.126 C  
HETATM    4  C   UNL     1      -5.692  10.552  69.464  1.00  0.00    -0.039 C  
ENDROOT
BRANCH   1   5
HETATM    5  C   UNL     1      -6.090  12.332  67.636  1.00  0.00    -0.120 C  
HETATM    6  H   UNL     1      -6.551  14.228  67.324  1.00  0.00     0.000 HD 
HETATM    7  O   UNL     1      -6.913  13.487  67.795  1.00  0.00    -0.127 OA 
ENDBRANCH   1   5
BRANCH   1   8
HETATM    8  N   UNL     1      -7.149  10.053  67.445  1.00  0.00    -0.084 NA 
HETATM    9  C   UNL     1      -6.631   8.825  65.390  1.00  0.00    -0.067 C  
HETATM   10  C   UNL     1      -6.554   9.899  66.191  1.00  0.00    -0.084 C  
HETATM   11  C   UNL     1      -5.944   8.846  64.080  1.00  0.00    -0.071 C  
HETATM   12  C   UNL     1      -7.380   7.664  65.890  1.00  0.00    -0.074 C  
HETATM   13  C   UNL     1      -7.963   7.745  67.247  1.00  0.00    -0.118 A  
HETATM   14  O   UNL     1      -7.520   6.671  65.179  1.00  0.00    -0.077 OA 
HETATM   15  O   UNL     1      -5.246   9.778  63.704  1.00  0.00    -0.067 OA 
HETATM   16  O   UNL     1      -6.148   7.749  63.321  1.00  0.00    -0.061 OA 
HETATM   17  C   UNL     1      -7.891   8.952  67.963  1.00  0.00    -0.102 A  
HETATM   18  C   UNL     1      -8.594   8.988  69.177  1.00  0.00    -0.133 A  
HETATM   19  C   UNL     1      -9.244   7.864  69.720  1.00  0.00    -0.150 A  
HETATM   20  C   UNL     1      -8.595   6.607  67.773  1.00  0.00    -0.121 A  
HETATM   21  C   UNL     1      -9.237   6.645  69.021  1.00  0.00    -0.131 A  
BRANCH  19  22
HETATM   22  O   UNL     1      -9.939   7.894  70.905  1.00  0.00    -0.182 OA 
HETATM   23  C   UNL     1     -11.176   8.605  70.913  1.00  0.00    -0.267 C  
ENDBRANCH  19  22
BRANCH  21  24
HETATM   24  C   UNL     1      -9.980   5.417  69.502  1.00  0.00    -0.289 C  
BRANCH  24  25
HETATM   25  C   UNL     1      -9.233   4.102  69.533  1.00  0.00    -0.214 A  
HETATM   26  C   UNL     1      -7.954   4.009  70.100  1.00  0.00    -0.051 A  
HETATM   27  C   UNL     1      -7.187   2.846  69.966  1.00  0.00    -0.040 A  
HETATM   28  F   UNL     1      -7.440   5.074  70.736  1.00  0.00    -0.060 F  
HETATM   29  C   UNL     1      -7.691   1.754  69.263  1.00  0.00    -0.044 A  
HETATM   30 CL   UNL     1      -5.598   2.758  70.626  1.00  0.00    -0.012 Cl 
HETATM   31  C   UNL     1      -8.978   1.815  68.728  1.00  0.00    -0.152 A  
HETATM   32  C   UNL     1      -9.748   2.976  68.872  1.00  0.00     0.081 A  
ENDBRANCH  24  25
ENDBRANCH  21  24
ENDBRANCH   1   8
TORSDOF 5
ENDMDL
MODEL      161
REMARK 921   NORMALIZED FREE ENERGY PREDICTED BY IDOCK:    0.32 KCAL/MOL
REMARK 922        TOTAL FREE ENERGY PREDICTED BY IDOCK:   -0.73 KCAL/MOL
REMARK 923 INTER-LIGAND FREE ENERGY PREDICTED BY IDOCK:   -2.42 KCAL/MOL
REMARK 924 INTRA-LIGAND FREE ENERGY PREDICTED BY IDOCK:    1.69 KCAL/MOL
REMARK 927      BINDING AFFINITY PREDICTED BY RF-SCORE:    0.00 PKD
ROOT
HETATM    1  C   UNL     1     -11.113  14.026  69.398  1.00  0.00    -0.203 C  
HETATM    2  C   UNL     1     -11.467  16.527  68.877  1.00  0.00    -0.131 C  
HETATM    3  C   UNL     1     -13.347  15.196  69.799  1.00  0.00     0.764 C  
HETATM    4  C   UNL     1     -12.098  15.127  68.908  1.00  0.00    -0.227 C  
ENDROOT
BRANCH   1   5
HETATM    5  C   UNL     1     -11.723  12.603  69.304  1.00  0.00    -0.322 C  
HETATM    6  H   UNL     1     -11.109  10.736  69.517  1.00  0.00     0.000 HD 
HETATM    7  O   UNL     1     -10.736  11.608  69.574  1.00  0.00    -0.107 OA 
ENDBRANCH   1   5
BRANCH   1   8
HETATM    8  N   UNL     1      -9.792  14.091  68.666  1.00  0.00    -0.218 NA 
HETATM    9  C   UNL     1      -7.416  14.656  68.847  1.00  0.00    -0.134 C  
HETATM   10  C   UNL     1      -8.704  14.782  69.202  1.00  0.00    -0.085 C  
HETATM   11  C   UNL     1      -6.393  15.487  69.519  1.00  0.00    -0.155 C  
HETATM   12  C   UNL     1      -7.096  13.658  67.817  1.00  0.00    -0.161 C  
HETATM   13  C   UNL     1      -8.202  12.842  67.272  1.00  0.00    -0.181 A  
HETATM   14  O   UNL     1      -5.938  13.533  67.421  1.00  0.00    -0.341 OA 
HETATM   15  O   UNL     1      -6.649  16.252  70.438  1.00  0.00     0.228 OA 
HETATM   16  O   UNL     1      -5.141  15.339  69.034  1.00  0.00    -0.094 OA 
HETATM   17  C   UNL     1      -9.525  13.119  67.658  1.00  0.00    -0.207 A  
HETATM   18  C   UNL     1     -10.524  12.398  66.986  1.00  0.00    -0.238 A  
HETATM   19  C   UNL     1     -10.241  11.375  66.061  1.00  0.00    -0.245 A  
HETATM   20  C   UNL     1      -7.894  11.819  66.361  1.00  0.00     0.099 A  
HETATM   21  C   UNL     1      -8.907  11.064  65.749  1.00  0.00    -0.200 A  
BRANCH  19  22
HETATM   22  O   UNL     1     -11.214  10.670  65.397  1.00  0.00     0.223 OA 
HETATM   23  C   UNL     1     -11.900  11.346  64.344  1.00  0.00     0.179 C  
ENDBRANCH  19  22
BRANCH  21  24
HETATM   24  C   UNL     1      -8.526  10.034  64.706  1.00  0.00    -0.180 C  
BRANCH  24  25
HETATM   25  C   UNL     1      -7.567   8.936  65.111  1.00  0.00    -0.099 A  
HETATM   26  C   UNL     1      -7.072   8.022  64.170  1.00  0.00    -0.079 A  
HETATM   27  C   UNL     1      -6.337   6.901  64.569  1.00  0.00    -0.036 A  
HETATM   28  F   UNL     1      -7.355   8.204  62.870  1.00  0.00    -0.088 F  
HETATM   29  C   UNL     1      -6.083   6.676  65.921  1.00  0.00    -0.034 A  
HETATM   30 CL   UNL     1      -5.772   5.759  63.409  1.00  0.00    -0.017 Cl 
HETATM   31  C   UNL     1      -6.533   7.597  66.867  1.00  0.00    -0.054 A  
HETATM   32  C   UNL     1      -7.260   8.725  66.464  1.00  0.00    -0.081 A  
ENDBRANCH  24  25
ENDBRANCH  21  24
ENDBRANCH   1   8
TORSDOF 5
ENDMDL
MODEL      162
REMARK 921   NORMALIZED FREE ENERGY PREDICTED BY IDOCK:    0.96 KCAL/MOL
REMARK 922        TOTAL FREE ENERGY PREDICTED BY IDOCK:    0.09 KCAL/MOL
REMARK 923 INTER-LIGAND FREE ENERGY PREDICTED BY IDOCK:   -3.11 KCAL/MOL
REMARK 924 INTRA-LIGAND FREE ENERGY PREDICTED BY IDOCK:    3.20 KCAL/MOL
REMARK 927      BINDING AFFINITY PREDICTED BY RF-SCORE:    0.00 PKD
ROOT
HETATM    1  C   UNL     1     -11.102  15.748  67.715  1.00  0.00    -0.313 C  
HETATM    2  C   UNL     1     -10.967  13.502  66.458  1.00  0.00    -0.295 C  
HETATM    3  C   UNL     1     -11.156  15.612  65.167  1.00  0.00    -0.357 C  
HETATM    4  C   UNL     1     -11.555  14.920  66.479  1.00  0.00    -0.254 C  
ENDROOT
BRANCH   1   5
HETATM    5  C   UNL     1     -11.801  17.131  67.790  1.00  0.00     1.256 C  
HETATM    6  H   UNL     1     -11.277  19.036  67.726  1.00  0.00     0.000 HD 
HETATM    7  O   UNL     1     -10.849  18.189  67.682  1.00  0.00    -0.392 OA 
ENDBRANCH   1   5
BRANCH   1   8
HETATM    8  N   UNL     1     -11.295  14.981  69.004  1.00  0.00    -0.273 NA 
HETATM    9  C   UNL     1     -12.805  14.548  70.883  1.00  0.00    -0.425 C  
HETATM   10  C   UNL     1     -12.315  15.315  69.897  1.00  0.00    -0.288 C  
HETATM   11  C   UNL     1     -13.883  15.078  71.747  1.00  0.00    -0.479 C  
HETATM   12  C   UNL     1     -12.250  13.195  71.023  1.00  0.00    -0.165 C  
HETATM   13  C   UNL     1     -11.223  12.761  70.052  1.00  0.00     0.222 A  
HETATM   14  O   UNL     1     -12.631  12.466  71.938  1.00  0.00    -0.116 OA 
HETATM   15  O   UNL     1     -14.406  16.170  71.573  1.00  0.00     0.142 OA 
HETATM   16  O   UNL     1     -14.249  14.258  72.755  1.00  0.00    -0.517 OA 
HETATM   17  C   UNL     1     -10.725  13.679  69.111  1.00  0.00    -0.104 A  
HETATM   18  C   UNL     1      -9.652  13.231  68.325  1.00  0.00    -0.221 A  
HETATM   19  C   UNL     1      -9.162  11.912  68.377  1.00  0.00    -0.173 A  
HETATM   20  C   UNL     1     -10.758  11.437  70.115  1.00  0.00     0.578 A  
HETATM   21  C   UNL     1      -9.727  10.990  69.273  1.00  0.00    -0.033 A  
BRANCH  19  22
HETATM   22  O   UNL     1      -8.108  11.470  67.615  1.00  0.00    -0.120 OA 
HETATM   23  C   UNL     1      -7.858  12.159  66.390  1.00  0.00     0.325 C  
ENDBRANCH  19  22
BRANCH  21  24
HETATM   24  C   UNL     1      -9.202   9.580  69.443  1.00  0.00    -0.181 C  
BRANCH  24  25
HETATM   25  C   UNL     1      -9.469   8.585  68.335  1.00  0.00    -0.141 A  
HETATM   26  C   UNL     1      -8.612   8.482  67.231  1.00  0.00    -0.123 A  
HETATM   27  C   UNL     1      -8.952   7.699  66.122  1.00  0.00    -0.161 A  
HETATM   28  F   UNL     1      -7.469   9.187  67.221  1.00  0.00    -0.084 F  
HETATM   29  C   UNL     1     -10.160   7.004  66.102  1.00  0.00     0.265 A  
HETATM   30 CL   UNL     1      -7.913   7.615  64.751  1.00  0.00    -0.135 Cl 
HETATM   31  C   UNL     1     -11.006   7.063  67.209  1.00  0.00    -0.372 A  
HETATM   32  C   UNL     1     -10.658   7.839  68.323  1.00  0.00    -0.169 A  
ENDBRANCH  24  25
ENDBRANCH  21  24
ENDBRANCH   1   8
TORSDOF 5
ENDMDL
MODEL      163
REMARK 921   NORMALIZED FREE ENERGY PREDICTED BY IDOCK:    1.62 KCAL/MOL
REMARK 922        TOTAL FREE ENERGY PREDICTED BY IDOCK:    0.95 KCAL/MOL
REMARK 923 INTER-LIGAND FREE ENERGY PREDICTED BY IDOCK:   -1.38 KCAL/MOL
REMARK 924 INTRA-LIGAND FREE ENERGY PREDICTED BY IDOCK:    2.33 KCAL/MOL
REMARK 927      BINDING AFFINITY PREDICTED BY RF-SCORE:    0.00 PKD
ROOT
HETATM    1  C   UNL     1      -9.990   8.901  69.135  1.00  0.00    -0.190 C  
HETATM    2  C   UNL     1     -11.141   7.896  67.059  1.00  0.00     0.348 C  
HETATM    3  C   UNL     1      -8.972   6.964  67.821  1.00  0.00    -0.117 C  
HETATM    4  C   UNL     1      -9.809   8.249  67.734  1.00  0.00    -0.214 C  
ENDROOT
BRANCH   1   5
HETATM    5  C   UNL     1      -8.645   9.367  69.750  1.00  0.00    -0.175 C  
HETATM    6  H   UNL     1      -6.815   9.771  69.120  1.00  0.00     0.000 HD 
HETATM    7  O   UNL     1      -7.639   9.485  68.744  1.00  0.00    -0.074 OA 
ENDBRANCH   1   5
BRANCH   1   8
HETATM    8  N   UNL     1     -10.984  10.040  69.098  1.00  0.00    -0.228 NA 
HETATM    9  C   UNL     1     -12.175  11.718  70.426  1.00  0.00    -0.416 C  
HETATM   10  C   UNL     1     -11.556  10.538  70.270  1.00  0.00    -0.332 C  
HETATM   11  C   UNL     1     -12.738  12.074  71.747  1.00  0.00    -0.168 C  
HETATM   12  C   UNL     1     -12.227  12.610  69.260  1.00  0.00    -0.038 C  
HETATM   13  C   UNL     1     -11.565  12.166  68.014  1.00  0.00    -0.411 A  
HETATM   14  O   UNL     1     -12.822  13.685  69.334  1.00  0.00     0.240 OA 
HETATM   15  O   UNL     1     -12.616  11.369  72.739  1.00  0.00     1.275 OA 
HETATM   16  O   UNL     1     -13.407  13.246  71.776  1.00  0.00    -0.400 OA 
HETATM   17  C   UNL     1     -11.019  10.873  67.941  1.00  0.00    -0.271 A  
HETATM   18  C   UNL     1     -10.542  10.478  66.681  1.00  0.00    -0.263 A  
HETATM   19  C   UNL     1     -10.498  11.344  65.573  1.00  0.00    -0.268 A  
HETATM   20  C   UNL     1     -11.523  13.052  66.925  1.00  0.00    -0.387 A  
HETATM   21  C   UNL     1     -10.980  12.659  65.691  1.00  0.00    -0.313 A  
BRANCH  19  22
HETATM   22  O   UNL     1     -10.038  10.962  64.336  1.00  0.00    -0.288 OA 
HETATM   23  C   UNL     1      -9.082  11.816  63.708  1.00  0.00     0.304 C  
ENDBRANCH  19  22
BRANCH  21  24
HETATM   24  C   UNL     1     -11.040  13.621  64.524  1.00  0.00    -0.396 C  
BRANCH  24  25
HETATM   25  C   UNL     1     -10.641  15.059  64.769  1.00  0.00    -0.319 A  
HETATM   26  C   UNL     1      -9.397  15.382  65.329  1.00  0.00     0.399 A  
HETATM   27  C   UNL     1      -9.100  16.690  65.726  1.00  0.00     0.033 A  
HETATM   28  F   UNL     1      -8.497  14.405  65.530  1.00  0.00     0.923 F  
HETATM   29  C   UNL     1     -10.047  17.700  65.569  1.00  0.00     0.199 A  
HETATM   30 CL   UNL     1      -7.585  17.067  66.455  1.00  0.00    -0.296 Cl 
HETATM   31  C   UNL     1     -11.275  17.405  64.977  1.00  0.00     0.626 A  
HETATM   32  C   UNL     1     -11.565  16.097  64.569  1.00  0.00    -0.164 A  
ENDBRANCH  24  25
ENDBRANCH  21  24
ENDBRANCH   1   8
TORSDOF 5
ENDMDL
MODEL      164
REMARK 921   NORMALIZED FREE ENERGY PREDICTED BY IDOCK:    1.68 KCAL/MOL
REMARK 922        TOTAL FREE ENERGY PREDICTED BY IDOCK:    1.03 KCAL/MOL
REMARK 923 INTER-LIGAND FREE ENERGY PREDICTED BY IDOCK:    1.40 KCAL/MOL
REMARK 924 INTRA-LIGAND FREE ENERGY PREDICTED BY IDOCK:   -0.37 KCAL/MOL
REMARK 927      BINDING AFFINITY PREDICTED BY RF-SCORE:    0.00 PKD
ROOT
HETATM    1  C   UNL     1      -8.994   7.047  66.108  1.00  0.00    -0.136 C  
HETATM    2  C   UNL     1     -10.356   8.049  68.055  1.00  0.00    -0.262 C  
HETATM    3  C   UNL     1     -10.480   5.612  67.608  1.00  0.00    -0.284 C  
HETATM    4  C   UNL     1     -10.303   6.987  66.947  1.00  0.00    -0.338 C  
ENDROOT
BRANCH   1   5
HETATM    5  C   UNL     1      -9.010   6.054  64.916  1.00  0.00     0.276 C  
HETATM    6  H   UNL     1      -7.966   5.739  63.267  1.00  0.00     0.000 HD 
HETATM    7  O   UNL     1      -7.958   6.347  63.997  1.00  0.00    -0.114 OA 
ENDBRANCH   1   5
BRANCH   1   8
HETATM    8  N   UNL     1      -8.699   8.451  65.631  1.00  0.00    -0.173 NA 
HETATM    9  C   UNL     1      -9.570  10.388  64.411  1.00  0.00    -0.375 C  
HETATM   10  C   UNL     1      -9.507   9.074  64.679  1.00  0.00     0.458 C  
HETATM   11  C   UNL     1     -10.479  10.870  63.349  1.00  0.00    -0.153 C  
HETATM   12  C   UNL     1      -8.737  11.282  65.228  1.00  0.00     0.050 C  
HETATM   13  C   UNL     1      -7.922  10.681  66.306  1.00  0.00    -0.149 A  
HETATM   14  O   UNL     1      -8.722  12.490  64.995  1.00  0.00     1.058 OA 
HETATM   15  O   UNL     1     -11.237  10.135  62.731  1.00  0.00     2.327 OA 
HETATM   16  O   UNL     1     -10.408  12.196  63.107  1.00  0.00    -0.389 OA 
HETATM   17  C   UNL     1      -7.871   9.283  66.441  1.00  0.00    -0.103 A  
HETATM   18  C   UNL     1      -6.963   8.790  67.391  1.00  0.00    -0.075 A  
HETATM   19  C   UNL     1      -6.221   9.626  68.247  1.00  0.00    -0.055 A  
HETATM   20  C   UNL     1      -7.201  11.535  67.156  1.00  0.00    -0.140 A  
HETATM   21  C   UNL     1      -6.347  11.022  68.145  1.00  0.00    -0.056 A  
BRANCH  19  22
HETATM   22  O   UNL     1      -5.327   9.151  69.174  1.00  0.00    -0.036 OA 
HETATM   23  C   UNL     1      -5.689   7.961  69.874  1.00  0.00    -0.023 C  
ENDBRANCH  19  22
BRANCH  21  24
HETATM   24  C   UNL     1      -5.524  11.984  68.975  1.00  0.00    -0.051 C  
BRANCH  24  25
HETATM   25  C   UNL     1      -6.047  13.392  69.155  1.00  0.00    -0.093 A  
HETATM   26  C   UNL     1      -7.396  13.632  69.451  1.00  0.00     0.220 A  
HETATM   27  C   UNL     1      -7.920  14.929  69.436  1.00  0.00    -0.123 A  
HETATM   28  F   UNL     1      -8.206  12.591  69.703  1.00  0.00     0.661 F  
HETATM   29  C   UNL     1      -7.098  16.011  69.125  1.00  0.00    -0.197 A  
HETATM   30 CL   UNL     1      -9.589  15.209  69.756  1.00  0.00    -0.134 Cl 
HETATM   31  C   UNL     1      -5.745  15.795  68.867  1.00  0.00    -0.104 A  
HETATM   32  C   UNL     1      -5.220  14.496  68.894  1.00  0.00    -0.088 A  
ENDBRANCH  24  25
ENDBRANCH  21  24
ENDBRANCH   1   8
TORSDOF 5
ENDMDL
MODEL      165
REMARK 921   NORMALIZED FREE ENERGY PREDICTED BY IDOCK:    2.70 KCAL/MOL
REMARK 922        TOTAL FREE ENERGY PREDICTED BY IDOCK:    2.35 KCAL/MOL
REMARK 923 INTER-LIGAND FREE ENERGY PREDICTED BY IDOCK:   -2.00 KCAL/MOL
REMARK 924 INTRA-LIGAND FREE ENERGY PREDICTED BY IDOCK:    4.35 KCAL/MOL
REMARK 927      BINDING AFFINITY PREDICTED BY RF-SCORE:    0.00 PKD
ROOT
HETATM    1  C   UNL     1      -9.289  15.046  68.258  1.00  0.00    -0.192 C  
HETATM    2  C   UNL     1     -10.297  14.431  70.550  1.00  0.00     1.010 C  
HETATM    3  C   UNL     1     -10.053  16.820  69.927  1.00  0.00     0.239 C  
HETATM    4  C   UNL     1      -9.434  15.424  69.761  1.00  0.00    -0.156 C  
ENDROOT
BRANCH   1   5
HETATM    5  C   UNL     1      -8.314  15.985  67.502  1.00  0.00    -0.161 C  
HETATM    6  H   UNL     1      -6.450  16.614  67.697  1.00  0.00     0.000 HD 
HETATM    7  O   UNL     1      -7.048  16.040  68.160  1.00  0.00    -0.115 OA 
ENDBRANCH   1   5
BRANCH   1   8
HETATM    8  N   UNL     1      -8.883  13.599  68.083  1.00  0.00    -0.184 NA 
HETATM    9  C   UNL     1      -7.028  12.071  67.614  1.00  0.00    -0.118 C  
HETATM   10  C   UNL     1      -7.647  13.259  67.530  1.00  0.00    -0.164 C  
HETATM   11  C   UNL     1      -5.720  11.886  66.947  1.00  0.00    -0.114 C  
HETATM   12  C   UNL     1      -7.687  11.022  68.403  1.00  0.00    -0.119 C  
HETATM   13  C   UNL     1      -8.961  11.355  69.077  1.00  0.00     0.075 A  
HETATM   14  O   UNL     1      -7.186   9.901  68.475  1.00  0.00    -0.074 OA 
HETATM   15  O   UNL     1      -5.131  12.787  66.366  1.00  0.00     0.403 OA 
HETATM   16  O   UNL     1      -5.221  10.634  67.026  1.00  0.00    -0.040 OA 
HETATM   17  C   UNL     1      -9.560  12.607  68.851  1.00  0.00     0.234 A  
HETATM   18  C   UNL     1     -10.834  12.787  69.409  1.00  0.00     0.053 A  
HETATM   19  C   UNL     1     -11.448  11.833  70.243  1.00  0.00     0.016 A  
HETATM   20  C   UNL     1      -9.548  10.392  69.913  1.00  0.00     0.021 A  
HETATM   21  C   UNL     1     -10.795  10.619  70.517  1.00  0.00     0.067 A  
BRANCH  19  22
HETATM   22  O   UNL     1     -12.697  12.001  70.787  1.00  0.00    -0.249 OA 
HETATM   23  C   UNL     1     -13.002  13.287  71.327  1.00  0.00    -0.270 C  
ENDBRANCH  19  22
BRANCH  21  24
HETATM   24  C   UNL     1     -11.426   9.514  71.337  1.00  0.00    -0.462 C  
BRANCH  24  25
HETATM   25  C   UNL     1     -10.743   8.165  71.353  1.00  0.00    -0.280 A  
HETATM   26  C   UNL     1      -9.655   7.912  72.200  1.00  0.00    -0.197 A  
HETATM   27  C   UNL     1      -8.908   6.734  72.086  1.00  0.00    -0.133 A  
HETATM   28  F   UNL     1      -9.298   8.841  73.101  1.00  0.00    -0.238 F  
HETATM   29  C   UNL     1      -9.239   5.787  71.119  1.00  0.00    -0.168 A  
HETATM   30 CL   UNL     1      -7.545   6.454  73.102  1.00  0.00    -0.094 Cl 
HETATM   31  C   UNL     1     -10.343   6.004  70.294  1.00  0.00    -0.282 A  
HETATM   32  C   UNL     1     -11.096   7.179  70.418  1.00  0.00    -0.309 A  
ENDBRANCH  24  25
ENDBRANCH  21  24
ENDBRANCH   1   8
TORSDOF 5
ENDMDL
MODEL      166
REMARK 921   NORMALIZED FREE ENERGY PREDICTED BY IDOCK:    3.54 KCAL/MOL
REMARK 922        TOTAL FREE ENERGY PREDICTED BY IDOCK:    3.43 KCAL/MOL
REMARK 923 INTER-LIGAND FREE ENERGY PREDICTED BY IDOCK:   -3.88 KCAL/MOL
REMARK 924 INTRA-LIGAND FREE ENERGY PREDICTED BY IDOCK:    7.31 KCAL/MOL
REMARK 927      BINDING AFFINITY PREDICTED BY RF-SCORE:    0.00 PKD
ROOT
HETATM    1  C   UNL     1      -6.840   7.774  65.252  1.00  0.00    -0.051 C  
HETATM    2  C   UNL     1      -7.260   9.087  67.431  1.00  0.00    -0.083 C  
HETATM    3  C   UNL     1      -5.398   9.766  65.939  1.00  0.00    -0.043 C  
HETATM    4  C   UNL     1      -6.213   8.564  66.438  1.00  0.00    -0.057 C  
ENDROOT
BRANCH   1   5
HETATM    5  C   UNL     1      -5.766   7.145  64.327  1.00  0.00    -0.033 C  
HETATM    6  H   UNL     1      -5.387   7.047  62.389  1.00  0.00     0.000 HD 
HETATM    7  O   UNL     1      -6.044   7.432  62.956  1.00  0.00    -0.052 OA 
ENDBRANCH   1   5
BRANCH   1   8
HETATM    8  N   UNL     1      -7.814   6.722  65.733  1.00  0.00    -0.096 NA 
HETATM    9  C   UNL     1      -8.303   4.325  65.831  1.00  0.00    -0.109 C  
HETATM   10  C   UNL     1      -7.743   5.408  65.270  1.00  0.00    -0.089 C  
HETATM   11  C   UNL     1      -8.135   3.004  65.186  1.00  0.00    -0.086 C  
HETATM   12  C   UNL     1      -9.033   4.520  67.091  1.00  0.00    -0.116 C  
HETATM   13  C   UNL     1      -9.070   5.881  67.669  1.00  0.00    -0.106 A  
HETATM   14  O   UNL     1      -9.603   3.570  67.625  1.00  0.00    -0.203 OA 
HETATM   15  O   UNL     1      -7.452   2.828  64.186  1.00  0.00    -0.064 OA 
HETATM   16  O   UNL     1      -8.801   1.996  65.788  1.00  0.00    -0.117 OA 
HETATM   17  C   UNL     1      -8.519   6.957  66.950  1.00  0.00    -0.115 A  
HETATM   18  C   UNL     1      -8.725   8.232  67.499  1.00  0.00    -0.129 A  
HETATM   19  C   UNL     1      -9.342   8.438  68.748  1.00  0.00    -0.143 A  
HETATM   20  C   UNL     1      -9.679   6.061  68.922  1.00  0.00    -0.159 A  
HETATM   21  C   UNL     1      -9.816   7.340  69.485  1.00  0.00    -0.163 A  
BRANCH  19  22
HETATM   22  O   UNL     1      -9.551   9.683  69.288  1.00  0.00    -0.167 OA 
HETATM   23  C   UNL     1      -9.642  10.778  68.377  1.00  0.00    -0.176 C  
ENDBRANCH  19  22
BRANCH  21  24
HETATM   24  C   UNL     1     -10.560   7.488  70.795  1.00  0.00    -0.227 C  
BRANCH  24  25
HETATM   25  C   UNL     1      -9.752   7.488  72.073  1.00  0.00    -0.195 A  
HETATM   26  C   UNL     1      -8.362   7.666  72.053  1.00  0.00    -0.110 A  
HETATM   27  C   UNL     1      -7.592   7.482  73.207  1.00  0.00    -0.097 A  
HETATM   28  F   UNL     1      -7.758   7.966  70.892  1.00  0.00    -0.076 F  
HETATM   29  C   UNL     1      -8.205   7.119  74.405  1.00  0.00    -0.196 A  
HETATM   30 CL   UNL     1      -5.879   7.658  73.160  1.00  0.00    -0.048 Cl 
HETATM   31  C   UNL     1      -9.591   6.978  74.453  1.00  0.00    -0.211 A  
HETATM   32  C   UNL     1     -10.361   7.173  73.298  1.00  0.00    -0.369 A  
ENDBRANCH  24  25
ENDBRANCH  21  24
ENDBRANCH   1   8
TORSDOF 5
ENDMDL
MODEL      167
REMARK 921   NORMALIZED FREE ENERGY PREDICTED BY IDOCK:    3.63 KCAL/MOL
REMARK 922        TOTAL FREE ENERGY PREDICTED BY IDOCK:    3.55 KCAL/MOL
REMARK 923 INTER-LIGAND FREE ENERGY PREDICTED BY IDOCK:   -2.63 KCAL/MOL
REMARK 924 INTRA-LIGAND FREE ENERGY PREDICTED BY IDOCK:    6.18 KCAL/MOL
REMARK 927      BINDING AFFINITY PREDICTED BY RF-SCORE:    0.00 PKD
ROOT
HETATM    1  C   UNL     1      -7.117   8.246  67.210  1.00  0.00    -0.079 C  
HETATM    2  C   UNL     1      -6.693  10.481  68.424  1.00  0.00    -0.060 C  
HETATM    3  C   UNL     1      -5.154   9.767  66.614  1.00  0.00    -0.040 C  
HETATM    4  C   UNL     1      -6.062   9.258  67.744  1.00  0.00    -0.053 C  
ENDROOT
BRANCH   1   5
HETATM    5  C   UNL     1      -6.467   6.960  66.638  1.00  0.00    -0.047 C  
HETATM    6  H   UNL     1      -6.868   5.025  66.581  1.00  0.00     0.000 HD 
HETATM    7  O   UNL     1      -7.266   5.813  66.931  1.00  0.00    -0.072 OA 
ENDBRANCH   1   5
BRANCH   1   8
HETATM    8  N   UNL     1      -8.147   7.904  68.262  1.00  0.00    -0.121 NA 
HETATM    9  C   UNL     1      -8.646   6.509  70.212  1.00  0.00    -0.136 C  
HETATM   10  C   UNL     1      -8.017   6.762  69.054  1.00  0.00    -0.116 C  
HETATM   11  C   UNL     1      -8.396   5.229  70.910  1.00  0.00    -0.116 C  
HETATM   12  C   UNL     1      -9.536   7.554  70.737  1.00  0.00    -0.166 C  
HETATM   13  C   UNL     1      -9.648   8.818  69.978  1.00  0.00    -0.177 A  
HETATM   14  O   UNL     1     -10.172   7.356  71.771  1.00  0.00    -0.190 OA 
HETATM   15  O   UNL     1      -7.587   4.399  70.518  1.00  0.00    -0.051 OA 
HETATM   16  O   UNL     1      -9.136   5.041  72.023  1.00  0.00    -0.134 OA 
HETATM   17  C   UNL     1      -9.007   8.940  68.733  1.00  0.00    -0.134 A  
HETATM   18  C   UNL     1      -9.282  10.112  68.012  1.00  0.00    -0.142 A  
HETATM   19  C   UNL     1     -10.058  11.166  68.531  1.00  0.00    -0.201 A  
HETATM   20  C   UNL     1     -10.417   9.860  70.521  1.00  0.00    -0.330 A  
HETATM   21  C   UNL     1     -10.626  11.053  69.811  1.00  0.00    -0.055 A  
BRANCH  19  22
HETATM   22  O   UNL     1     -10.336  12.313  67.829  1.00  0.00    -0.201 OA 
HETATM   23  C   UNL     1     -10.363  12.212  66.405  1.00  0.00    -0.218 C  
ENDBRANCH  19  22
BRANCH  21  24
HETATM   24  C   UNL     1     -11.537  12.108  70.402  1.00  0.00     0.019 C  
BRANCH  24  25
HETATM   25  C   UNL     1     -11.602  13.454  69.716  1.00  0.00    -0.305 A  
HETATM   26  C   UNL     1     -10.437  14.113  69.299  1.00  0.00    -0.061 A  
HETATM   27  C   UNL     1     -10.479  15.432  68.835  1.00  0.00    -0.238 A  
HETATM   28  F   UNL     1      -9.257  13.480  69.397  1.00  0.00     0.306 F  
HETATM   29  C   UNL     1     -11.693  16.115  68.779  1.00  0.00    -0.231 A  
HETATM   30 CL   UNL     1      -9.035  16.248  68.368  1.00  0.00    -0.196 Cl 
HETATM   31  C   UNL     1     -12.867  15.462  69.152  1.00  0.00     0.612 A  
HETATM   32  C   UNL     1     -12.824  14.137  69.606  1.00  0.00     0.309 A  
ENDBRANCH  24  25
ENDBRANCH  21  24
ENDBRANCH   1   8
TORSDOF 5
ENDMDL
MODEL      168
REMARK 921   NORMALIZED FREE ENERGY PREDICTED BY IDOCK:    4.45 KCAL/MOL
REMARK 922        TOTAL FREE ENERGY PREDICTED BY IDOCK:    4.61 KCAL/MOL
REMARK 923 INTER-LIGAND FREE ENERGY PREDICTED BY IDOCK:    1.80 KCAL/MOL
REMARK 924 INTRA-LIGAND FREE ENERGY PREDICTED BY IDOCK:    2.81 KCAL/MOL
REMARK 927      BINDING AFFINITY PREDICTED BY RF-SCORE:    0.00 PKD
ROOT
HETATM    1  C   UNL     1      -6.706  17.117  70.474  1.00  0.00     1.520 C  
HETATM    2  C   UNL     1      -5.542  14.902  69.853  1.00  0.00    -0.110 C  
HETATM    3  C   UNL     1      -5.129  15.913  72.081  1.00  0.00     0.352 C  
HETATM    4  C   UNL     1      -5.432  16.233  70.610  1.00  0.00    -0.106 C  
ENDROOT
BRANCH   1   5
HETATM    5  C   UNL     1      -6.534  18.509  71.137  1.00  0.00     1.663 C  
HETATM    6  H   UNL     1      -5.407  20.114  70.887  1.00  0.00     0.000 HD 
HETATM    7  O   UNL     1      -5.513  19.261  70.482  1.00  0.00    -0.217 OA 
ENDBRANCH   1   5
BRANCH   1   8
HETATM    8  N   UNL     1      -7.137  17.261  69.032  1.00  0.00    -0.242 NA 
HETATM    9  C   UNL     1      -6.652  18.329  66.882  1.00  0.00    -0.208 C  
HETATM   10  C   UNL     1      -6.623  18.276  68.223  1.00  0.00    -0.210 C  
HETATM   11  C   UNL     1      -6.069  19.499  66.190  1.00  0.00    -0.170 C  
HETATM   12  C   UNL     1      -7.245  17.186  66.175  1.00  0.00    -0.218 C  
HETATM   13  C   UNL     1      -7.732  16.046  66.982  1.00  0.00    -0.264 A  
HETATM   14  O   UNL     1      -7.339  17.204  64.949  1.00  0.00     2.136 OA 
HETATM   15  O   UNL     1      -5.496  20.408  66.776  1.00  0.00    -0.167 OA 
HETATM   16  O   UNL     1      -6.219  19.491  64.849  1.00  0.00    -0.255 OA 
HETATM   17  C   UNL     1      -7.727  16.136  68.385  1.00  0.00    -0.154 A  
HETATM   18  C   UNL     1      -8.339  15.075  69.070  1.00  0.00    -0.194 A  
HETATM   19  C   UNL     1      -8.834  13.927  68.421  1.00  0.00    -0.177 A  
HETATM   20  C   UNL     1      -8.209  14.907  66.313  1.00  0.00     0.605 A  
HETATM   21  C   UNL     1      -8.758  13.827  67.022  1.00  0.00    -0.212 A  
BRANCH  19  22
HETATM   22  O   UNL     1      -9.439  12.889  69.085  1.00  0.00     0.337 OA 
HETATM   23  C   UNL     1     -10.849  12.982  69.288  1.00  0.00     0.003 C  
ENDBRANCH  19  22
BRANCH  21  24
HETATM   24  C   UNL     1      -9.340  12.662  66.248  1.00  0.00    -0.162 C  
BRANCH  24  25
HETATM   25  C   UNL     1     -10.398  12.959  65.209  1.00  0.00    -0.315 A  
HETATM   26  C   UNL     1     -10.914  14.252  65.048  1.00  0.00    -0.387 A  
HETATM   27  C   UNL     1     -12.018  14.492  64.221  1.00  0.00    -0.397 A  
HETATM   28  F   UNL     1     -10.370  15.265  65.741  1.00  0.00    -0.273 F  
HETATM   29  C   UNL     1     -12.622  13.438  63.539  1.00  0.00    -0.126 A  
HETATM   30 CL   UNL     1     -12.674  16.077  64.067  1.00  0.00     0.772 Cl 
HETATM   31  C   UNL     1     -12.096  12.151  63.656  1.00  0.00    -0.648 A  
HETATM   32  C   UNL     1     -10.984  11.915  64.475  1.00  0.00    -0.376 A  
ENDBRANCH  24  25
ENDBRANCH  21  24
ENDBRANCH   1   8
TORSDOF 5
ENDMDL
MODEL      169
REMARK 921   NORMALIZED FREE ENERGY PREDICTED BY IDOCK:    4.75 KCAL/MOL
REMARK 922        TOTAL FREE ENERGY PREDICTED BY IDOCK:    5.00 KCAL/MOL
REMARK 923 INTER-LIGAND FREE ENERGY PREDICTED BY IDOCK:    5.26 KCAL/MOL
REMARK 924 INTRA-LIGAND FREE ENERGY PREDICTED BY IDOCK:   -0.26 KCAL/MOL
REMARK 927      BINDING AFFINITY PREDICTED BY RF-SCORE:    0.00 PKD
ROOT
HETATM    1  C   UNL     1      -7.566  12.359  68.556  1.00  0.00    -0.122 C  
HETATM    2  C   UNL     1      -8.653  11.749  70.813  1.00  0.00     7.003 C  
HETATM    3  C   UNL     1      -6.273  12.449  70.755  1.00  0.00     0.558 C  
HETATM    4  C   UNL     1      -7.374  11.727  69.964  1.00  0.00     1.055 C  
ENDROOT
BRANCH   1   5
HETATM    5  C   UNL     1      -6.305  12.216  67.665  1.00  0.00    -0.109 C  
HETATM    6  H   UNL     1      -4.843  13.375  67.009  1.00  0.00     0.000 HD 
HETATM    7  O   UNL     1      -5.616  13.462  67.554  1.00  0.00    -0.304 OA 
ENDBRANCH   1   5
BRANCH   1   8
HETATM    8  N   UNL     1      -8.784  11.801  67.853  1.00  0.00    -0.157 NA 
HETATM    9  C   UNL     1     -10.595  12.282  66.277  1.00  0.00    -0.282 C  
HETATM   10  C   UNL     1      -9.684  12.640  67.195  1.00  0.00    -0.211 C  
HETATM   11  C   UNL     1     -11.483  13.312  65.694  1.00  0.00    -0.318 C  
HETATM   12  C   UNL     1     -10.632  10.867  65.881  1.00  0.00    -0.178 C  
HETATM   13  C   UNL     1      -9.644   9.949  66.489  1.00  0.00    -0.243 A  
HETATM   14  O   UNL     1     -11.477  10.476  65.078  1.00  0.00     0.822 OA 
HETATM   15  O   UNL     1     -11.391  14.503  65.958  1.00  0.00    -0.333 OA 
HETATM   16  O   UNL     1     -12.413  12.835  64.840  1.00  0.00    -0.472 OA 
HETATM   17  C   UNL     1      -8.791  10.420  67.502  1.00  0.00    -0.134 A  
HETATM   18  C   UNL     1      -7.988   9.452  68.127  1.00  0.00    -0.091 A  
HETATM   19  C   UNL     1      -7.939   8.110  67.706  1.00  0.00    -0.127 A  
HETATM   20  C   UNL     1      -9.605   8.618  66.045  1.00  0.00    -0.265 A  
HETATM   21  C   UNL     1      -8.745   7.680  66.639  1.00  0.00    -0.150 A  
BRANCH  19  22
HETATM   22  O   UNL     1      -7.159   7.158  68.316  1.00  0.00    -0.076 OA 
HETATM   23  C   UNL     1      -6.560   7.511  69.562  1.00  0.00    -0.036 C  
ENDBRANCH  19  22
BRANCH  21  24
HETATM   24  C   UNL     1      -8.806   6.238  66.183  1.00  0.00    -0.160 C  
BRANCH  24  25
HETATM   25  C   UNL     1      -7.689   5.724  65.302  1.00  0.00    -0.093 A  
HETATM   26  C   UNL     1      -7.641   4.382  64.901  1.00  0.00    -0.073 A  
HETATM   27  C   UNL     1      -6.519   3.864  64.245  1.00  0.00    -0.041 A  
HETATM   28  F   UNL     1      -8.670   3.572  65.199  1.00  0.00    -0.108 F  
HETATM   29  C   UNL     1      -5.424   4.684  63.978  1.00  0.00    -0.013 A  
HETATM   30 CL   UNL     1      -6.450   2.202  63.797  1.00  0.00    -0.018 Cl 
HETATM   31  C   UNL     1      -5.472   6.032  64.334  1.00  0.00    -0.017 A  
HETATM   32  C   UNL     1      -6.601   6.551  64.981  1.00  0.00    -0.042 A  
ENDBRANCH  24  25
ENDBRANCH  21  24
ENDBRANCH   1   8
TORSDOF 5
ENDMDL
MODEL      170
REMARK 921   NORMALIZED FREE ENERGY PREDICTED BY IDOCK:    5.15 KCAL/MOL
REMARK 922        TOTAL FREE ENERGY PREDICTED BY IDOCK:    5.51 KCAL/MOL
REMARK 923 INTER-LIGAND FREE ENERGY PREDICTED BY IDOCK:    3.42 KCAL/MOL
REMARK 924 INTRA-LIGAND FREE ENERGY PREDICTED BY IDOCK:    2.09 KCAL/MOL
REMARK 927      BINDING AFFINITY PREDICTED BY RF-SCORE:    0.00 PKD
ROOT
HETATM    1  C   UNL     1      -7.591  10.632  70.598  1.00  0.00     1.432 C  
HETATM    2  C   UNL     1      -8.656   8.312  70.967  1.00  0.00    -0.165 C  
HETATM    3  C   UNL     1      -7.431   9.402  72.830  1.00  0.00     1.310 C  
HETATM    4  C   UNL     1      -7.485   9.248  71.303  1.00  0.00     0.012 C  
ENDROOT
BRANCH   1   5
HETATM    5  C   UNL     1      -6.343  11.518  70.845  1.00  0.00     0.816 C  
HETATM    6  H   UNL     1      -4.458  11.266  71.384  1.00  0.00     0.000 HD 
HETATM    7  O   UNL     1      -5.223  10.723  71.234  1.00  0.00    -0.096 OA 
ENDBRANCH   1   5
BRANCH   1   8
HETATM    8  N   UNL     1      -7.861  10.486  69.118  1.00  0.00    -0.128 NA 
HETATM    9  C   UNL     1      -8.194  11.680  67.005  1.00  0.00    -0.170 C  
HETATM   10  C   UNL     1      -8.241  11.584  68.343  1.00  0.00    -0.152 C  
HETATM   11  C   UNL     1      -8.657  12.923  66.349  1.00  0.00     0.240 C  
HETATM   12  C   UNL     1      -7.645  10.534  66.266  1.00  0.00    -0.133 C  
HETATM   13  C   UNL     1      -7.152   9.377  67.044  1.00  0.00    -0.086 A  
HETATM   14  O   UNL     1      -7.620  10.551  65.037  1.00  0.00    -0.121 OA 
HETATM   15  O   UNL     1      -9.030  13.909  66.970  1.00  0.00    -0.227 OA 
HETATM   16  O   UNL     1      -8.639  12.887  65.000  1.00  0.00     1.792 OA 
HETATM   17  C   UNL     1      -7.329   9.351  68.439  1.00  0.00    -0.077 A  
HETATM   18  C   UNL     1      -6.967   8.157  69.082  1.00  0.00    -0.060 A  
HETATM   19  C   UNL     1      -6.357   7.081  68.411  1.00  0.00    -0.035 A  
HETATM   20  C   UNL     1      -6.535   8.320  66.356  1.00  0.00    -0.054 A  
HETATM   21  C   UNL     1      -6.120   7.160  67.029  1.00  0.00    -0.041 A  
BRANCH  19  22
HETATM   22  O   UNL     1      -6.006   5.908  69.033  1.00  0.00    -0.018 OA 
HETATM   23  C   UNL     1      -6.979   5.310  69.889  1.00  0.00    -0.057 C  
ENDBRANCH  19  22
BRANCH  21  24
HETATM   24  C   UNL     1      -5.542   6.014  66.226  1.00  0.00    -0.016 C  
BRANCH  24  25
HETATM   25  C   UNL     1      -6.320   4.718  66.178  1.00  0.00    -0.036 A  
HETATM   26  C   UNL     1      -7.611   4.667  65.634  1.00  0.00    -0.082 A  
HETATM   27  C   UNL     1      -8.402   3.519  65.755  1.00  0.00    -0.106 A  
HETATM   28  F   UNL     1      -8.111   5.758  65.032  1.00  0.00    -0.103 F  
HETATM   29  C   UNL     1      -7.910   2.399  66.424  1.00  0.00    -0.076 A  
HETATM   30 CL   UNL     1     -10.004   3.482  65.123  1.00  0.00    -0.086 Cl 
HETATM   31  C   UNL     1      -6.613   2.419  66.936  1.00  0.00    -0.039 A  
HETATM   32  C   UNL     1      -5.820   3.565  66.804  1.00  0.00    -0.023 A  
ENDBRANCH  24  25
ENDBRANCH  21  24
ENDBRANCH   1   8
TORSDOF 5
ENDMDL
MODEL      171
REMARK 921   NORMALIZED FREE ENERGY PREDICTED BY IDOCK:    6.27 KCAL/MOL
REMARK 922        TOTAL FREE ENERGY PREDICTED BY IDOCK:    6.96 KCAL/MOL
REMARK 923 INTER-LIGAND FREE ENERGY PREDICTED BY IDOCK:    6.03 KCAL/MOL
REMARK 924 INTRA-LIGAND FREE ENERGY PREDICTED BY IDOCK:    0.93 KCAL/MOL
REMARK 927      BINDING AFFINITY PREDICTED BY RF-SCORE:    0.00 PKD
ROOT
HETATM    1  C   UNL     1      -9.862   5.245  67.953  1.00  0.00    -0.149 C  
HETATM    2  C   UNL     1      -8.577   5.870  70.099  1.00  0.00    -0.134 C  
HETATM    3  C   UNL     1     -10.855   4.904  70.280  1.00  0.00     0.437 C  
HETATM    4  C   UNL     1      -9.947   5.785  69.410  1.00  0.00    -0.244 C  
ENDROOT
BRANCH   1   5
HETATM    5  C   UNL     1     -11.232   5.283  67.227  1.00  0.00     1.120 C  
HETATM    6  H   UNL     1     -12.131   4.317  65.756  1.00  0.00     0.000 HD 
HETATM    7  O   UNL     1     -11.292   4.294  66.200  1.00  0.00     1.320 OA 
ENDBRANCH   1   5
BRANCH   1   8
HETATM    8  N   UNL     1      -8.809   5.973  67.147  1.00  0.00    -0.109 NA 
HETATM    9  C   UNL     1      -7.597   6.048  65.021  1.00  0.00    -0.090 C  
HETATM   10  C   UNL     1      -8.269   5.408  65.990  1.00  0.00    -0.116 C  
HETATM   11  C   UNL     1      -7.079   5.279  63.868  1.00  0.00    -0.049 C  
HETATM   12  C   UNL     1      -7.444   7.503  65.155  1.00  0.00    -0.085 C  
HETATM   13  C   UNL     1      -8.068   8.164  66.321  1.00  0.00    -0.107 A  
HETATM   14  O   UNL     1      -6.798   8.133  64.318  1.00  0.00    -0.064 OA 
HETATM   15  O   UNL     1      -7.285   4.083  63.713  1.00  0.00    -0.049 OA 
HETATM   16  O   UNL     1      -6.353   6.003  62.990  1.00  0.00    -0.025 OA 
HETATM   17  C   UNL     1      -8.677   7.382  67.319  1.00  0.00    -0.121 A  
HETATM   18  C   UNL     1      -9.113   8.073  68.459  1.00  0.00    -0.136 A  
HETATM   19  C   UNL     1      -9.060   9.475  68.573  1.00  0.00    -0.131 A  
HETATM   20  C   UNL     1      -8.013   9.564  66.407  1.00  0.00    -0.111 A  
HETATM   21  C   UNL     1      -8.516  10.242  67.529  1.00  0.00    -0.118 A  
BRANCH  19  22
HETATM   22  O   UNL     1      -9.480  10.157  69.689  1.00  0.00    -0.222 OA 
HETATM   23  C   UNL     1      -9.719   9.388  70.867  1.00  0.00    -0.250 C  
ENDBRANCH  19  22
BRANCH  21  24
HETATM   24  C   UNL     1      -8.352  11.745  67.612  1.00  0.00    -0.145 C  
BRANCH  24  25
HETATM   25  C   UNL     1      -9.010  12.591  66.545  1.00  0.00    -0.133 A  
HETATM   26  C   UNL     1     -10.375  12.459  66.255  1.00  0.00    -0.244 A  
HETATM   27  C   UNL     1     -10.944  13.102  65.150  1.00  0.00    -0.298 A  
HETATM   28  F   UNL     1     -11.133  11.660  67.022  1.00  0.00    -0.278 F  
HETATM   29  C   UNL     1     -10.154  13.891  64.317  1.00  0.00     0.561 A  
HETATM   30 CL   UNL     1     -12.613  12.896  64.774  1.00  0.00    -0.507 Cl 
HETATM   31  C   UNL     1      -8.802  14.067  64.615  1.00  0.00     4.168 A  
HETATM   32  C   UNL     1      -8.237  13.431  65.728  1.00  0.00     2.337 A  
ENDBRANCH  24  25
ENDBRANCH  21  24
ENDBRANCH   1   8
TORSDOF 5
ENDMDL
MODEL      172
REMARK 921   NORMALIZED FREE ENERGY PREDICTED BY IDOCK:    6.42 KCAL/MOL
REMARK 922        TOTAL FREE ENERGY PREDICTED BY IDOCK:    7.15 KCAL/MOL
REMARK 923 INTER-LIGAND FREE ENERGY PREDICTED BY IDOCK:    3.94 KCAL/MOL
REMARK 924 INTRA-LIGAND FREE ENERGY PREDICTED BY IDOCK:    3.21 KCAL/MOL
REMARK 927      BINDING AFFINITY PREDICTED BY RF-SCORE:    0.00 PKD
ROOT
HETATM    1  C   UNL     1      -8.098  17.956  68.781  1.00  0.00    -0.232 C  
HETATM    2  C   UNL     1      -6.286  16.903  70.282  1.00  0.00     0.357 C  
HETATM    3  C   UNL     1      -5.764  18.964  69.005  1.00  0.00    -0.225 C  
HETATM    4  C   UNL     1      -6.583  17.665  68.983  1.00  0.00    -0.244 C  
ENDROOT
BRANCH   1   5
HETATM    5  C   UNL     1      -8.397  18.614  67.408  1.00  0.00    -0.260 C  
HETATM    6  H   UNL     1      -9.869  19.628  66.567  1.00  0.00     0.000 HD 
HETATM    7  O   UNL     1      -9.687  19.225  67.407  1.00  0.00    -0.307 OA 
ENDBRANCH   1   5
BRANCH   1   8
HETATM    8  N   UNL     1      -8.937  16.712  68.972  1.00  0.00    -0.240 NA 
HETATM    9  C   UNL     1     -11.209  15.836  69.235  1.00  0.00    -0.324 C  
HETATM   10  C   UNL     1     -10.279  16.797  69.347  1.00  0.00    -0.225 C  
HETATM   11  C   UNL     1     -12.587  16.101  69.703  1.00  0.00     0.742 C  
HETATM   12  C   UNL     1     -10.797  14.569  68.615  1.00  0.00    -0.251 C  
HETATM   13  C   UNL     1      -9.406  14.455  68.126  1.00  0.00    -0.203 A  
HETATM   14  O   UNL     1     -11.596  13.639  68.529  1.00  0.00    -0.289 OA 
HETATM   15  O   UNL     1     -12.950  17.186  70.137  1.00  0.00     4.859 OA 
HETATM   16  O   UNL     1     -13.423  15.045  69.617  1.00  0.00     0.760 OA 
HETATM   17  C   UNL     1      -8.495  15.497  68.372  1.00  0.00    -0.163 A  
HETATM   18  C   UNL     1      -7.163  15.247  68.006  1.00  0.00    -0.138 A  
HETATM   19  C   UNL     1      -6.760  14.080  67.329  1.00  0.00     0.252 A  
HETATM   20  C   UNL     1      -9.030  13.287  67.443  1.00  0.00    -0.215 A  
HETATM   21  C   UNL     1      -7.704  13.085  67.026  1.00  0.00     0.052 A  
BRANCH  19  22
HETATM   22  O   UNL     1      -5.458  13.828  66.974  1.00  0.00     0.020 OA 
HETATM   23  C   UNL     1      -5.151  12.506  66.530  1.00  0.00     0.892 C  
ENDBRANCH  19  22
BRANCH  21  24
HETATM   24  C   UNL     1      -7.333  11.770  66.374  1.00  0.00     0.198 C  
BRANCH  24  25
HETATM   25  C   UNL     1      -7.842  10.495  67.007  1.00  0.00    -0.114 A  
HETATM   26  C   UNL     1      -6.967   9.598  67.636  1.00  0.00    -0.087 A  
HETATM   27  C   UNL     1      -7.404   8.337  68.057  1.00  0.00    -0.096 A  
HETATM   28  F   UNL     1      -5.677   9.939  67.787  1.00  0.00    -0.040 F  
HETATM   29  C   UNL     1      -8.729   7.954  67.857  1.00  0.00    -0.124 A  
HETATM   30 CL   UNL     1      -6.310   7.224  68.786  1.00  0.00    -0.034 Cl 
HETATM   31  C   UNL     1      -9.622   8.849  67.270  1.00  0.00    -0.212 A  
HETATM   32  C   UNL     1      -9.185  10.115  66.859  1.00  0.00    -0.168 A  
ENDBRANCH  24  25
ENDBRANCH  21  24
ENDBRANCH   1   8
TORSDOF 5
ENDMDL
MODEL      173
REMARK 921   NORMALIZED FREE ENERGY PREDICTED BY IDOCK:    7.48 KCAL/MOL
REMARK 922        TOTAL FREE ENERGY PREDICTED BY IDOCK:    8.53 KCAL/MOL
REMARK 923 INTER-LIGAND FREE ENERGY PREDICTED BY IDOCK:    2.21 KCAL/MOL
REMARK 924 INTRA-LIGAND FREE ENERGY PREDICTED BY IDOCK:    6.32 KCAL/MOL
REMARK 927      BINDING AFFINITY PREDICTED BY RF-SCORE:    0.00 PKD
ROOT
HETATM    1  C   UNL     1      -9.682   5.966  67.618  1.00  0.00    -0.115 C  
HETATM    2  C   UNL     1      -8.244   5.123  69.585  1.00  0.00    -0.093 C  
HETATM    3  C   UNL     1     -10.231   3.815  68.879  1.00  0.00     0.736 C  
HETATM    4  C   UNL     1      -9.656   5.235  68.991  1.00  0.00    -0.199 C  
ENDROOT
BRANCH   1   5
HETATM    5  C   UNL     1     -11.124   6.183  67.090  1.00  0.00    -0.242 C  
HETATM    6  H   UNL     1     -12.769   7.108  67.678  1.00  0.00     0.000 HD 
HETATM    7  O   UNL     1     -11.885   6.975  68.001  1.00  0.00     0.814 OA 
ENDBRANCH   1   5
BRANCH   1   8
HETATM    8  N   UNL     1      -8.927   7.275  67.666  1.00  0.00    -0.126 NA 
HETATM    9  C   UNL     1      -7.293   8.701  66.528  1.00  0.00    -0.081 C  
HETATM   10  C   UNL     1      -7.837   7.511  66.826  1.00  0.00    -0.110 C  
HETATM   11  C   UNL     1      -6.122   8.758  65.625  1.00  0.00    -0.052 C  
HETATM   12  C   UNL     1      -7.928   9.895  67.102  1.00  0.00    -0.109 C  
HETATM   13  C   UNL     1      -9.136   9.708  67.934  1.00  0.00    -0.130 A  
HETATM   14  O   UNL     1      -7.444  11.007  66.898  1.00  0.00    -0.119 OA 
HETATM   15  O   UNL     1      -5.650   7.772  65.077  1.00  0.00    -0.036 OA 
HETATM   16  O   UNL     1      -5.606   9.993  65.452  1.00  0.00    -0.057 OA 
HETATM   17  C   UNL     1      -9.568   8.407  68.250  1.00  0.00    -0.144 A  
HETATM   18  C   UNL     1     -10.631   8.317  69.161  1.00  0.00    -0.179 A  
HETATM   19  C   UNL     1     -11.314   9.445  69.656  1.00  0.00     0.008 A  
HETATM   20  C   UNL     1      -9.808  10.847  68.406  1.00  0.00    -0.183 A  
HETATM   21  C   UNL     1     -10.913  10.733  69.266  1.00  0.00    -0.292 A  
BRANCH  19  22
HETATM   22  O   UNL     1     -12.351   9.364  70.552  1.00  0.00    -0.115 OA 
HETATM   23  C   UNL     1     -12.595  10.509  71.368  1.00  0.00    -0.434 C  
ENDBRANCH  19  22
BRANCH  21  24
HETATM   24  C   UNL     1     -11.545  11.993  69.817  1.00  0.00    -0.348 C  
BRANCH  24  25
HETATM   25  C   UNL     1     -11.897  13.095  68.843  1.00  0.00    -0.361 A  
HETATM   26  C   UNL     1     -11.070  13.388  67.749  1.00  0.00    -0.268 A  
HETATM   27  C   UNL     1     -11.292  14.519  66.956  1.00  0.00    -0.349 A  
HETATM   28  F   UNL     1     -10.018  12.593  67.494  1.00  0.00    -0.197 F  
HETATM   29  C   UNL     1     -12.351  15.378  67.246  1.00  0.00     0.938 A  
HETATM   30 CL   UNL     1     -10.243  14.894  65.643  1.00  0.00    -0.353 Cl 
HETATM   31  C   UNL     1     -13.208  15.081  68.305  1.00  0.00     3.133 A  
HETATM   32  C   UNL     1     -12.989  13.941  69.091  1.00  0.00     1.275 A  
ENDBRANCH  24  25
ENDBRANCH  21  24
ENDBRANCH   1   8
TORSDOF 5
ENDMDL
MODEL      174
REMARK 921   NORMALIZED FREE ENERGY PREDICTED BY IDOCK:    8.95 KCAL/MOL
REMARK 922        TOTAL FREE ENERGY PREDICTED BY IDOCK:   10.42 KCAL/MOL
REMARK 923 INTER-LIGAND FREE ENERGY PREDICTED BY IDOCK:    8.94 KCAL/MOL
REMARK 924 INTRA-LIGAND FREE ENERGY PREDICTED BY IDOCK:    1.49 KCAL/MOL
REMARK 927      BINDING AFFINITY PREDICTED BY RF-SCORE:    0.00 PKD
ROOT
HETATM    1  C   UNL     1      -9.468  15.102  69.240  1.00  0.00    -0.212 C  
HETATM    2  C   UNL     1      -8.184  16.950  67.980  1.00  0.00    -0.203 C  
HETATM    3  C   UNL     1     -10.655  16.830  67.783  1.00  0.00    -0.341 C  
HETATM    4  C   UNL     1      -9.382  15.990  67.964  1.00  0.00    -0.202 C  
ENDROOT
BRANCH   1   5
HETATM    5  C   UNL     1     -10.606  14.052  69.155  1.00  0.00    -0.128 C  
HETATM    6  H   UNL     1     -10.781  12.084  69.204  1.00  0.00     0.000 HD 
HETATM    7  O   UNL     1     -10.084  12.727  69.255  1.00  0.00     0.238 OA 
ENDBRANCH   1   5
BRANCH   1   8
HETATM    8  N   UNL     1      -8.145  14.435  69.547  1.00  0.00     0.170 NA 
HETATM    9  C   UNL     1      -6.689  13.571  71.315  1.00  0.00     1.892 C  
HETATM   10  C   UNL     1      -7.648  14.387  70.850  1.00  0.00     2.112 C  
HETATM   11  C   UNL     1      -6.274  13.672  72.732  1.00  0.00     1.563 C  
HETATM   12  C   UNL     1      -6.125  12.590  70.378  1.00  0.00    -0.014 C  
HETATM   13  C   UNL     1      -6.675  12.544  69.006  1.00  0.00    -0.098 A  
HETATM   14  O   UNL     1      -5.213  11.848  70.740  1.00  0.00    -0.115 OA 
HETATM   15  O   UNL     1      -6.807  14.428  73.533  1.00  0.00     1.165 OA 
HETATM   16  O   UNL     1      -5.252  12.862  73.078  1.00  0.00    -0.378 OA 
HETATM   17  C   UNL     1      -7.620  13.504  68.604  1.00  0.00    -0.108 A  
HETATM   18  C   UNL     1      -7.980  13.480  67.247  1.00  0.00    -0.125 A  
HETATM   19  C   UNL     1      -7.523  12.496  66.350  1.00  0.00     0.894 A  
HETATM   20  C   UNL     1      -6.214  11.546  68.132  1.00  0.00    -0.045 A  
HETATM   21  C   UNL     1      -6.637  11.500  66.795  1.00  0.00    -0.119 A  
BRANCH  19  22
HETATM   22  O   UNL     1      -7.867  12.471  65.021  1.00  0.00     3.032 OA 
HETATM   23  C   UNL     1      -9.091  11.822  64.679  1.00  0.00     0.338 C  
ENDBRANCH  19  22
BRANCH  21  24
HETATM   24  C   UNL     1      -6.042  10.458  65.872  1.00  0.00    -0.113 C  
BRANCH  24  25
HETATM   25  C   UNL     1      -5.744   9.090  66.444  1.00  0.00    -0.050 A  
HETATM   26  C   UNL     1      -5.974   7.926  65.698  1.00  0.00    -0.038 A  
HETATM   27  C   UNL     1      -5.876   6.660  66.286  1.00  0.00    -0.025 A  
HETATM   28  F   UNL     1      -6.344   8.036  64.412  1.00  0.00    -0.054 F  
HETATM   29  C   UNL     1      -5.544   6.539  67.634  1.00  0.00    -0.005 A  
HETATM   30 CL   UNL     1      -6.206   5.237  65.372  1.00  0.00    -0.033 Cl 
HETATM   31  C   UNL     1      -5.272   7.685  68.380  1.00  0.00    -0.026 A  
HETATM   32  C   UNL     1      -5.360   8.951  67.787  1.00  0.00    -0.035 A  
ENDBRANCH  24  25
ENDBRANCH  21  24
ENDBRANCH   1   8
TORSDOF 5
ENDMDL
MODEL      175
REMARK 921   NORMALIZED FREE ENERGY PREDICTED BY IDOCK:    9.32 KCAL/MOL
REMARK 922        TOTAL FREE ENERGY PREDICTED BY IDOCK:   10.90 KCAL/MOL
REMARK 923 INTER-LIGAND FREE ENERGY PREDICTED BY IDOCK:    7.57 KCAL/MOL
REMARK 924 INTRA-LIGAND FREE ENERGY PREDICTED BY IDOCK:    3.33 KCAL/MOL
REMARK 927      BINDING AFFINITY PREDICTED BY RF-SCORE:    0.00 PKD
ROOT
HETATM    1  C   UNL     1     -11.145  14.415  71.187  1.00  0.00     0.630 C  
HETATM    2  C   UNL     1     -12.346  16.684  70.950  1.00  0.00     1.580 C  
HETATM    3  C   UNL     1     -13.489  14.816  72.115  1.00  0.00    -0.491 C  
HETATM    4  C   UNL     1     -12.498  15.157  70.992  1.00  0.00    -0.419 C  
ENDROOT
BRANCH   1   5
HETATM    5  C   UNL     1     -11.297  12.874  71.101  1.00  0.00     2.301 C  
HETATM    6  H   UNL     1     -12.698  11.525  71.455  1.00  0.00     0.000 HD 
HETATM    7  O   UNL     1     -12.604  12.468  71.507  1.00  0.00    -0.267 OA 
ENDBRANCH   1   5
BRANCH   1   8
HETATM    8  N   UNL     1     -10.094  14.903  70.215  1.00  0.00     0.156 NA 
HETATM    9  C   UNL     1      -7.694  15.178  69.816  1.00  0.00    -0.066 C  
HETATM   10  C   UNL     1      -8.768  15.076  70.614  1.00  0.00     1.798 C  
HETATM   11  C   UNL     1      -6.357  15.376  70.419  1.00  0.00     0.036 C  
HETATM   12  C   UNL     1      -7.916  15.054  68.369  1.00  0.00    -0.131 C  
HETATM   13  C   UNL     1      -9.292  14.790  67.897  1.00  0.00    -0.193 A  
HETATM   14  O   UNL     1      -6.973  15.185  67.589  1.00  0.00    -0.151 OA 
HETATM   15  O   UNL     1      -6.162  15.389  71.627  1.00  0.00     0.744 OA 
HETATM   16  O   UNL     1      -5.357  15.544  69.528  1.00  0.00    -0.098 OA 
HETATM   17  C   UNL     1     -10.354  14.785  68.819  1.00  0.00    -0.248 A  
HETATM   18  C   UNL     1     -11.641  14.673  68.271  1.00  0.00    -0.353 A  
HETATM   19  C   UNL     1     -11.875  14.463  66.899  1.00  0.00    -0.410 A  
HETATM   20  C   UNL     1      -9.499  14.570  66.525  1.00  0.00    -0.310 A  
HETATM   21  C   UNL     1     -10.792  14.394  66.007  1.00  0.00    -0.309 A  
BRANCH  19  22
HETATM   22  O   UNL     1     -13.132  14.358  66.357  1.00  0.00     0.246 OA 
HETATM   23  C   UNL     1     -13.372  13.255  65.482  1.00  0.00     0.815 C  
ENDBRANCH  19  22
BRANCH  21  24
HETATM   24  C   UNL     1     -10.968  14.251  64.510  1.00  0.00    -0.311 C  
BRANCH  24  25
HETATM   25  C   UNL     1     -11.014  12.854  63.931  1.00  0.00    -0.422 A  
HETATM   26  C   UNL     1      -9.937  11.970  64.085  1.00  0.00    -0.263 A  
HETATM   27  C   UNL     1      -9.898  10.752  63.398  1.00  0.00    -0.349 A  
HETATM   28  F   UNL     1      -8.904  12.326  64.866  1.00  0.00     0.363 F  
HETATM   29  C   UNL     1     -10.941  10.397  62.545  1.00  0.00     2.169 A  
HETATM   30 CL   UNL     1      -8.548   9.693  63.558  1.00  0.00    -0.194 Cl 
HETATM   31  C   UNL     1     -12.039  11.246  62.411  1.00  0.00     2.071 A  
HETATM   32  C   UNL     1     -12.081  12.461  63.108  1.00  0.00    -0.353 A  
ENDBRANCH  24  25
ENDBRANCH  21  24
ENDBRANCH   1   8
TORSDOF 5
ENDMDL
MODEL      176
REMARK 921   NORMALIZED FREE ENERGY PREDICTED BY IDOCK:   10.24 KCAL/MOL
REMARK 922        TOTAL FREE ENERGY PREDICTED BY IDOCK:   12.09 KCAL/MOL
REMARK 923 INTER-LIGAND FREE ENERGY PREDICTED BY IDOCK:    2.56 KCAL/MOL
REMARK 924 INTRA-LIGAND FREE ENERGY PREDICTED BY IDOCK:    9.53 KCAL/MOL
REMARK 927      BINDING AFFINITY PREDICTED BY RF-SCORE:    0.00 PKD
ROOT
HETATM    1  C   UNL     1     -10.926  11.472  70.566  1.00  0.00     1.130 C  
HETATM    2  C   UNL     1     -11.315  12.980  68.511  1.00  0.00    -0.323 C  
HETATM    3  C   UNL     1     -11.501  13.949  70.787  1.00  0.00     0.187 C  
HETATM    4  C   UNL     1     -11.712  12.671  69.962  1.00  0.00    -0.289 C  
ENDROOT
BRANCH   1   5
HETATM    5  C   UNL     1     -11.424  11.091  71.984  1.00  0.00     3.123 C  
HETATM    6  H   UNL     1     -11.033   9.714  73.347  1.00  0.00     0.000 HD 
HETATM    7  O   UNL     1     -10.729   9.947  72.478  1.00  0.00     1.982 OA 
ENDBRANCH   1   5
BRANCH   1   8
HETATM    8  N   UNL     1     -10.950  10.269  69.649  1.00  0.00    -0.252 NA 
HETATM    9  C   UNL     1     -10.494   9.452  67.386  1.00  0.00    -0.343 C  
HETATM   10  C   UNL     1     -10.816  10.412  68.267  1.00  0.00    -0.254 C  
HETATM   11  C   UNL     1     -10.413   9.786  65.947  1.00  0.00     0.043 C  
HETATM   12  C   UNL     1     -10.209   8.114  67.921  1.00  0.00    -0.218 C  
HETATM   13  C   UNL     1     -10.258   7.927  69.388  1.00  0.00    -0.206 A  
HETATM   14  O   UNL     1      -9.953   7.187  67.155  1.00  0.00    -0.174 OA 
HETATM   15  O   UNL     1     -10.564  10.920  65.512  1.00  0.00    -0.243 OA 
HETATM   16  O   UNL     1     -10.160   8.735  65.139  1.00  0.00     0.747 OA 
HETATM   17  C   UNL     1     -10.688   8.984  70.209  1.00  0.00    -0.230 A  
HETATM   18  C   UNL     1     -10.845   8.679  71.570  1.00  0.00    -0.352 A  
HETATM   19  C   UNL     1     -10.493   7.433  72.121  1.00  0.00    -0.209 A  
HETATM   20  C   UNL     1      -9.889   6.680  69.917  1.00  0.00    -0.180 A  
HETATM   21  C   UNL     1      -9.992   6.416  71.292  1.00  0.00    -0.204 A  
BRANCH  19  22
HETATM   22  O   UNL     1     -10.650   7.127  73.451  1.00  0.00    -0.325 OA 
HETATM   23  C   UNL     1      -9.710   6.218  74.023  1.00  0.00    -0.210 C  
ENDBRANCH  19  22
BRANCH  21  24
HETATM   24  C   UNL     1      -9.667   5.027  71.798  1.00  0.00    -0.218 C  
BRANCH  24  25
HETATM   25  C   UNL     1      -8.242   4.737  72.212  1.00  0.00    -0.115 A  
HETATM   26  C   UNL     1      -7.911   3.563  72.902  1.00  0.00    -0.070 A  
HETATM   27  C   UNL     1      -6.635   3.379  73.446  1.00  0.00    -0.030 A  
HETATM   28  F   UNL     1      -8.854   2.624  73.086  1.00  0.00    -0.075 F  
HETATM   29  C   UNL     1      -5.666   4.371  73.306  1.00  0.00    -0.008 A  
HETATM   30 CL   UNL     1      -6.253   1.952  74.333  1.00  0.00    -0.004 Cl 
HETATM   31  C   UNL     1      -5.965   5.528  72.587  1.00  0.00    -0.031 A  
HETATM   32  C   UNL     1      -7.240   5.705  72.034  1.00  0.00    -0.088 A  
ENDBRANCH  24  25
ENDBRANCH  21  24
ENDBRANCH   1   8
TORSDOF 5
ENDMDL
MODEL      177
REMARK 921   NORMALIZED FREE ENERGY PREDICTED BY IDOCK:   11.32 KCAL/MOL
REMARK 922        TOTAL FREE ENERGY PREDICTED BY IDOCK:   13.49 KCAL/MOL
REMARK 923 INTER-LIGAND FREE ENERGY PREDICTED BY IDOCK:   12.47 KCAL/MOL
REMARK 924 INTRA-LIGAND FREE ENERGY PREDICTED BY IDOCK:    1.02 KCAL/MOL
REMARK 927      BINDING AFFINITY PREDICTED BY RF-SCORE:    0.00 PKD
ROOT
HETATM    1  C   UNL     1      -8.917  16.907  67.782  1.00  0.00    -0.225 C  
HETATM    2  C   UNL     1      -8.312  14.979  69.384  1.00  0.00    -0.141 C  
HETATM    3  C   UNL     1      -6.813  16.950  69.229  1.00  0.00    -0.228 C  
HETATM    4  C   UNL     1      -7.783  16.063  68.434  1.00  0.00    -0.147 C  
ENDROOT
BRANCH   1   5
HETATM    5  C   UNL     1      -8.377  17.912  66.732  1.00  0.00    -0.252 C  
HETATM    6  H   UNL     1      -8.444  18.150  64.771  1.00  0.00     0.000 HD 
HETATM    7  O   UNL     1      -8.774  17.534  65.414  1.00  0.00     0.105 OA 
ENDBRANCH   1   5
BRANCH   1   8
HETATM    8  N   UNL     1      -9.992  16.030  67.180  1.00  0.00    -0.244 NA 
HETATM    9  C   UNL     1     -10.558  14.512  65.344  1.00  0.00    -0.385 C  
HETATM   10  C   UNL     1      -9.875  15.535  65.880  1.00  0.00    -0.353 C  
HETATM   11  C   UNL     1     -10.313  14.135  63.935  1.00  0.00     1.640 C  
HETATM   12  C   UNL     1     -11.500  13.799  66.218  1.00  0.00    -0.335 C  
HETATM   13  C   UNL     1     -11.602  14.231  67.629  1.00  0.00    -0.396 A  
HETATM   14  O   UNL     1     -12.184  12.882  65.766  1.00  0.00    -0.444 OA 
HETATM   15  O   UNL     1      -9.465  14.672  63.235  1.00  0.00     7.010 OA 
HETATM   16  O   UNL     1     -11.106  13.145  63.471  1.00  0.00    -0.255 OA 
HETATM   17  C   UNL     1     -10.900  15.370  68.059  1.00  0.00    -0.292 A  
HETATM   18  C   UNL     1     -11.166  15.797  69.370  1.00  0.00    -0.324 A  
HETATM   19  C   UNL     1     -11.994  15.081  70.255  1.00  0.00    -0.315 A  
HETATM   20  C   UNL     1     -12.424  13.494  68.497  1.00  0.00     0.307 A  
HETATM   21  C   UNL     1     -12.625  13.902  69.825  1.00  0.00    -0.113 A  
BRANCH  19  22
HETATM   22  O   UNL     1     -12.262  15.496  71.536  1.00  0.00    -0.327 OA 
HETATM   23  C   UNL     1     -11.148  15.874  72.343  1.00  0.00     0.548 C  
ENDBRANCH  19  22
BRANCH  21  24
HETATM   24  C   UNL     1     -13.591  13.123  70.693  1.00  0.00     0.934 C  
BRANCH  24  25
HETATM   25  C   UNL     1     -13.389  11.629  70.815  1.00  0.00     0.572 A  
HETATM   26  C   UNL     1     -12.158  11.095  71.223  1.00  0.00    -0.097 A  
HETATM   27  C   UNL     1     -11.911   9.719  71.159  1.00  0.00    -0.382 A  
HETATM   28  F   UNL     1     -11.187  11.927  71.632  1.00  0.00     1.855 F  
HETATM   29  C   UNL     1     -12.895   8.853  70.687  1.00  0.00     0.360 A  
HETATM   30 CL   UNL     1     -10.380   9.078  71.619  1.00  0.00    -0.407 Cl 
HETATM   31  C   UNL     1     -14.139   9.363  70.315  1.00  0.00     1.237 A  
HETATM   32  C   UNL     1     -14.388  10.740  70.390  1.00  0.00     3.561 A  
ENDBRANCH  24  25
ENDBRANCH  21  24
ENDBRANCH   1   8
TORSDOF 5
ENDMDL
MODEL      178
REMARK 921   NORMALIZED FREE ENERGY PREDICTED BY IDOCK:   12.40 KCAL/MOL
REMARK 922        TOTAL FREE ENERGY PREDICTED BY IDOCK:   14.88 KCAL/MOL
REMARK 923 INTER-LIGAND FREE ENERGY PREDICTED BY IDOCK:   13.86 KCAL/MOL
REMARK 924 INTRA-LIGAND FREE ENERGY PREDICTED BY IDOCK:    1.02 KCAL/MOL
REMARK 927      BINDING AFFINITY PREDICTED BY RF-SCORE:    0.00 PKD
ROOT
HETATM    1  C   UNL     1      -7.510  13.771  71.057  1.00  0.00     3.382 C  
HETATM    2  C   UNL     1      -5.714  12.028  70.436  1.00  0.00    -0.168 C  
HETATM    3  C   UNL     1      -5.437  13.382  72.497  1.00  0.00     0.119 C  
HETATM    4  C   UNL     1      -5.999  13.398  71.067  1.00  0.00     0.023 C  
ENDROOT
BRANCH   1   5
HETATM    5  C   UNL     1      -7.769  15.207  71.581  1.00  0.00     3.882 C  
HETATM    6  H   UNL     1      -6.743  16.881  71.818  1.00  0.00     0.000 HD 
HETATM    7  O   UNL     1      -6.585  16.001  71.498  1.00  0.00     1.920 OA 
ENDBRANCH   1   5
BRANCH   1   8
HETATM    8  N   UNL     1      -8.123  13.582  69.688  1.00  0.00     0.952 NA 
HETATM    9  C   UNL     1     -10.063  12.744  68.450  1.00  0.00    -0.226 C  
HETATM   10  C   UNL     1      -9.231  12.752  69.503  1.00  0.00     1.626 C  
HETATM   11  C   UNL     1     -11.182  11.777  68.417  1.00  0.00    -0.251 C  
HETATM   12  C   UNL     1      -9.821  13.735  67.392  1.00  0.00    -0.238 C  
HETATM   13  C   UNL     1      -8.709  14.691  67.577  1.00  0.00    -0.194 A  
HETATM   14  O   UNL     1     -10.525  13.741  66.384  1.00  0.00    -0.277 OA 
HETATM   15  O   UNL     1     -11.435  11.013  69.338  1.00  0.00    -0.240 OA 
HETATM   16  O   UNL     1     -11.910  11.798  67.280  1.00  0.00    -0.596 OA 
HETATM   17  C   UNL     1      -7.850  14.553  68.682  1.00  0.00    -0.140 A  
HETATM   18  C   UNL     1      -6.737  15.408  68.705  1.00  0.00    -0.102 A  
HETATM   19  C   UNL     1      -6.532  16.424  67.753  1.00  0.00    -0.138 A  
HETATM   20  C   UNL     1      -8.530  15.705  66.622  1.00  0.00    -0.323 A  
HETATM   21  C   UNL     1      -7.446  16.593  66.699  1.00  0.00    -0.311 A  
BRANCH  19  22
HETATM   22  O   UNL     1      -5.441  17.260  67.766  1.00  0.00    -0.112 OA 
HETATM   23  C   UNL     1      -5.319  18.149  68.876  1.00  0.00    -0.190 C  
ENDBRANCH  19  22
BRANCH  21  24
HETATM   24  C   UNL     1      -7.250  17.610  65.595  1.00  0.00     0.083 C  
BRANCH  24  25
HETATM   25  C   UNL     1      -7.942  18.947  65.731  1.00  0.00     0.083 A  
HETATM   26  C   UNL     1      -8.955  19.146  66.679  1.00  0.00    -0.328 A  
HETATM   27  C   UNL     1      -9.721  20.317  66.684  1.00  0.00    -0.414 A  
HETATM   28  F   UNL     1      -9.225  18.172  67.562  1.00  0.00    -0.252 F  
HETATM   29  C   UNL     1      -9.482  21.312  65.738  1.00  0.00     2.403 A  
HETATM   30 CL   UNL     1     -10.995  20.532  67.824  1.00  0.00     0.411 Cl 
HETATM   31  C   UNL     1      -8.451  21.148  64.813  1.00  0.00     2.388 A  
HETATM   32  C   UNL     1      -7.678  19.980  64.817  1.00  0.00     1.086 A  
ENDBRANCH  24  25
ENDBRANCH  21  24
ENDBRANCH   1   8
TORSDOF 5
ENDMDL
MODEL      179
REMARK 921   NORMALIZED FREE ENERGY PREDICTED BY IDOCK:   16.24 KCAL/MOL
REMARK 922        TOTAL FREE ENERGY PREDICTED BY IDOCK:   19.85 KCAL/MOL
REMARK 923 INTER-LIGAND FREE ENERGY PREDICTED BY IDOCK:   11.84 KCAL/MOL
REMARK 924 INTRA-LIGAND FREE ENERGY PREDICTED BY IDOCK:    8.01 KCAL/MOL
REMARK 927      BINDING AFFINITY PREDICTED BY RF-SCORE:    0.00 PKD
ROOT
HETATM    1  C   UNL     1      -9.769  10.421  64.836  1.00  0.00    -0.309 C  
HETATM    2  C   UNL     1     -11.158  12.575  64.549  1.00  0.00    -0.357 C  
HETATM    3  C   UNL     1      -9.294  12.109  62.980  1.00  0.00     0.667 C  
HETATM    4  C   UNL     1      -9.774  11.923  64.427  1.00  0.00    -0.134 C  
ENDROOT
BRANCH   1   5
HETATM    5  C   UNL     1      -8.344   9.810  64.829  1.00  0.00    -0.155 C  
HETATM    6  H   UNL     1      -7.131   8.954  63.524  1.00  0.00     0.000 HD 
HETATM    7  O   UNL     1      -8.004   9.328  63.529  1.00  0.00    -0.129 OA 
ENDBRANCH   1   5
BRANCH   1   8
HETATM    8  N   UNL     1     -10.438  10.204  66.175  1.00  0.00    -0.154 NA 
HETATM    9  C   UNL     1     -10.243   9.148  68.375  1.00  0.00    -0.230 C  
HETATM   10  C   UNL     1      -9.975   9.232  67.063  1.00  0.00    -0.224 C  
HETATM   11  C   UNL     1      -9.674   8.031  69.162  1.00  0.00    -0.163 C  
HETATM   12  C   UNL     1     -11.073  10.208  68.963  1.00  0.00    -0.205 C  
HETATM   13  C   UNL     1     -11.524  11.307  68.082  1.00  0.00    -0.376 A  
HETATM   14  O   UNL     1     -11.387  10.155  70.151  1.00  0.00    -0.262 OA 
HETATM   15  O   UNL     1      -8.910   7.200  68.691  1.00  0.00    -0.127 OA 
HETATM   16  O   UNL     1     -10.067   7.996  70.453  1.00  0.00    -0.192 OA 
HETATM   17  C   UNL     1     -11.253  11.247  66.703  1.00  0.00    -0.177 A  
HETATM   18  C   UNL     1     -11.840  12.252  65.919  1.00  0.00    -0.420 A  
HETATM   19  C   UNL     1     -12.564  13.328  66.467  1.00  0.00     0.071 A  
HETATM   20  C   UNL     1     -12.233  12.375  68.653  1.00  0.00     0.045 A  
HETATM   21  C   UNL     1     -12.756  13.407  67.857  1.00  0.00     1.036 A  
BRANCH  19  22
HETATM   22  O   UNL     1     -13.145  14.311  65.704  1.00  0.00    -0.561 OA 
HETATM   23  C   UNL     1     -12.303  15.379  65.271  1.00  0.00     0.537 C  
ENDBRANCH  19  22
BRANCH  21  24
HETATM   24  C   UNL     1     -13.590  14.488  68.511  1.00  0.00     5.246 C  
BRANCH  24  25
HETATM   25  C   UNL     1     -12.985  15.245  69.673  1.00  0.00     0.304 A  
HETATM   26  C   UNL     1     -12.542  16.566  69.525  1.00  0.00     1.862 A  
HETATM   27  C   UNL     1     -11.818  17.203  70.539  1.00  0.00     2.334 A  
HETATM   28  F   UNL     1     -12.776  17.210  68.370  1.00  0.00     1.570 F  
HETATM   29  C   UNL     1     -11.526  16.526  71.721  1.00  0.00    -0.100 A  
HETATM   30 CL   UNL     1     -11.238  18.812  70.329  1.00  0.00     3.331 Cl 
HETATM   31  C   UNL     1     -11.994  15.224  71.901  1.00  0.00    -0.472 A  
HETATM   32  C   UNL     1     -12.728  14.592  70.889  1.00  0.00    -0.413 A  
ENDBRANCH  24  25
ENDBRANCH  21  24
ENDBRANCH   1   8
TORSDOF 5
ENDMDL
MODEL      180
REMARK 921   NORMALIZED FREE ENERGY PREDICTED BY IDOCK:   21.53 KCAL/MOL
REMARK 922        TOTAL FREE ENERGY PREDICTED BY IDOCK:   26.69 KCAL/MOL
REMARK 923 INTER-LIGAND FREE ENERGY PREDICTED BY IDOCK:   20.62 KCAL/MOL
REMARK 924 INTRA-LIGAND FREE ENERGY PREDICTED BY IDOCK:    6.07 KCAL/MOL
REMARK 927      BINDING AFFINITY PREDICTED BY RF-SCORE:    0.00 PKD
ROOT
HETATM    1  C   UNL     1     -11.062  15.797  67.784  1.00  0.00    -0.313 C  
HETATM    2  C   UNL     1     -11.057  13.273  67.254  1.00  0.00    -0.301 C  
HETATM    3  C   UNL     1     -11.829  14.880  65.528  1.00  0.00    -0.155 C  
HETATM    4  C   UNL     1     -11.760  14.621  67.041  1.00  0.00    -0.379 C  
ENDROOT
BRANCH   1   5
HETATM    5  C   UNL     1     -11.853  17.126  67.664  1.00  0.00     1.334 C  
HETATM    6  H   UNL     1     -11.574  18.923  66.891  1.00  0.00     0.000 HD 
HETATM    7  O   UNL     1     -11.090  18.109  66.965  1.00  0.00    -0.091 OA 
ENDBRANCH   1   5
BRANCH   1   8
HETATM    8  N   UNL     1     -10.796  15.462  69.235  1.00  0.00    -0.238 NA 
HETATM    9  C   UNL     1     -11.452  15.894  71.554  1.00  0.00    -0.484 C  
HETATM   10  C   UNL     1     -11.326  16.242  70.264  1.00  0.00    -0.287 C  
HETATM   11  C   UNL     1     -12.025  16.863  72.514  1.00  0.00     0.319 C  
HETATM   12  C   UNL     1     -11.033  14.537  71.930  1.00  0.00     1.438 C  
HETATM   13  C   UNL     1     -10.540  13.641  70.863  1.00  0.00     3.016 A  
HETATM   14  O   UNL     1     -11.085  14.182  73.107  1.00  0.00     2.005 OA 
HETATM   15  O   UNL     1     -12.455  17.960  72.184  1.00  0.00     5.172 OA 
HETATM   16  O   UNL     1     -12.035  16.444  73.797  1.00  0.00    -0.397 OA 
HETATM   17  C   UNL     1     -10.372  14.140  69.559  1.00  0.00     0.185 A  
HETATM   18  C   UNL     1      -9.763  13.269  68.642  1.00  0.00    -0.074 A  
HETATM   19  C   UNL     1      -9.435  11.936  68.953  1.00  0.00     0.110 A  
HETATM   20  C   UNL     1     -10.231  12.311  71.193  1.00  0.00     7.631 A  
HETATM   21  C   UNL     1      -9.683  11.436  70.242  1.00  0.00     2.437 A  
BRANCH  19  22
HETATM   22  O   UNL     1      -8.834  11.081  68.062  1.00  0.00    -0.130 OA 
HETATM   23  C   UNL     1      -9.033  11.345  66.674  1.00  0.00    -0.181 C  
ENDBRANCH  19  22
BRANCH  21  24
HETATM   24  C   UNL     1      -9.286  10.040  70.673  1.00  0.00     0.430 C  
BRANCH  24  25
HETATM   25  C   UNL     1      -9.948   8.868  69.984  1.00  0.00    -0.204 A  
HETATM   26  C   UNL     1      -9.552   7.551  70.252  1.00  0.00    -0.165 A  
HETATM   27  C   UNL     1     -10.030   6.482  69.486  1.00  0.00    -0.159 A  
HETATM   28  F   UNL     1      -8.661   7.321  71.230  1.00  0.00    -0.117 F  
HETATM   29  C   UNL     1     -10.916   6.716  68.435  1.00  0.00    -0.313 A  
HETATM   30 CL   UNL     1      -9.502   4.871  69.794  1.00  0.00    -0.200 Cl 
HETATM   31  C   UNL     1     -11.351   8.016  68.180  1.00  0.00     0.818 A  
HETATM   32  C   UNL     1     -10.880   9.083  68.956  1.00  0.00    -0.092 A  
ENDBRANCH  24  25
ENDBRANCH  21  24
ENDBRANCH   1   8
TORSDOF 5
ENDMDL
MODEL      181
REMARK 921   NORMALIZED FREE ENERGY PREDICTED BY IDOCK:   21.88 KCAL/MOL
REMARK 922        TOTAL FREE ENERGY PREDICTED BY IDOCK:   27.14 KCAL/MOL
REMARK 923 INTER-LIGAND FREE ENERGY PREDICTED BY IDOCK:   26.78 KCAL/MOL
REMARK 924 INTRA-LIGAND FREE ENERGY PREDICTED BY IDOCK:    0.35 KCAL/MOL
REMARK 927      BINDING AFFINITY PREDICTED BY RF-SCORE:    0.00 PKD
ROOT
HETATM    1  C   UNL     1      -9.160   6.933  66.032  1.00  0.00    -0.067 C  
HETATM    2  C   UNL     1     -10.372   7.409  68.257  1.00  0.00    -0.231 C  
HETATM    3  C   UNL     1      -9.810   5.069  67.652  1.00  0.00    -0.202 C  
HETATM    4  C   UNL     1     -10.200   6.440  67.078  1.00  0.00    -0.264 C  
ENDROOT
BRANCH   1   5
HETATM    5  C   UNL     1      -9.089   6.009  64.788  1.00  0.00     0.479 C  
HETATM    6  H   UNL     1      -8.366   4.227  64.334  1.00  0.00     0.000 HD 
HETATM    7  O   UNL     1      -8.409   4.793  65.096  1.00  0.00    -0.119 OA 
ENDBRANCH   1   5
BRANCH   1   8
HETATM    8  N   UNL     1      -9.415   8.366  65.621  1.00  0.00    -0.020 NA 
HETATM    9  C   UNL     1     -10.838   9.858  64.301  1.00  0.00     2.732 C  
HETATM   10  C   UNL     1     -10.271   8.670  64.561  1.00  0.00     3.877 C  
HETATM   11  C   UNL     1     -11.711  10.002  63.115  1.00  0.00     6.109 C  
HETATM   12  C   UNL     1     -10.575  10.952  65.246  1.00  0.00    -0.189 C  
HETATM   13  C   UNL     1      -9.740  10.661  66.431  1.00  0.00    -0.241 A  
HETATM   14  O   UNL     1     -11.033  12.074  65.031  1.00  0.00    -0.291 OA 
HETATM   15  O   UNL     1     -12.001   9.068  62.379  1.00  0.00    10.947 OA 
HETATM   16  O   UNL     1     -12.168  11.254  62.900  1.00  0.00     0.209 OA 
HETATM   17  C   UNL     1      -9.129   9.401  66.558  1.00  0.00    -0.153 A  
HETATM   18  C   UNL     1      -8.238   9.257  67.632  1.00  0.00    -0.115 A  
HETATM   19  C   UNL     1      -8.037  10.258  68.601  1.00  0.00    -0.114 A  
HETATM   20  C   UNL     1      -9.564  11.671  67.391  1.00  0.00    -0.173 A  
HETATM   21  C   UNL     1      -8.718  11.482  68.495  1.00  0.00    -0.138 A  
BRANCH  19  22
HETATM   22  O   UNL     1      -7.162  10.125  69.652  1.00  0.00    -0.093 OA 
HETATM   23  C   UNL     1      -7.210   8.901  70.385  1.00  0.00    -0.060 C  
ENDBRANCH  19  22
BRANCH  21  24
HETATM   24  C   UNL     1      -8.494  12.633  69.453  1.00  0.00     1.161 C  
BRANCH  24  25
HETATM   25  C   UNL     1      -9.697  13.440  69.886  1.00  0.00     2.068 A  
HETATM   26  C   UNL     1     -10.822  12.820  70.447  1.00  0.00     1.840 A  
HETATM   27  C   UNL     1     -12.003  13.536  70.676  1.00  0.00    -0.230 A  
HETATM   28  F   UNL     1     -10.778  11.506  70.719  1.00  0.00     0.766 F  
HETATM   29  C   UNL     1     -12.075  14.888  70.349  1.00  0.00    -0.386 A  
HETATM   30 CL   UNL     1     -13.395  12.754  71.323  1.00  0.00    -0.128 Cl 
HETATM   31  C   UNL     1     -10.952  15.531  69.828  1.00  0.00    -0.299 A  
HETATM   32  C   UNL     1      -9.768  14.815  69.609  1.00  0.00     0.107 A  
ENDBRANCH  24  25
ENDBRANCH  21  24
ENDBRANCH   1   8
TORSDOF 5
ENDMDL
MODEL      182
REMARK 921   NORMALIZED FREE ENERGY PREDICTED BY IDOCK:   23.69 KCAL/MOL
REMARK 922        TOTAL FREE ENERGY PREDICTED BY IDOCK:   29.47 KCAL/MOL
REMARK 923 INTER-LIGAND FREE ENERGY PREDICTED BY IDOCK:   22.20 KCAL/MOL
REMARK 924 INTRA-LIGAND FREE ENERGY PREDICTED BY IDOCK:    7.27 KCAL/MOL
REMARK 927      BINDING AFFINITY PREDICTED BY RF-SCORE:    0.00 PKD
ROOT
HETATM    1  C   UNL     1      -8.392  14.207  68.447  1.00  0.00    -0.161 C  
HETATM    2  C   UNL     1      -8.756  13.137  70.765  1.00  0.00     7.770 C  
HETATM    3  C   UNL     1      -8.656  15.608  70.565  1.00  0.00     1.663 C  
HETATM    4  C   UNL     1      -8.123  14.293  69.977  1.00  0.00     0.999 C  
ENDROOT
BRANCH   1   5
HETATM    5  C   UNL     1      -7.644  15.308  67.652  1.00  0.00    -0.172 C  
HETATM    6  H   UNL     1      -7.132  17.200  67.908  1.00  0.00     0.000 HD 
HETATM    7  O   UNL     1      -7.590  16.526  68.395  1.00  0.00    -0.172 OA 
ENDBRANCH   1   5
BRANCH   1   8
HETATM    8  N   UNL     1      -8.068  12.836  67.898  1.00  0.00    -0.146 NA 
HETATM    9  C   UNL     1      -6.610  11.559  66.402  1.00  0.00     0.042 C  
HETATM   10  C   UNL     1      -7.236  12.682  66.789  1.00  0.00     0.411 C  
HETATM   11  C   UNL     1      -5.774  11.578  65.181  1.00  0.00     1.389 C  
HETATM   12  C   UNL     1      -6.773  10.371  67.250  1.00  0.00    -0.076 C  
HETATM   13  C   UNL     1      -7.580  10.501  68.482  1.00  0.00    -0.097 A  
HETATM   14  O   UNL     1      -6.258   9.304  66.918  1.00  0.00    -0.063 OA 
HETATM   15  O   UNL     1      -5.567  12.590  64.526  1.00  0.00     5.332 OA 
HETATM   16  O   UNL     1      -5.253  10.381  64.838  1.00  0.00    -0.097 OA 
HETATM   17  C   UNL     1      -8.259  11.704  68.744  1.00  0.00    -0.055 A  
HETATM   18  C   UNL     1      -9.117  11.696  69.855  1.00  0.00     2.065 A  
HETATM   19  C   UNL     1      -9.222  10.601  70.733  1.00  0.00     2.658 A  
HETATM   20  C   UNL     1      -7.660   9.400  69.350  1.00  0.00    -0.083 A  
HETATM   21  C   UNL     1      -8.474   9.436  70.494  1.00  0.00    -0.251 A  
BRANCH  19  22
HETATM   22  O   UNL     1     -10.064  10.585  71.818  1.00  0.00     2.746 OA 
HETATM   23  C   UNL     1     -11.166   9.679  71.771  1.00  0.00    -0.059 C  
ENDBRANCH  19  22
BRANCH  21  24
HETATM   24  C   UNL     1      -8.595   8.191  71.347  1.00  0.00    -0.168 C  
BRANCH  24  25
HETATM   25  C   UNL     1      -9.121   6.932  70.695  1.00  0.00    -0.155 A  
HETATM   26  C   UNL     1      -8.599   5.673  71.024  1.00  0.00    -0.127 A  
HETATM   27  C   UNL     1      -8.950   4.532  70.295  1.00  0.00    -0.090 A  
HETATM   28  F   UNL     1      -7.710   5.575  72.025  1.00  0.00    -0.092 F  
HETATM   29  C   UNL     1      -9.832   4.633  69.221  1.00  0.00    -0.260 A  
HETATM   30 CL   UNL     1      -8.268   2.997  70.678  1.00  0.00    -0.066 Cl 
HETATM   31  C   UNL     1     -10.392   5.871  68.905  1.00  0.00    -0.290 A  
HETATM   32  C   UNL     1     -10.048   7.010  69.644  1.00  0.00    -0.194 A  
ENDBRANCH  24  25
ENDBRANCH  21  24
ENDBRANCH   1   8
TORSDOF 5
ENDMDL
MODEL      183
REMARK 921   NORMALIZED FREE ENERGY PREDICTED BY IDOCK:   29.67 KCAL/MOL
REMARK 922        TOTAL FREE ENERGY PREDICTED BY IDOCK:   37.20 KCAL/MOL
REMARK 923 INTER-LIGAND FREE ENERGY PREDICTED BY IDOCK:   29.88 KCAL/MOL
REMARK 924 INTRA-LIGAND FREE ENERGY PREDICTED BY IDOCK:    7.32 KCAL/MOL
REMARK 927      BINDING AFFINITY PREDICTED BY RF-SCORE:    0.00 PKD
ROOT
HETATM    1  C   UNL     1     -10.792   7.131  68.371  1.00  0.00    -0.097 C  
HETATM    2  C   UNL     1      -9.627   8.049  70.480  1.00  0.00    -0.170 C  
HETATM    3  C   UNL     1     -11.605   6.572  70.725  1.00  0.00    -0.437 C  
HETATM    4  C   UNL     1     -10.957   7.640  69.832  1.00  0.00    -0.208 C  
ENDROOT
BRANCH   1   5
HETATM    5  C   UNL     1     -12.153   6.842  67.687  1.00  0.00     2.934 C  
HETATM    6  H   UNL     1     -12.865   5.602  66.322  1.00  0.00     0.000 HD 
HETATM    7  O   UNL     1     -12.031   5.780  66.741  1.00  0.00     1.604 OA 
ENDBRANCH   1   5
BRANCH   1   8
HETATM    8  N   UNL     1      -9.965   8.084  67.537  1.00  0.00    -0.178 NA 
HETATM    9  C   UNL     1      -9.700   9.122  65.334  1.00  0.00    -0.080 C  
HETATM   10  C   UNL     1     -10.104   8.135  66.149  1.00  0.00     0.166 C  
HETATM   11  C   UNL     1      -9.918   8.995  63.876  1.00  0.00     2.675 C  
HETATM   12  C   UNL     1      -9.084  10.300  65.959  1.00  0.00    -0.161 C  
HETATM   13  C   UNL     1      -8.986  10.334  67.434  1.00  0.00    -0.141 A  
HETATM   14  O   UNL     1      -8.655  11.214  65.256  1.00  0.00    -0.108 OA 
HETATM   15  O   UNL     1     -10.511   8.054  63.367  1.00  0.00     7.625 OA 
HETATM   16  O   UNL     1      -9.406  10.005  63.142  1.00  0.00    -0.285 OA 
HETATM   17  C   UNL     1      -9.366   9.206  68.182  1.00  0.00    -0.138 A  
HETATM   18  C   UNL     1      -9.105   9.266  69.559  1.00  0.00    -0.163 A  
HETATM   19  C   UNL     1      -8.600  10.416  70.194  1.00  0.00     0.473 A  
HETATM   20  C   UNL     1      -8.490  11.497  68.046  1.00  0.00    -0.148 A  
HETATM   21  C   UNL     1      -8.298  11.560  69.435  1.00  0.00     0.500 A  
BRANCH  19  22
HETATM   22  O   UNL     1      -8.337  10.479  71.540  1.00  0.00     2.996 OA 
HETATM   23  C   UNL     1      -9.422  10.830  72.398  1.00  0.00    11.640 C  
ENDBRANCH  19  22
BRANCH  21  24
HETATM   24  C   UNL     1      -7.678  12.804  70.034  1.00  0.00     2.101 C  
BRANCH  24  25
HETATM   25  C   UNL     1      -8.060  14.142  69.444  1.00  0.00     0.341 A  
HETATM   26  C   UNL     1      -9.404  14.488  69.240  1.00  0.00     0.095 A  
HETATM   27  C   UNL     1      -9.754  15.641  68.528  1.00  0.00    -0.202 A  
HETATM   28  F   UNL     1     -10.366  13.670  69.695  1.00  0.00     0.055 F  
HETATM   29  C   UNL     1      -8.761  16.469  68.007  1.00  0.00    -0.189 A  
HETATM   30 CL   UNL     1     -11.407  16.032  68.244  1.00  0.00    -0.350 Cl 
HETATM   31  C   UNL     1      -7.420  16.162  68.235  1.00  0.00    -0.145 A  
HETATM   32  C   UNL     1      -7.072  15.013  68.958  1.00  0.00    -0.133 A  
ENDBRANCH  24  25
ENDBRANCH  21  24
ENDBRANCH   1   8
TORSDOF 5
ENDMDL
MODEL      184
REMARK 921   NORMALIZED FREE ENERGY PREDICTED BY IDOCK:   34.33 KCAL/MOL
REMARK 922        TOTAL FREE ENERGY PREDICTED BY IDOCK:   43.22 KCAL/MOL
REMARK 923 INTER-LIGAND FREE ENERGY PREDICTED BY IDOCK:   38.86 KCAL/MOL
REMARK 924 INTRA-LIGAND FREE ENERGY PREDICTED BY IDOCK:    4.36 KCAL/MOL
REMARK 927      BINDING AFFINITY PREDICTED BY RF-SCORE:    0.00 PKD
ROOT
HETATM    1  C   UNL     1      -8.403   7.625  64.364  1.00  0.00     0.057 C  
HETATM    2  C   UNL     1      -9.793   5.639  63.485  1.00  0.00     1.934 C  
HETATM    3  C   UNL     1      -7.550   6.079  62.521  1.00  0.00    -0.073 C  
HETATM    4  C   UNL     1      -8.787   6.746  63.139  1.00  0.00     0.832 C  
ENDROOT
BRANCH   1   5
HETATM    5  C   UNL     1      -7.487   8.815  63.976  1.00  0.00    -0.116 C  
HETATM    6  H   UNL     1      -5.895   9.121  62.845  1.00  0.00     0.000 HD 
HETATM    7  O   UNL     1      -6.456   8.393  63.083  1.00  0.00    -0.085 OA 
ENDBRANCH   1   5
BRANCH   1   8
HETATM    8  N   UNL     1      -9.626   8.113  65.108  1.00  0.00     0.813 NA 
HETATM    9  C   UNL     1     -11.545   7.452  66.480  1.00  0.00     2.667 C  
HETATM   10  C   UNL     1     -10.604   7.220  65.551  1.00  0.00     3.338 C  
HETATM   11  C   UNL     1     -12.515   6.386  66.812  1.00  0.00     5.907 C  
HETATM   12  C   UNL     1     -11.528   8.763  67.142  1.00  0.00     1.900 C  
HETATM   13  C   UNL     1     -10.462   9.718  66.769  1.00  0.00    -0.259 A  
HETATM   14  O   UNL     1     -12.394   9.045  67.969  1.00  0.00     3.640 OA 
HETATM   15  O   UNL     1     -12.472   5.265  66.324  1.00  0.00     4.114 OA 
HETATM   16  O   UNL     1     -13.465   6.747  67.701  1.00  0.00    11.579 OA 
HETATM   17  C   UNL     1      -9.580   9.399  65.721  1.00  0.00    -0.271 A  
HETATM   18  C   UNL     1      -8.695  10.416  65.333  1.00  0.00    -0.193 A  
HETATM   19  C   UNL     1      -8.598  11.647  66.010  1.00  0.00     0.006 A  
HETATM   20  C   UNL     1     -10.377  10.934  67.466  1.00  0.00    -0.237 A  
HETATM   21  C   UNL     1      -9.439  11.913  67.104  1.00  0.00    -0.180 A  
BRANCH  19  22
HETATM   22  O   UNL     1      -7.738  12.649  65.632  1.00  0.00     1.991 OA 
HETATM   23  C   UNL     1      -6.523  12.774  66.370  1.00  0.00     2.034 C  
ENDBRANCH  19  22
BRANCH  21  24
HETATM   24  C   UNL     1      -9.448  13.242  67.829  1.00  0.00    -0.208 C  
BRANCH  24  25
HETATM   25  C   UNL     1      -8.174  13.688  68.509  1.00  0.00    -0.112 A  
HETATM   26  C   UNL     1      -7.536  14.882  68.144  1.00  0.00    -0.113 A  
HETATM   27  C   UNL     1      -6.267  15.205  68.637  1.00  0.00    -0.089 A  
HETATM   28  F   UNL     1      -8.136  15.702  67.266  1.00  0.00    -0.154 F  
HETATM   29  C   UNL     1      -5.614  14.335  69.508  1.00  0.00    -0.093 A  
HETATM   30 CL   UNL     1      -5.473  16.652  68.145  1.00  0.00    -0.113 Cl 
HETATM   31  C   UNL     1      -6.250  13.162  69.914  1.00  0.00    -0.094 A  
HETATM   32  C   UNL     1      -7.526  12.847  69.427  1.00  0.00     0.442 A  
ENDBRANCH  24  25
ENDBRANCH  21  24
ENDBRANCH   1   8
TORSDOF 5
ENDMDL
MODEL      185
REMARK 921   NORMALIZED FREE ENERGY PREDICTED BY IDOCK:   35.27 KCAL/MOL
REMARK 922        TOTAL FREE ENERGY PREDICTED BY IDOCK:   44.44 KCAL/MOL
REMARK 923 INTER-LIGAND FREE ENERGY PREDICTED BY IDOCK:   36.82 KCAL/MOL
REMARK 924 INTRA-LIGAND FREE ENERGY PREDICTED BY IDOCK:    7.62 KCAL/MOL
REMARK 927      BINDING AFFINITY PREDICTED BY RF-SCORE:    0.00 PKD
ROOT
HETATM    1  C   UNL     1     -10.288  11.009  66.038  1.00  0.00    -0.254 C  
HETATM    2  C   UNL     1     -11.949   9.259  66.947  1.00  0.00     5.054 C  
HETATM    3  C   UNL     1     -11.415   9.289  64.524  1.00  0.00     9.014 C  
HETATM    4  C   UNL     1     -11.572  10.172  65.771  1.00  0.00     2.473 C  
ENDROOT
BRANCH   1   5
HETATM    5  C   UNL     1      -9.991  12.016  64.897  1.00  0.00    -0.227 C  
HETATM    6  H   UNL     1     -10.866  13.584  64.071  1.00  0.00     0.000 HD 
HETATM    7  O   UNL     1     -11.048  12.966  64.769  1.00  0.00    -0.289 OA 
ENDBRANCH   1   5
BRANCH   1   8
HETATM    8  N   UNL     1     -10.348  11.715  67.374  1.00  0.00    -0.202 NA 
HETATM    9  C   UNL     1      -9.487  11.763  69.666  1.00  0.00     1.314 C  
HETATM   10  C   UNL     1      -9.797  11.138  68.520  1.00  0.00    -0.198 C  
HETATM   11  C   UNL     1      -8.923  10.982  70.789  1.00  0.00     4.290 C  
HETATM   12  C   UNL     1      -9.702  13.215  69.721  1.00  0.00     1.925 C  
HETATM   13  C   UNL     1     -10.207  13.890  68.506  1.00  0.00    -0.240 A  
HETATM   14  O   UNL     1      -9.477  13.831  70.762  1.00  0.00     3.903 OA 
HETATM   15  O   UNL     1      -8.661   9.789  70.711  1.00  0.00    -0.162 OA 
HETATM   16  O   UNL     1      -8.719  11.690  71.920  1.00  0.00    12.476 OA 
HETATM   17  C   UNL     1     -10.578  13.121  67.388  1.00  0.00    -0.242 A  
HETATM   18  C   UNL     1     -11.184  13.823  66.334  1.00  0.00    -0.321 A  
HETATM   19  C   UNL     1     -11.319  15.225  66.325  1.00  0.00    -0.155 A  
HETATM   20  C   UNL     1     -10.322  15.289  68.515  1.00  0.00    -0.231 A  
HETATM   21  C   UNL     1     -10.871  15.979  67.422  1.00  0.00    -0.277 A  
BRANCH  19  22
HETATM   22  O   UNL     1     -11.916  15.916  65.300  1.00  0.00     0.388 OA 
HETATM   23  C   UNL     1     -11.463  17.250  65.067  1.00  0.00     1.028 C  
ENDBRANCH  19  22
BRANCH  21  24
HETATM   24  C   UNL     1     -11.054  17.479  67.519  1.00  0.00     0.066 C  
BRANCH  24  25
HETATM   25  C   UNL     1      -9.820  18.350  67.463  1.00  0.00    -0.327 A  
HETATM   26  C   UNL     1      -8.537  17.798  67.584  1.00  0.00    -0.230 A  
HETATM   27  C   UNL     1      -7.408  18.614  67.719  1.00  0.00    -0.229 A  
HETATM   28  F   UNL     1      -8.400  16.463  67.622  1.00  0.00    -0.159 F  
HETATM   29  C   UNL     1      -7.546  20.001  67.733  1.00  0.00    -0.328 A  
HETATM   30 CL   UNL     1      -5.841  17.925  67.913  1.00  0.00    -0.155 Cl 
HETATM   31  C   UNL     1      -8.811  20.567  67.574  1.00  0.00    -0.352 A  
HETATM   32  C   UNL     1      -9.938  19.748  67.428  1.00  0.00    -0.531 A  
ENDBRANCH  24  25
ENDBRANCH  21  24
ENDBRANCH   1   8
TORSDOF 5
ENDMDL
MODEL      186
REMARK 921   NORMALIZED FREE ENERGY PREDICTED BY IDOCK:   45.02 KCAL/MOL
REMARK 922        TOTAL FREE ENERGY PREDICTED BY IDOCK:   57.04 KCAL/MOL
REMARK 923 INTER-LIGAND FREE ENERGY PREDICTED BY IDOCK:   55.21 KCAL/MOL
REMARK 924 INTRA-LIGAND FREE ENERGY PREDICTED BY IDOCK:    1.83 KCAL/MOL
REMARK 927      BINDING AFFINITY PREDICTED BY RF-SCORE:    0.00 PKD
ROOT
HETATM    1  C   UNL     1     -11.903  12.179  66.105  1.00  0.00    -0.254 C  
HETATM    2  C   UNL     1      -9.481  12.467  65.268  1.00  0.00     0.144 C  
HETATM    3  C   UNL     1     -11.159  14.227  64.774  1.00  0.00    -0.398 C  
HETATM    4  C   UNL     1     -10.969  12.717  64.983  1.00  0.00    -0.319 C  
ENDROOT
BRANCH   1   5
HETATM    5  C   UNL     1     -13.404  12.326  65.746  1.00  0.00     3.467 C  
HETATM    6  H   UNL     1     -14.543  12.154  64.140  1.00  0.00     0.000 HD 
HETATM    7  O   UNL     1     -13.624  12.065  64.360  1.00  0.00    -0.465 OA 
ENDBRANCH   1   5
BRANCH   1   8
HETATM    8  N   UNL     1     -11.576  10.748  66.467  1.00  0.00     0.115 NA 
HETATM    9  C   UNL     1     -12.005   8.393  65.952  1.00  0.00     9.128 C  
HETATM   10  C   UNL     1     -12.351   9.689  65.991  1.00  0.00     9.308 C  
HETATM   11  C   UNL     1     -12.968   7.400  65.425  1.00  0.00    16.068 C  
HETATM   12  C   UNL     1     -10.655   8.041  66.414  1.00  0.00     0.473 C  
HETATM   13  C   UNL     1      -9.763   9.136  66.853  1.00  0.00    -0.254 A  
HETATM   14  O   UNL     1     -10.303   6.863  66.442  1.00  0.00    -0.082 OA 
HETATM   15  O   UNL     1     -14.056   7.705  64.958  1.00  0.00    14.084 OA 
HETATM   16  O   UNL     1     -12.552   6.118  65.502  1.00  0.00     4.592 OA 
HETATM   17  C   UNL     1     -10.261  10.449  66.931  1.00  0.00    -0.227 A  
HETATM   18  C   UNL     1      -9.397  11.401  67.494  1.00  0.00    -0.166 A  
HETATM   19  C   UNL     1      -8.070  11.108  67.861  1.00  0.00    -0.119 A  
HETATM   20  C   UNL     1      -8.440   8.823  67.202  1.00  0.00    -0.110 A  
HETATM   21  C   UNL     1      -7.570   9.805  67.702  1.00  0.00    -0.091 A  
BRANCH  19  22
HETATM   22  O   UNL     1      -7.222  12.034  68.418  1.00  0.00    -0.079 OA 
HETATM   23  C   UNL     1      -7.395  12.321  69.805  1.00  0.00     0.802 C  
ENDBRANCH  19  22
BRANCH  21  24
HETATM   24  C   UNL     1      -6.182   9.397  68.147  1.00  0.00    -0.053 C  
BRANCH  24  25
HETATM   25  C   UNL     1      -6.052   8.607  69.430  1.00  0.00    -0.041 A  
HETATM   26  C   UNL     1      -6.406   7.252  69.486  1.00  0.00    -0.035 A  
HETATM   27  C   UNL     1      -6.463   6.569  70.706  1.00  0.00    -0.052 A  
HETATM   28  F   UNL     1      -6.745   6.617  68.352  1.00  0.00    -0.053 F  
HETATM   29  C   UNL     1      -6.163   7.234  71.893  1.00  0.00    -0.040 A  
HETATM   30 CL   UNL     1      -6.945   4.916  70.768  1.00  0.00    -0.040 Cl 
HETATM   31  C   UNL     1      -5.769   8.571  71.852  1.00  0.00    -0.047 A  
HETATM   32  C   UNL     1      -5.702   9.249  70.628  1.00  0.00    -0.041 A  
ENDBRANCH  24  25
ENDBRANCH  21  24
ENDBRANCH   1   8
TORSDOF 5
ENDMDL
MODEL      187
REMARK 921   NORMALIZED FREE ENERGY PREDICTED BY IDOCK:   47.91 KCAL/MOL
REMARK 922        TOTAL FREE ENERGY PREDICTED BY IDOCK:   60.77 KCAL/MOL
REMARK 923 INTER-LIGAND FREE ENERGY PREDICTED BY IDOCK:   50.80 KCAL/MOL
REMARK 924 INTRA-LIGAND FREE ENERGY PREDICTED BY IDOCK:    9.97 KCAL/MOL
REMARK 927      BINDING AFFINITY PREDICTED BY RF-SCORE:    0.00 PKD
ROOT
HETATM    1  C   UNL     1      -7.741  14.134  69.601  1.00  0.00     0.393 C  
HETATM    2  C   UNL     1      -8.257  12.815  71.756  1.00  0.00    14.687 C  
HETATM    3  C   UNL     1      -7.723  15.233  71.905  1.00  0.00     4.802 C  
HETATM    4  C   UNL     1      -7.440  13.946  71.116  1.00  0.00     3.414 C  
ENDROOT
BRANCH   1   5
HETATM    5  C   UNL     1      -6.820  15.192  68.941  1.00  0.00    -0.120 C  
HETATM    6  H   UNL     1      -4.976  15.866  69.168  1.00  0.00     0.000 HD 
HETATM    7  O   UNL     1      -5.540  15.218  69.572  1.00  0.00    -0.094 OA 
ENDBRANCH   1   5
BRANCH   1   8
HETATM    8  N   UNL     1      -7.673  12.822  68.851  1.00  0.00     0.020 NA 
HETATM    9  C   UNL     1      -6.447  11.522  67.177  1.00  0.00    -0.123 C  
HETATM   10  C   UNL     1      -6.855  12.675  67.730  1.00  0.00    -0.128 C  
HETATM   11  C   UNL     1      -5.589  11.558  65.972  1.00  0.00     0.211 C  
HETATM   12  C   UNL     1      -6.861  10.275  67.836  1.00  0.00    -0.074 C  
HETATM   13  C   UNL     1      -7.662  10.377  69.075  1.00  0.00    -0.116 A  
HETATM   14  O   UNL     1      -6.553   9.190  67.346  1.00  0.00    -0.063 OA 
HETATM   15  O   UNL     1      -5.172  12.596  65.477  1.00  0.00     2.762 OA 
HETATM   16  O   UNL     1      -5.300  10.346  65.451  1.00  0.00    -0.072 OA 
HETATM   17  C   UNL     1      -8.102  11.637  69.516  1.00  0.00     0.717 A  
HETATM   18  C   UNL     1      -8.977  11.632  70.614  1.00  0.00     5.914 A  
HETATM   19  C   UNL     1      -9.317  10.461  71.317  1.00  0.00     3.366 A  
HETATM   20  C   UNL     1      -7.978   9.197  69.767  1.00  0.00    -0.098 A  
HETATM   21  C   UNL     1      -8.802   9.221  70.903  1.00  0.00    -0.252 A  
BRANCH  19  22
HETATM   22  O   UNL     1     -10.176  10.448  72.388  1.00  0.00     4.213 OA 
HETATM   23  C   UNL     1     -10.713   9.184  72.775  1.00  0.00     1.316 C  
ENDBRANCH  19  22
BRANCH  21  24
HETATM   24  C   UNL     1      -9.186   7.911  71.559  1.00  0.00    -0.171 C  
BRANCH  24  25
HETATM   25  C   UNL     1     -10.389   7.172  71.018  1.00  0.00    -0.208 A  
HETATM   26  C   UNL     1     -10.855   7.401  69.716  1.00  0.00    -0.234 A  
HETATM   27  C   UNL     1     -12.070   6.861  69.277  1.00  0.00     0.945 A  
HETATM   28  F   UNL     1     -10.146   8.193  68.896  1.00  0.00    -0.179 F  
HETATM   29  C   UNL     1     -12.839   6.080  70.138  1.00  0.00     3.408 A  
HETATM   30 CL   UNL     1     -12.656   7.186  67.690  1.00  0.00     5.935 Cl 
HETATM   31  C   UNL     1     -12.370   5.809  71.424  1.00  0.00     0.943 A  
HETATM   32  C   UNL     1     -11.149   6.341  71.856  1.00  0.00    -0.315 A  
ENDBRANCH  24  25
ENDBRANCH  21  24
ENDBRANCH   1   8
TORSDOF 5
ENDMDL
MODEL      188
REMARK 921   NORMALIZED FREE ENERGY PREDICTED BY IDOCK:   49.51 KCAL/MOL
REMARK 922        TOTAL FREE ENERGY PREDICTED BY IDOCK:   62.84 KCAL/MOL
REMARK 923 INTER-LIGAND FREE ENERGY PREDICTED BY IDOCK:   53.95 KCAL/MOL
REMARK 924 INTRA-LIGAND FREE ENERGY PREDICTED BY IDOCK:    8.89 KCAL/MOL
REMARK 927      BINDING AFFINITY PREDICTED BY RF-SCORE:    0.00 PKD
ROOT
HETATM    1  C   UNL     1      -6.955   8.626  70.156  1.00  0.00    -0.043 C  
HETATM    2  C   UNL     1      -6.406   7.258  68.041  1.00  0.00    -0.044 C  
HETATM    3  C   UNL     1      -5.125   9.328  68.520  1.00  0.00    -0.034 C  
HETATM    4  C   UNL     1      -6.498   8.656  68.669  1.00  0.00    -0.054 C  
ENDROOT
BRANCH   1   5
HETATM    5  C   UNL     1      -7.164  10.048  70.739  1.00  0.00     0.201 C  
HETATM    6  H   UNL     1      -7.631  11.847  70.065  1.00  0.00     0.000 HD 
HETATM    7  O   UNL     1      -7.501  10.976  69.708  1.00  0.00    -0.050 OA 
ENDBRANCH   1   5
BRANCH   1   8
HETATM    8  N   UNL     1      -8.195   7.782  70.345  1.00  0.00    -0.119 NA 
HETATM    9  C   UNL     1      -9.860   6.980  71.951  1.00  0.00    -0.173 C  
HETATM   10  C   UNL     1      -8.639   7.426  71.619  1.00  0.00    -0.116 C  
HETATM   11  C   UNL     1     -10.149   6.634  73.360  1.00  0.00    -0.228 C  
HETATM   12  C   UNL     1     -10.860   6.893  70.878  1.00  0.00    -0.244 C  
HETATM   13  C   UNL     1     -10.466   7.335  69.523  1.00  0.00    -0.238 A  
HETATM   14  O   UNL     1     -11.982   6.449  71.117  1.00  0.00    -0.328 OA 
HETATM   15  O   UNL     1      -9.343   6.791  74.267  1.00  0.00    -0.196 OA 
HETATM   16  O   UNL     1     -11.380   6.123  73.573  1.00  0.00     0.030 OA 
HETATM   17  C   UNL     1      -9.133   7.706  69.273  1.00  0.00    -0.145 A  
HETATM   18  C   UNL     1      -8.809   7.970  67.933  1.00  0.00    -0.130 A  
HETATM   19  C   UNL     1      -9.767   7.982  66.902  1.00  0.00    -0.225 A  
HETATM   20  C   UNL     1     -11.441   7.350  68.513  1.00  0.00     0.661 A  
HETATM   21  C   UNL     1     -11.110   7.683  67.189  1.00  0.00     0.129 A  
BRANCH  19  22
HETATM   22  O   UNL     1      -9.456   8.234  65.588  1.00  0.00    -0.052 OA 
HETATM   23  C   UNL     1     -10.061   9.378  64.986  1.00  0.00     0.624 C  
ENDBRANCH  19  22
BRANCH  21  24
HETATM   24  C   UNL     1     -12.180   7.597  66.122  1.00  0.00     8.609 C  
BRANCH  24  25
HETATM   25  C   UNL     1     -11.870   6.808  64.869  1.00  0.00    10.573 A  
HETATM   26  C   UNL     1     -10.596   6.267  64.649  1.00  0.00     4.865 A  
HETATM   27  C   UNL     1     -10.255   5.699  63.416  1.00  0.00     2.848 A  
HETATM   28  F   UNL     1      -9.675   6.343  65.624  1.00  0.00     0.019 F  
HETATM   29  C   UNL     1     -11.187   5.662  62.382  1.00  0.00     3.328 A  
HETATM   30 CL   UNL     1      -8.671   5.079  63.141  1.00  0.00    -0.119 Cl 
HETATM   31  C   UNL     1     -12.473   6.159  62.597  1.00  0.00     8.796 A  
HETATM   32  C   UNL     1     -12.815   6.717  63.835  1.00  0.00    15.807 A  
ENDBRANCH  24  25
ENDBRANCH  21  24
ENDBRANCH   1   8
TORSDOF 5
ENDMDL
MODEL      189
REMARK 921   NORMALIZED FREE ENERGY PREDICTED BY IDOCK:   53.13 KCAL/MOL
REMARK 922        TOTAL FREE ENERGY PREDICTED BY IDOCK:   67.52 KCAL/MOL
REMARK 923 INTER-LIGAND FREE ENERGY PREDICTED BY IDOCK:   56.13 KCAL/MOL
REMARK 924 INTRA-LIGAND FREE ENERGY PREDICTED BY IDOCK:   11.39 KCAL/MOL
REMARK 927      BINDING AFFINITY PREDICTED BY RF-SCORE:    0.00 PKD
ROOT
HETATM    1  C   UNL     1      -6.957   8.631  70.156  1.00  0.00    -0.043 C  
HETATM    2  C   UNL     1      -6.461   7.302  68.002  1.00  0.00    -0.045 C  
HETATM    3  C   UNL     1      -5.127   9.330  68.519  1.00  0.00    -0.034 C  
HETATM    4  C   UNL     1      -6.514   8.686  68.665  1.00  0.00    -0.054 C  
ENDROOT
BRANCH   1   5
HETATM    5  C   UNL     1      -7.129  10.042  70.775  1.00  0.00     0.128 C  
HETATM    6  H   UNL     1      -7.559  11.867  70.150  1.00  0.00     0.000 HD 
HETATM    7  O   UNL     1      -7.453  11.002  69.771  1.00  0.00    -0.050 OA 
ENDBRANCH   1   5
BRANCH   1   8
HETATM    8  N   UNL     1      -8.215   7.811  70.335  1.00  0.00    -0.119 NA 
HETATM    9  C   UNL     1      -9.863   6.977  71.944  1.00  0.00    -0.173 C  
HETATM   10  C   UNL     1      -8.638   7.406  71.602  1.00  0.00    -0.116 C  
HETATM   11  C   UNL     1     -10.126   6.570  73.342  1.00  0.00    -0.218 C  
HETATM   12  C   UNL     1     -10.890   6.967  70.894  1.00  0.00    -0.241 C  
HETATM   13  C   UNL     1     -10.517   7.463  69.551  1.00  0.00    -0.236 A  
HETATM   14  O   UNL     1     -12.017   6.541  71.140  1.00  0.00    -0.353 OA 
HETATM   15  O   UNL     1      -9.295   6.663  74.235  1.00  0.00    -0.185 OA 
HETATM   16  O   UNL     1     -11.365   6.082  73.561  1.00  0.00    -0.003 OA 
HETATM   17  C   UNL     1      -9.180   7.810  69.286  1.00  0.00    -0.145 A  
HETATM   18  C   UNL     1      -8.883   8.130  67.952  1.00  0.00    -0.131 A  
HETATM   19  C   UNL     1      -9.865   8.216  66.947  1.00  0.00    -0.247 A  
HETATM   20  C   UNL     1     -11.515   7.552  68.568  1.00  0.00     0.764 A  
HETATM   21  C   UNL     1     -11.207   7.939  67.254  1.00  0.00     0.541 A  
BRANCH  19  22
HETATM   22  O   UNL     1      -9.579   8.523  65.639  1.00  0.00    -0.097 OA 
HETATM   23  C   UNL     1     -10.167   9.709  65.108  1.00  0.00     0.361 C  
ENDBRANCH  19  22
BRANCH  21  24
HETATM   24  C   UNL     1     -12.305   7.932  66.211  1.00  0.00     9.766 C  
BRANCH  24  25
HETATM   25  C   UNL     1     -12.586   9.219  65.468  1.00  0.00    14.794 A  
HETATM   26  C   UNL     1     -11.932  10.411  65.811  1.00  0.00     3.602 A  
HETATM   27  C   UNL     1     -12.322  11.634  65.254  1.00  0.00     0.949 A  
HETATM   28  F   UNL     1     -10.951  10.380  66.727  1.00  0.00    -0.292 F  
HETATM   29  C   UNL     1     -13.374  11.684  64.342  1.00  0.00     1.466 A  
HETATM   30 CL   UNL     1     -11.544  13.100  65.717  1.00  0.00    -0.361 Cl 
HETATM   31  C   UNL     1     -14.008  10.502  63.959  1.00  0.00     7.672 A  
HETATM   32  C   UNL     1     -13.609   9.277  64.510  1.00  0.00    19.232 A  
ENDBRANCH  24  25
ENDBRANCH  21  24
ENDBRANCH   1   8
TORSDOF 5
ENDMDL
