MODEL        1
REMARK 921   NORMALIZED FREE ENERGY PREDICTED BY IDOCK:   -6.80 KCAL/MOL
REMARK 922        TOTAL FREE ENERGY PREDICTED BY IDOCK:   -9.42 KCAL/MOL
REMARK 923 INTER-LIGAND FREE ENERGY PREDICTED BY IDOCK:   -8.79 KCAL/MOL
REMARK 924 INTRA-LIGAND FREE ENERGY PREDICTED BY IDOCK:   -0.63 KCAL/MOL
REMARK 927      BINDING AFFINITY PREDICTED BY RF-SCORE:    0.00 PKD
ROOT
HETATM    1  C   UNL     1     -12.494  15.893  74.022  1.00  0.00    -0.764 C  
HETATM    2  C   UNL     1     -12.451  15.347  72.616  1.00  0.00    -0.386 C  
ENDROOT
BRANCH   2   3
HETATM    3  O   UNL     1     -11.783  16.288  71.768  1.00  0.00    -0.486 OA 
BRANCH   3   4
HETATM    4  C   UNL     1     -11.781  15.778  70.436  1.00  0.00    -0.370 C  
BRANCH   4   5
HETATM    5  C   UNL     1     -10.471  16.034  69.721  1.00  0.00    -0.300 C  
BRANCH   5   6
HETATM    6  N   UNL     1     -10.547  16.606  68.387  1.00  0.00    -0.324 NA 
HETATM    7  C   UNL     1     -10.764  15.876  67.209  1.00  0.00    -0.306 A  
HETATM    8  N   UNL     1     -10.643  16.676  66.166  1.00  0.00    -0.262 NA 
HETATM    9  C   UNL     1     -10.308  17.930  68.036  1.00  0.00    -0.387 A  
HETATM   10  C   UNL     1     -10.022  19.123  68.737  1.00  0.00    -0.493 A  
HETATM   11  C   UNL     1     -10.381  17.930  66.649  1.00  0.00    -0.361 A  
HETATM   12  C   UNL     1      -9.817  20.306  68.030  1.00  0.00    -0.447 A  
HETATM   13  C   UNL     1     -10.170  19.131  65.941  1.00  0.00    -0.404 A  
HETATM   14  C   UNL     1      -9.895  20.315  66.641  1.00  0.00    -0.562 A  
BRANCH   7  15
HETATM   15  N   UNL     1     -10.945  14.517  67.141  1.00  0.00    -0.296 NA 
HETATM   16  N   UNL     1     -12.290  12.218  65.116  1.00  0.00    -0.532 NA 
HETATM   17  C   UNL     1      -9.861  12.899  65.502  1.00  0.00    -0.159 C  
HETATM   18  C   UNL     1     -12.652  13.568  65.575  1.00  0.00    -0.481 C  
HETATM   19  C   UNL     1      -9.775  13.679  66.822  1.00  0.00    -0.275 C  
HETATM   20  C   UNL     1     -12.504  12.114  63.673  1.00  0.00    -0.549 C  
HETATM   21  C   UNL     1     -12.256  13.872  67.030  1.00  0.00    -0.355 C  
HETATM   22  C   UNL     1     -10.936  11.804  65.501  1.00  0.00    -0.290 C  
ENDBRANCH   7  15
ENDBRANCH   5   6
ENDBRANCH   4   5
ENDBRANCH   3   4
ENDBRANCH   2   3
TORSDOF 5
ENDMDL
MODEL        2
REMARK 921   NORMALIZED FREE ENERGY PREDICTED BY IDOCK:   -6.50 KCAL/MOL
REMARK 922        TOTAL FREE ENERGY PREDICTED BY IDOCK:   -9.03 KCAL/MOL
REMARK 923 INTER-LIGAND FREE ENERGY PREDICTED BY IDOCK:   -8.35 KCAL/MOL
REMARK 924 INTRA-LIGAND FREE ENERGY PREDICTED BY IDOCK:   -0.67 KCAL/MOL
REMARK 927      BINDING AFFINITY PREDICTED BY RF-SCORE:    0.00 PKD
ROOT
HETATM    1  C   UNL     1      -9.957  20.257  67.574  1.00  0.00    -0.557 C  
HETATM    2  C   UNL     1      -9.820  19.256  68.695  1.00  0.00    -0.431 C  
ENDROOT
BRANCH   2   3
HETATM    3  O   UNL     1      -8.785  18.323  68.366  1.00  0.00    -0.297 OA 
BRANCH   3   4
HETATM    4  C   UNL     1      -9.224  17.013  68.723  1.00  0.00    -0.252 C  
BRANCH   4   5
HETATM    5  C   UNL     1     -10.719  16.839  68.556  1.00  0.00    -0.358 C  
BRANCH   5   6
HETATM    6  N   UNL     1     -11.296  15.594  69.036  1.00  0.00    -0.306 NA 
HETATM    7  C   UNL     1     -11.538  14.460  68.247  1.00  0.00    -0.328 A  
HETATM    8  N   UNL     1     -12.189  13.559  68.957  1.00  0.00    -0.274 NA 
HETATM    9  C   UNL     1     -11.809  15.352  70.306  1.00  0.00    -0.338 A  
HETATM   10  C   UNL     1     -11.888  16.077  71.516  1.00  0.00    -0.554 A  
HETATM   11  C   UNL     1     -12.349  14.076  70.214  1.00  0.00    -0.358 A  
HETATM   12  C   UNL     1     -12.510  15.504  72.624  1.00  0.00    -0.502 A  
HETATM   13  C   UNL     1     -12.978  13.504  71.339  1.00  0.00    -0.421 A  
HETATM   14  C   UNL     1     -13.048  14.224  72.541  1.00  0.00    -0.550 A  
BRANCH   7  15
HETATM   15  N   UNL     1     -11.257  14.354  66.907  1.00  0.00    -0.324 NA 
HETATM   16  N   UNL     1     -10.143  12.096  64.703  1.00  0.00    -0.274 NA 
HETATM   17  C   UNL     1     -12.498  12.956  65.180  1.00  0.00    -0.561 C  
HETATM   18  C   UNL     1      -9.816  12.479  66.086  1.00  0.00    -0.258 C  
HETATM   19  C   UNL     1     -12.390  14.269  65.968  1.00  0.00    -0.395 C  
HETATM   20  C   UNL     1     -10.209  10.638  64.599  1.00  0.00    -0.334 C  
HETATM   21  C   UNL     1      -9.942  13.985  66.375  1.00  0.00    -0.294 C  
HETATM   22  C   UNL     1     -11.354  12.739  64.181  1.00  0.00    -0.390 C  
ENDBRANCH   7  15
ENDBRANCH   5   6
ENDBRANCH   4   5
ENDBRANCH   3   4
ENDBRANCH   2   3
TORSDOF 5
ENDMDL
MODEL        3
REMARK 921   NORMALIZED FREE ENERGY PREDICTED BY IDOCK:   -6.45 KCAL/MOL
REMARK 922        TOTAL FREE ENERGY PREDICTED BY IDOCK:   -8.97 KCAL/MOL
REMARK 923 INTER-LIGAND FREE ENERGY PREDICTED BY IDOCK:   -8.25 KCAL/MOL
REMARK 924 INTRA-LIGAND FREE ENERGY PREDICTED BY IDOCK:   -0.72 KCAL/MOL
REMARK 927      BINDING AFFINITY PREDICTED BY RF-SCORE:    0.00 PKD
ROOT
HETATM    1  C   UNL     1     -12.103  14.332  64.425  1.00  0.00    -0.490 C  
HETATM    2  C   UNL     1     -12.498  13.251  65.399  1.00  0.00    -0.489 C  
ENDROOT
BRANCH   2   3
HETATM    3  O   UNL     1     -12.283  13.721  66.734  1.00  0.00    -0.425 OA 
BRANCH   3   4
HETATM    4  C   UNL     1     -11.641  12.688  67.482  1.00  0.00    -0.359 C  
BRANCH   4   5
HETATM    5  C   UNL     1     -10.634  13.233  68.473  1.00  0.00    -0.256 C  
BRANCH   5   6
HETATM    6  N   UNL     1     -11.077  14.313  69.338  1.00  0.00    -0.260 NA 
HETATM    7  C   UNL     1     -10.647  15.645  69.248  1.00  0.00    -0.238 A  
HETATM    8  N   UNL     1     -11.135  16.336  70.261  1.00  0.00    -0.364 NA 
HETATM    9  C   UNL     1     -11.895  14.199  70.457  1.00  0.00    -0.282 A  
HETATM   10  C   UNL     1     -12.611  13.153  71.079  1.00  0.00    -0.397 A  
HETATM   11  C   UNL     1     -11.908  15.479  70.997  1.00  0.00    -0.382 A  
HETATM   12  C   UNL     1     -13.339  13.410  72.240  1.00  0.00    -0.641 A  
HETATM   13  C   UNL     1     -12.644  15.730  72.173  1.00  0.00    -0.528 A  
HETATM   14  C   UNL     1     -13.361  14.690  72.783  1.00  0.00    -0.593 A  
BRANCH   7  15
HETATM   15  N   UNL     1      -9.752  16.128  68.325  1.00  0.00    -0.217 NA 
HETATM   16  N   UNL     1      -9.459  18.626  66.118  1.00  0.00    -0.484 NA 
HETATM   17  C   UNL     1      -8.448  18.310  68.439  1.00  0.00    -0.319 C  
HETATM   18  C   UNL     1     -10.531  17.719  66.556  1.00  0.00    -0.297 C  
HETATM   19  C   UNL     1      -8.555  16.827  68.823  1.00  0.00    -0.255 C  
HETATM   20  C   UNL     1      -9.973  19.993  66.034  1.00  0.00    -0.435 C  
HETATM   21  C   UNL     1     -10.059  16.296  66.901  1.00  0.00    -0.278 C  
HETATM   22  C   UNL     1      -8.244  18.547  66.938  1.00  0.00    -0.258 C  
ENDBRANCH   7  15
ENDBRANCH   5   6
ENDBRANCH   4   5
ENDBRANCH   3   4
ENDBRANCH   2   3
TORSDOF 5
ENDMDL
MODEL        4
REMARK 921   NORMALIZED FREE ENERGY PREDICTED BY IDOCK:   -6.35 KCAL/MOL
REMARK 922        TOTAL FREE ENERGY PREDICTED BY IDOCK:   -8.84 KCAL/MOL
REMARK 923 INTER-LIGAND FREE ENERGY PREDICTED BY IDOCK:   -7.97 KCAL/MOL
REMARK 924 INTRA-LIGAND FREE ENERGY PREDICTED BY IDOCK:   -0.87 KCAL/MOL
REMARK 927      BINDING AFFINITY PREDICTED BY RF-SCORE:    0.00 PKD
ROOT
HETATM    1  C   UNL     1     -12.249  10.390  71.080  1.00  0.00    -0.498 C  
HETATM    2  C   UNL     1     -11.397  10.805  69.906  1.00  0.00    -0.311 C  
ENDROOT
BRANCH   2   3
HETATM    3  O   UNL     1     -12.231  11.411  68.913  1.00  0.00    -0.458 OA 
BRANCH   3   4
HETATM    4  C   UNL     1     -11.452  12.356  68.181  1.00  0.00    -0.318 C  
BRANCH   4   5
HETATM    5  C   UNL     1     -12.160  13.685  68.018  1.00  0.00    -0.274 C  
BRANCH   5   6
HETATM    6  N   UNL     1     -11.874  14.711  69.007  1.00  0.00    -0.311 NA 
HETATM    7  C   UNL     1     -10.979  15.776  68.828  1.00  0.00    -0.291 A  
HETATM    8  N   UNL     1     -10.853  16.442  69.961  1.00  0.00    -0.338 NA 
HETATM    9  C   UNL     1     -12.337  14.753  70.318  1.00  0.00    -0.345 A  
HETATM   10  C   UNL     1     -13.223  13.979  71.099  1.00  0.00    -0.337 A  
HETATM   11  C   UNL     1     -11.682  15.846  70.872  1.00  0.00    -0.420 A  
HETATM   12  C   UNL     1     -13.444  14.318  72.433  1.00  0.00    -0.586 A  
HETATM   13  C   UNL     1     -11.908  16.181  72.223  1.00  0.00    -0.631 A  
HETATM   14  C   UNL     1     -12.796  15.414  72.993  1.00  0.00    -0.572 A  
BRANCH   7  15
HETATM   15  N   UNL     1     -10.247  16.012  67.691  1.00  0.00    -0.257 NA 
HETATM   16  N   UNL     1      -8.784  18.554  66.078  1.00  0.00    -0.497 NA 
HETATM   17  C   UNL     1      -7.805  16.712  67.549  1.00  0.00    -0.191 C  
HETATM   18  C   UNL     1     -10.045  18.346  66.807  1.00  0.00    -0.373 C  
HETATM   19  C   UNL     1      -8.838  15.584  67.674  1.00  0.00    -0.179 C  
HETATM   20  C   UNL     1      -8.182  19.823  66.486  1.00  0.00    -0.335 C  
HETATM   21  C   UNL     1     -10.656  16.945  66.636  1.00  0.00    -0.189 C  
HETATM   22  C   UNL     1      -7.841  17.436  66.197  1.00  0.00    -0.258 C  
ENDBRANCH   7  15
ENDBRANCH   5   6
ENDBRANCH   4   5
ENDBRANCH   3   4
ENDBRANCH   2   3
TORSDOF 5
ENDMDL
MODEL        5
REMARK 921   NORMALIZED FREE ENERGY PREDICTED BY IDOCK:   -6.27 KCAL/MOL
REMARK 922        TOTAL FREE ENERGY PREDICTED BY IDOCK:   -8.74 KCAL/MOL
REMARK 923 INTER-LIGAND FREE ENERGY PREDICTED BY IDOCK:   -8.08 KCAL/MOL
REMARK 924 INTRA-LIGAND FREE ENERGY PREDICTED BY IDOCK:   -0.65 KCAL/MOL
REMARK 927      BINDING AFFINITY PREDICTED BY RF-SCORE:    0.00 PKD
ROOT
HETATM    1  C   UNL     1     -12.486  15.509  73.491  1.00  0.00    -0.674 C  
HETATM    2  C   UNL     1     -12.202  15.943  72.075  1.00  0.00    -0.490 C  
ENDROOT
BRANCH   2   3
HETATM    3  O   UNL     1     -11.483  14.905  71.401  1.00  0.00    -0.331 OA 
BRANCH   3   4
HETATM    4  C   UNL     1     -10.787  15.478  70.295  1.00  0.00    -0.339 C  
BRANCH   4   5
HETATM    5  C   UNL     1     -11.700  15.755  69.119  1.00  0.00    -0.388 C  
BRANCH   5   6
HETATM    6  N   UNL     1     -11.124  15.624  67.791  1.00  0.00    -0.320 NA 
HETATM    7  C   UNL     1     -10.375  16.613  67.136  1.00  0.00    -0.300 A  
HETATM    8  N   UNL     1     -10.119  16.226  65.900  1.00  0.00    -0.344 NA 
HETATM    9  C   UNL     1     -11.308  14.566  66.907  1.00  0.00    -0.348 A  
HETATM   10  C   UNL     1     -11.960  13.314  66.955  1.00  0.00    -0.430 A  
HETATM   11  C   UNL     1     -10.663  14.980  65.747  1.00  0.00    -0.342 A  
HETATM   12  C   UNL     1     -11.952  12.488  65.832  1.00  0.00    -0.472 A  
HETATM   13  C   UNL     1     -10.662  14.139  64.615  1.00  0.00    -0.408 A  
HETATM   14  C   UNL     1     -11.304  12.893  64.670  1.00  0.00    -0.361 A  
BRANCH   7  15
HETATM   15  N   UNL     1     -10.068  17.846  67.654  1.00  0.00    -0.331 NA 
HETATM   16  N   UNL     1      -7.684  20.185  67.437  1.00  0.00    -0.294 NA 
HETATM   17  C   UNL     1     -10.020  20.069  66.415  1.00  0.00    -0.601 C  
HETATM   18  C   UNL     1      -7.726  18.715  67.486  1.00  0.00    -0.229 C  
HETATM   19  C   UNL     1     -10.833  19.009  67.171  1.00  0.00    -0.387 C  
HETATM   20  C   UNL     1      -6.757  20.617  66.392  1.00  0.00    -0.249 C  
HETATM   21  C   UNL     1      -8.833  18.140  68.386  1.00  0.00    -0.293 C  
HETATM   22  C   UNL     1      -9.004  20.811  67.293  1.00  0.00    -0.153 C  
ENDBRANCH   7  15
ENDBRANCH   5   6
ENDBRANCH   4   5
ENDBRANCH   3   4
ENDBRANCH   2   3
TORSDOF 5
ENDMDL
MODEL        6
REMARK 921   NORMALIZED FREE ENERGY PREDICTED BY IDOCK:   -6.25 KCAL/MOL
REMARK 922        TOTAL FREE ENERGY PREDICTED BY IDOCK:   -8.71 KCAL/MOL
REMARK 923 INTER-LIGAND FREE ENERGY PREDICTED BY IDOCK:   -7.99 KCAL/MOL
REMARK 924 INTRA-LIGAND FREE ENERGY PREDICTED BY IDOCK:   -0.72 KCAL/MOL
REMARK 927      BINDING AFFINITY PREDICTED BY RF-SCORE:    0.00 PKD
ROOT
HETATM    1  C   UNL     1     -10.390   9.555  67.043  1.00  0.00    -0.319 C  
HETATM    2  C   UNL     1     -10.934  10.385  68.179  1.00  0.00    -0.281 C  
ENDROOT
BRANCH   2   3
HETATM    3  O   UNL     1     -12.053  11.145  67.710  1.00  0.00    -0.606 OA 
BRANCH   3   4
HETATM    4  C   UNL     1     -11.611  12.468  67.412  1.00  0.00    -0.370 C  
BRANCH   4   5
HETATM    5  C   UNL     1     -10.699  13.028  68.483  1.00  0.00    -0.255 C  
BRANCH   5   6
HETATM    6  N   UNL     1     -11.207  14.141  69.268  1.00  0.00    -0.263 NA 
HETATM    7  C   UNL     1     -10.812  15.478  69.119  1.00  0.00    -0.251 A  
HETATM    8  N   UNL     1     -11.361  16.209  70.071  1.00  0.00    -0.341 NA 
HETATM    9  C   UNL     1     -12.067  14.064  70.358  1.00  0.00    -0.356 A  
HETATM   10  C   UNL     1     -12.777  13.032  71.011  1.00  0.00    -0.347 A  
HETATM   11  C   UNL     1     -12.138  15.371  70.824  1.00  0.00    -0.366 A  
HETATM   12  C   UNL     1     -13.559  13.331  72.126  1.00  0.00    -0.655 A  
HETATM   13  C   UNL     1     -12.929  15.664  71.954  1.00  0.00    -0.541 A  
HETATM   14  C   UNL     1     -13.640  14.638  72.594  1.00  0.00    -0.571 A  
BRANCH   7  15
HETATM   15  N   UNL     1      -9.895  15.936  68.205  1.00  0.00    -0.215 NA 
HETATM   16  N   UNL     1      -9.436  18.514  66.121  1.00  0.00    -0.493 NA 
HETATM   17  C   UNL     1      -8.421  18.001  68.406  1.00  0.00    -0.306 C  
HETATM   18  C   UNL     1     -10.570  17.671  66.532  1.00  0.00    -0.207 C  
HETATM   19  C   UNL     1      -8.640  16.514  68.716  1.00  0.00    -0.262 C  
HETATM   20  C   UNL     1      -9.842  19.919  66.115  1.00  0.00    -0.458 C  
HETATM   21  C   UNL     1     -10.207  16.201  66.798  1.00  0.00    -0.281 C  
HETATM   22  C   UNL     1      -8.220  18.298  66.914  1.00  0.00    -0.247 C  
ENDBRANCH   7  15
ENDBRANCH   5   6
ENDBRANCH   4   5
ENDBRANCH   3   4
ENDBRANCH   2   3
TORSDOF 5
ENDMDL
MODEL        7
REMARK 921   NORMALIZED FREE ENERGY PREDICTED BY IDOCK:   -6.14 KCAL/MOL
REMARK 922        TOTAL FREE ENERGY PREDICTED BY IDOCK:   -8.56 KCAL/MOL
REMARK 923 INTER-LIGAND FREE ENERGY PREDICTED BY IDOCK:   -8.05 KCAL/MOL
REMARK 924 INTRA-LIGAND FREE ENERGY PREDICTED BY IDOCK:   -0.51 KCAL/MOL
REMARK 927      BINDING AFFINITY PREDICTED BY RF-SCORE:    0.00 PKD
ROOT
HETATM    1  C   UNL     1     -13.098  15.532  72.864  1.00  0.00    -0.610 C  
HETATM    2  C   UNL     1     -11.896  16.124  72.171  1.00  0.00    -0.536 C  
ENDROOT
BRANCH   2   3
HETATM    3  O   UNL     1     -11.410  15.193  71.198  1.00  0.00    -0.323 OA 
BRANCH   3   4
HETATM    4  C   UNL     1     -11.714  15.695  69.897  1.00  0.00    -0.362 C  
BRANCH   4   5
HETATM    5  C   UNL     1     -10.523  15.641  68.964  1.00  0.00    -0.229 C  
BRANCH   5   6
HETATM    6  N   UNL     1     -10.581  16.470  67.771  1.00  0.00    -0.325 NA 
HETATM    7  C   UNL     1     -10.757  15.991  66.464  1.00  0.00    -0.238 A  
HETATM    8  N   UNL     1     -10.628  16.987  65.608  1.00  0.00    -0.497 NA 
HETATM    9  C   UNL     1     -10.360  17.842  67.701  1.00  0.00    -0.373 A  
HETATM   10  C   UNL     1     -10.114  18.872  68.635  1.00  0.00    -0.447 A  
HETATM   11  C   UNL     1     -10.402  18.121  66.341  1.00  0.00    -0.394 A  
HETATM   12  C   UNL     1      -9.916  20.177  68.187  1.00  0.00    -0.486 A  
HETATM   13  C   UNL     1     -10.199  19.443  65.896  1.00  0.00    -0.471 A  
HETATM   14  C   UNL     1      -9.963  20.465  66.828  1.00  0.00    -0.525 A  
BRANCH   7  15
HETATM   15  N   UNL     1     -10.909  14.671  66.119  1.00  0.00    -0.314 NA 
HETATM   16  N   UNL     1      -9.815  11.647  67.048  1.00  0.00    -0.191 NA 
HETATM   17  C   UNL     1     -12.027  12.841  67.489  1.00  0.00    -0.342 C  
HETATM   18  C   UNL     1      -9.224  12.986  66.887  1.00  0.00    -0.236 C  
HETATM   19  C   UNL     1     -12.166  14.000  66.492  1.00  0.00    -0.451 C  
HETATM   20  C   UNL     1      -9.364  11.057  68.307  1.00  0.00    -0.172 C  
HETATM   21  C   UNL     1      -9.801  13.799  65.716  1.00  0.00    -0.221 C  
HETATM   22  C   UNL     1     -11.277  11.627  66.925  1.00  0.00    -0.313 C  
ENDBRANCH   7  15
ENDBRANCH   5   6
ENDBRANCH   4   5
ENDBRANCH   3   4
ENDBRANCH   2   3
TORSDOF 5
ENDMDL
MODEL        8
REMARK 921   NORMALIZED FREE ENERGY PREDICTED BY IDOCK:   -6.10 KCAL/MOL
REMARK 922        TOTAL FREE ENERGY PREDICTED BY IDOCK:   -8.52 KCAL/MOL
REMARK 923 INTER-LIGAND FREE ENERGY PREDICTED BY IDOCK:   -7.87 KCAL/MOL
REMARK 924 INTRA-LIGAND FREE ENERGY PREDICTED BY IDOCK:   -0.64 KCAL/MOL
REMARK 927      BINDING AFFINITY PREDICTED BY RF-SCORE:    0.00 PKD
ROOT
HETATM    1  C   UNL     1     -13.895  14.584  72.471  1.00  0.00    -0.555 C  
HETATM    2  C   UNL     1     -12.947  15.755  72.545  1.00  0.00    -0.470 C  
ENDROOT
BRANCH   2   3
HETATM    3  O   UNL     1     -12.382  15.984  71.250  1.00  0.00    -0.437 OA 
BRANCH   3   4
HETATM    4  C   UNL     1     -12.692  14.870  70.415  1.00  0.00    -0.321 C  
BRANCH   4   5
HETATM    5  C   UNL     1     -11.458  14.258  69.786  1.00  0.00    -0.261 C  
BRANCH   5   6
HETATM    6  N   UNL     1     -11.670  13.280  68.732  1.00  0.00    -0.308 NA 
HETATM    7  C   UNL     1     -11.722  11.891  68.920  1.00  0.00    -0.323 A  
HETATM    8  N   UNL     1     -11.791  11.289  67.748  1.00  0.00    -0.638 NA 
HETATM    9  C   UNL     1     -11.739  13.532  67.366  1.00  0.00    -0.380 A  
HETATM   10  C   UNL     1     -11.726  14.687  66.553  1.00  0.00    -0.335 A  
HETATM   11  C   UNL     1     -11.818  12.269  66.793  1.00  0.00    -0.277 A  
HETATM   12  C   UNL     1     -11.799  14.556  65.167  1.00  0.00    -0.374 A  
HETATM   13  C   UNL     1     -11.889  12.145  65.391  1.00  0.00    -0.357 A  
HETATM   14  C   UNL     1     -11.885  13.295  64.587  1.00  0.00    -0.420 A  
BRANCH   7  15
HETATM   15  N   UNL     1     -11.590  11.250  70.128  1.00  0.00    -0.318 NA 
HETATM   16  N   UNL     1     -13.064   8.828  71.906  1.00  0.00    -0.354 NA 
HETATM   17  C   UNL     1     -10.922   8.826  70.519  1.00  0.00    -0.272 C  
HETATM   18  C   UNL     1     -13.512   9.940  71.053  1.00  0.00    -0.193 C  
HETATM   19  C   UNL     1     -10.492  10.280  70.279  1.00  0.00    -0.146 C  
HETATM   20  C   UNL     1     -13.815   7.618  71.575  1.00  0.00    -0.375 C  
HETATM   21  C   UNL     1     -12.642  11.205  71.147  1.00  0.00    -0.409 C  
HETATM   22  C   UNL     1     -11.614   8.601  71.869  1.00  0.00    -0.350 C  
ENDBRANCH   7  15
ENDBRANCH   5   6
ENDBRANCH   4   5
ENDBRANCH   3   4
ENDBRANCH   2   3
TORSDOF 5
ENDMDL
MODEL        9
REMARK 921   NORMALIZED FREE ENERGY PREDICTED BY IDOCK:   -6.01 KCAL/MOL
REMARK 922        TOTAL FREE ENERGY PREDICTED BY IDOCK:   -8.40 KCAL/MOL
REMARK 923 INTER-LIGAND FREE ENERGY PREDICTED BY IDOCK:   -7.77 KCAL/MOL
REMARK 924 INTRA-LIGAND FREE ENERGY PREDICTED BY IDOCK:   -0.63 KCAL/MOL
REMARK 927      BINDING AFFINITY PREDICTED BY RF-SCORE:    0.00 PKD
ROOT
HETATM    1  C   UNL     1      -7.654  17.526  66.109  1.00  0.00    -0.320 C  
HETATM    2  C   UNL     1      -7.568  17.844  67.581  1.00  0.00    -0.212 C  
ENDROOT
BRANCH   2   3
HETATM    3  O   UNL     1      -8.836  18.335  68.029  1.00  0.00    -0.267 OA 
BRANCH   3   4
HETATM    4  C   UNL     1      -9.457  17.327  68.826  1.00  0.00    -0.256 C  
BRANCH   4   5
HETATM    5  C   UNL     1     -10.809  16.913  68.283  1.00  0.00    -0.357 C  
BRANCH   5   6
HETATM    6  N   UNL     1     -11.372  15.672  68.789  1.00  0.00    -0.327 NA 
HETATM    7  C   UNL     1     -11.640  14.534  68.014  1.00  0.00    -0.336 A  
HETATM    8  N   UNL     1     -12.269  13.637  68.750  1.00  0.00    -0.280 NA 
HETATM    9  C   UNL     1     -11.843  15.437  70.076  1.00  0.00    -0.343 A  
HETATM   10  C   UNL     1     -11.883  16.169  71.284  1.00  0.00    -0.458 A  
HETATM   11  C   UNL     1     -12.387  14.161  70.009  1.00  0.00    -0.344 A  
HETATM   12  C   UNL     1     -12.469  15.602  72.415  1.00  0.00    -0.513 A  
HETATM   13  C   UNL     1     -12.980  13.596  71.156  1.00  0.00    -0.353 A  
HETATM   14  C   UNL     1     -13.010  14.322  72.356  1.00  0.00    -0.478 A  
BRANCH   7  15
HETATM   15  N   UNL     1     -11.403  14.421  66.666  1.00  0.00    -0.343 NA 
HETATM   16  N   UNL     1     -10.180  12.215  64.466  1.00  0.00    -0.289 NA 
HETATM   17  C   UNL     1     -12.581  12.879  65.020  1.00  0.00    -0.538 C  
HETATM   18  C   UNL     1      -9.835  12.659  65.826  1.00  0.00    -0.228 C  
HETATM   19  C   UNL     1     -12.559  14.215  65.776  1.00  0.00    -0.447 C  
HETATM   20  C   UNL     1     -10.123  10.755  64.394  1.00  0.00    -0.353 C  
HETATM   21  C   UNL     1     -10.082  14.154  66.089  1.00  0.00    -0.313 C  
HETATM   22  C   UNL     1     -11.463  12.738  63.980  1.00  0.00    -0.417 C  
ENDBRANCH   7  15
ENDBRANCH   5   6
ENDBRANCH   4   5
ENDBRANCH   3   4
ENDBRANCH   2   3
TORSDOF 5
ENDMDL
MODEL       10
REMARK 921   NORMALIZED FREE ENERGY PREDICTED BY IDOCK:   -5.96 KCAL/MOL
REMARK 922        TOTAL FREE ENERGY PREDICTED BY IDOCK:   -8.34 KCAL/MOL
REMARK 923 INTER-LIGAND FREE ENERGY PREDICTED BY IDOCK:   -7.76 KCAL/MOL
REMARK 924 INTRA-LIGAND FREE ENERGY PREDICTED BY IDOCK:   -0.57 KCAL/MOL
REMARK 927      BINDING AFFINITY PREDICTED BY RF-SCORE:    0.00 PKD
ROOT
HETATM    1  C   UNL     1     -13.158   9.460  72.231  1.00  0.00    -0.509 C  
HETATM    2  C   UNL     1     -12.832  10.035  70.875  1.00  0.00    -0.324 C  
ENDROOT
BRANCH   2   3
HETATM    3  O   UNL     1     -11.462  10.447  70.857  1.00  0.00    -0.344 OA 
BRANCH   3   4
HETATM    4  C   UNL     1     -11.174  11.015  69.580  1.00  0.00    -0.278 C  
BRANCH   4   5
HETATM    5  C   UNL     1     -12.269  11.945  69.101  1.00  0.00    -0.082 C  
BRANCH   5   6
HETATM    6  N   UNL     1     -12.160  13.344  69.480  1.00  0.00    -0.304 NA 
HETATM    7  C   UNL     1     -11.633  14.360  68.669  1.00  0.00    -0.314 A  
HETATM    8  N   UNL     1     -11.556  15.481  69.360  1.00  0.00    -0.331 NA 
HETATM    9  C   UNL     1     -12.442  13.892  70.727  1.00  0.00    -0.375 A  
HETATM   10  C   UNL     1     -12.965  13.406  71.946  1.00  0.00    -0.422 A  
HETATM   11  C   UNL     1     -12.056  15.221  70.607  1.00  0.00    -0.354 A  
HETATM   12  C   UNL     1     -13.099  14.269  73.032  1.00  0.00    -0.526 A  
HETATM   13  C   UNL     1     -12.192  16.087  71.711  1.00  0.00    -0.535 A  
HETATM   14  C   UNL     1     -12.720  15.603  72.917  1.00  0.00    -0.559 A  
BRANCH   7  15
HETATM   15  N   UNL     1     -11.151  14.185  67.395  1.00  0.00    -0.298 NA 
HETATM   16  N   UNL     1      -9.704  11.825  65.514  1.00  0.00    -0.229 NA 
HETATM   17  C   UNL     1     -12.108  12.679  65.580  1.00  0.00    -0.515 C  
HETATM   18  C   UNL     1      -9.594  12.287  66.906  1.00  0.00    -0.213 C  
HETATM   19  C   UNL     1     -12.128  14.034  66.301  1.00  0.00    -0.456 C  
HETATM   20  C   UNL     1      -9.748  10.364  65.481  1.00  0.00    -0.249 C  
HETATM   21  C   UNL     1      -9.769  13.804  67.089  1.00  0.00    -0.244 C  
HETATM   22  C   UNL     1     -10.825  12.423  64.779  1.00  0.00    -0.304 C  
ENDBRANCH   7  15
ENDBRANCH   5   6
ENDBRANCH   4   5
ENDBRANCH   3   4
ENDBRANCH   2   3
TORSDOF 5
ENDMDL
MODEL       11
REMARK 921   NORMALIZED FREE ENERGY PREDICTED BY IDOCK:   -5.95 KCAL/MOL
REMARK 922        TOTAL FREE ENERGY PREDICTED BY IDOCK:   -8.32 KCAL/MOL
REMARK 923 INTER-LIGAND FREE ENERGY PREDICTED BY IDOCK:   -7.63 KCAL/MOL
REMARK 924 INTRA-LIGAND FREE ENERGY PREDICTED BY IDOCK:   -0.69 KCAL/MOL
REMARK 927      BINDING AFFINITY PREDICTED BY RF-SCORE:    0.00 PKD
ROOT
HETATM    1  C   UNL     1     -12.506  11.952  63.549  1.00  0.00    -0.609 C  
HETATM    2  C   UNL     1     -12.455  12.948  64.681  1.00  0.00    -0.434 C  
ENDROOT
BRANCH   2   3
HETATM    3  O   UNL     1     -12.351  12.242  65.922  1.00  0.00    -0.618 OA 
BRANCH   3   4
HETATM    4  C   UNL     1     -11.064  11.630  65.989  1.00  0.00    -0.270 C  
BRANCH   4   5
HETATM    5  C   UNL     1     -10.441  11.745  67.365  1.00  0.00    -0.211 C  
BRANCH   5   6
HETATM    6  N   UNL     1     -10.956  12.786  68.239  1.00  0.00    -0.240 NA 
HETATM    7  C   UNL     1     -10.701  14.158  68.095  1.00  0.00    -0.245 A  
HETATM    8  N   UNL     1     -11.203  14.811  69.126  1.00  0.00    -0.257 NA 
HETATM    9  C   UNL     1     -11.678  12.603  69.413  1.00  0.00    -0.325 A  
HETATM   10  C   UNL     1     -12.216  11.494  70.102  1.00  0.00    -0.387 A  
HETATM   11  C   UNL     1     -11.813  13.886  69.929  1.00  0.00    -0.328 A  
HETATM   12  C   UNL     1     -12.892  11.691  71.306  1.00  0.00    -0.430 A  
HETATM   13  C   UNL     1     -12.496  14.076  71.148  1.00  0.00    -0.447 A  
HETATM   14  C   UNL     1     -13.036  12.973  71.825  1.00  0.00    -0.469 A  
BRANCH   7  15
HETATM   15  N   UNL     1      -9.936  14.721  67.103  1.00  0.00    -0.234 NA 
HETATM   16  N   UNL     1      -9.035  17.741  65.979  1.00  0.00    -0.514 NA 
HETATM   17  C   UNL     1      -7.770  16.027  67.384  1.00  0.00    -0.195 C  
HETATM   18  C   UNL     1     -10.268  17.126  66.495  1.00  0.00    -0.322 C  
HETATM   19  C   UNL     1      -8.470  14.668  67.247  1.00  0.00    -0.215 C  
HETATM   20  C   UNL     1      -8.844  19.055  66.593  1.00  0.00    -0.318 C  
HETATM   21  C   UNL     1     -10.457  15.652  66.098  1.00  0.00    -0.317 C  
HETATM   22  C   UNL     1      -7.845  16.892  66.120  1.00  0.00    -0.242 C  
ENDBRANCH   7  15
ENDBRANCH   5   6
ENDBRANCH   4   5
ENDBRANCH   3   4
ENDBRANCH   2   3
TORSDOF 5
ENDMDL
MODEL       12
REMARK 921   NORMALIZED FREE ENERGY PREDICTED BY IDOCK:   -5.85 KCAL/MOL
REMARK 922        TOTAL FREE ENERGY PREDICTED BY IDOCK:   -8.19 KCAL/MOL
REMARK 923 INTER-LIGAND FREE ENERGY PREDICTED BY IDOCK:   -7.79 KCAL/MOL
REMARK 924 INTRA-LIGAND FREE ENERGY PREDICTED BY IDOCK:   -0.40 KCAL/MOL
REMARK 927      BINDING AFFINITY PREDICTED BY RF-SCORE:    0.00 PKD
ROOT
HETATM    1  C   UNL     1     -14.146   7.874  71.949  1.00  0.00    -0.471 C  
HETATM    2  C   UNL     1     -13.742   9.319  72.105  1.00  0.00    -0.453 C  
ENDROOT
BRANCH   2   3
HETATM    3  O   UNL     1     -12.454   9.512  71.510  1.00  0.00    -0.328 OA 
BRANCH   3   4
HETATM    4  C   UNL     1     -12.630  10.136  70.239  1.00  0.00    -0.073 C  
BRANCH   4   5
HETATM    5  C   UNL     1     -11.516  11.110  69.915  1.00  0.00    -0.306 C  
BRANCH   5   6
HETATM    6  N   UNL     1     -11.879  12.512  69.795  1.00  0.00    -0.328 NA 
HETATM    7  C   UNL     1     -11.588  13.328  68.692  1.00  0.00    -0.327 A  
HETATM    8  N   UNL     1     -11.935  14.573  68.960  1.00  0.00    -0.315 NA 
HETATM    9  C   UNL     1     -12.461  13.306  70.777  1.00  0.00    -0.324 A  
HETATM   10  C   UNL     1     -12.957  13.093  72.082  1.00  0.00    -0.382 A  
HETATM   11  C   UNL     1     -12.481  14.577  70.215  1.00  0.00    -0.348 A  
HETATM   12  C   UNL     1     -13.474  14.166  72.807  1.00  0.00    -0.592 A  
HETATM   13  C   UNL     1     -13.003  15.656  70.956  1.00  0.00    -0.518 A  
HETATM   14  C   UNL     1     -13.503  15.439  72.249  1.00  0.00    -0.573 A  
BRANCH   7  15
HETATM   15  N   UNL     1     -10.926  12.922  67.559  1.00  0.00    -0.249 NA 
HETATM   16  N   UNL     1     -11.447  12.620  64.268  1.00  0.00    -0.339 NA 
HETATM   17  C   UNL     1     -10.173  14.377  65.611  1.00  0.00    -0.371 C  
HETATM   18  C   UNL     1     -12.226  12.374  65.492  1.00  0.00    -0.286 C  
HETATM   19  C   UNL     1      -9.888  13.812  67.010  1.00  0.00    -0.251 C  
HETATM   20  C   UNL     1     -12.277  13.320  63.287  1.00  0.00    -0.313 C  
HETATM   21  C   UNL     1     -11.398  11.851  66.677  1.00  0.00    -0.337 C  
HETATM   22  C   UNL     1     -10.176  13.315  64.504  1.00  0.00    -0.310 C  
ENDBRANCH   7  15
ENDBRANCH   5   6
ENDBRANCH   4   5
ENDBRANCH   3   4
ENDBRANCH   2   3
TORSDOF 5
ENDMDL
MODEL       13
REMARK 921   NORMALIZED FREE ENERGY PREDICTED BY IDOCK:   -5.84 KCAL/MOL
REMARK 922        TOTAL FREE ENERGY PREDICTED BY IDOCK:   -8.17 KCAL/MOL
REMARK 923 INTER-LIGAND FREE ENERGY PREDICTED BY IDOCK:   -7.54 KCAL/MOL
REMARK 924 INTRA-LIGAND FREE ENERGY PREDICTED BY IDOCK:   -0.63 KCAL/MOL
REMARK 927      BINDING AFFINITY PREDICTED BY RF-SCORE:    0.00 PKD
ROOT
HETATM    1  C   UNL     1     -10.055  18.813  68.479  1.00  0.00    -0.444 C  
HETATM    2  C   UNL     1     -10.008  17.308  68.564  1.00  0.00    -0.320 C  
ENDROOT
BRANCH   2   3
HETATM    3  O   UNL     1     -10.874  16.870  69.616  1.00  0.00    -0.302 OA 
BRANCH   3   4
HETATM    4  C   UNL     1     -11.602  15.730  69.162  1.00  0.00    -0.392 C  
BRANCH   4   5
HETATM    5  C   UNL     1     -10.693  14.604  68.717  1.00  0.00    -0.249 C  
BRANCH   5   6
HETATM    6  N   UNL     1     -11.263  13.607  67.826  1.00  0.00    -0.274 NA 
HETATM    7  C   UNL     1     -11.507  12.268  68.165  1.00  0.00    -0.316 A  
HETATM    8  N   UNL     1     -11.901  11.606  67.093  1.00  0.00    -0.607 NA 
HETATM    9  C   UNL     1     -11.553  13.769  66.475  1.00  0.00    -0.365 A  
HETATM   10  C   UNL     1     -11.507  14.842  65.556  1.00  0.00    -0.329 A  
HETATM   11  C   UNL     1     -11.949  12.504  66.061  1.00  0.00    -0.392 A  
HETATM   12  C   UNL     1     -11.868  14.626  64.227  1.00  0.00    -0.355 A  
HETATM   13  C   UNL     1     -12.310  12.295  64.714  1.00  0.00    -0.416 A  
HETATM   14  C   UNL     1     -12.271  13.364  63.807  1.00  0.00    -0.482 A  
BRANCH   7  15
HETATM   15  N   UNL     1     -11.252  11.703  69.390  1.00  0.00    -0.255 NA 
HETATM   16  N   UNL     1     -12.717   9.692  71.628  1.00  0.00    -0.375 NA 
HETATM   17  C   UNL     1     -10.894   9.236  69.901  1.00  0.00    -0.252 C  
HETATM   18  C   UNL     1     -13.144  10.799  70.758  1.00  0.00    -0.163 C  
HETATM   19  C   UNL     1     -10.303  10.577  69.447  1.00  0.00    -0.234 C  
HETATM   20  C   UNL     1     -13.690   8.603  71.553  1.00  0.00    -0.324 C  
HETATM   21  C   UNL     1     -12.091  11.906  70.574  1.00  0.00    -0.331 C  
HETATM   22  C   UNL     1     -11.350   9.226  71.366  1.00  0.00    -0.364 C  
ENDBRANCH   7  15
ENDBRANCH   5   6
ENDBRANCH   4   5
ENDBRANCH   3   4
ENDBRANCH   2   3
TORSDOF 5
ENDMDL
MODEL       14
REMARK 921   NORMALIZED FREE ENERGY PREDICTED BY IDOCK:   -5.82 KCAL/MOL
REMARK 922        TOTAL FREE ENERGY PREDICTED BY IDOCK:   -8.15 KCAL/MOL
REMARK 923 INTER-LIGAND FREE ENERGY PREDICTED BY IDOCK:   -7.36 KCAL/MOL
REMARK 924 INTRA-LIGAND FREE ENERGY PREDICTED BY IDOCK:   -0.79 KCAL/MOL
REMARK 927      BINDING AFFINITY PREDICTED BY RF-SCORE:    0.00 PKD
ROOT
HETATM    1  C   UNL     1      -9.214  17.654  68.448  1.00  0.00    -0.288 C  
HETATM    2  C   UNL     1      -8.563  16.368  68.894  1.00  0.00    -0.250 C  
ENDROOT
BRANCH   2   3
HETATM    3  O   UNL     1      -9.562  15.347  68.993  1.00  0.00    -0.207 OA 
BRANCH   3   4
HETATM    4  C   UNL     1     -10.811  15.962  69.306  1.00  0.00    -0.276 C  
BRANCH   4   5
HETATM    5  C   UNL     1     -11.987  15.219  68.708  1.00  0.00    -0.251 C  
BRANCH   5   6
HETATM    6  N   UNL     1     -11.984  13.771  68.828  1.00  0.00    -0.361 NA 
HETATM    7  C   UNL     1     -11.720  12.875  67.781  1.00  0.00    -0.362 A  
HETATM    8  N   UNL     1     -11.930  11.639  68.194  1.00  0.00    -0.590 NA 
HETATM    9  C   UNL     1     -12.349  13.029  69.947  1.00  0.00    -0.110 A  
HETATM   10  C   UNL     1     -12.732  13.329  71.274  1.00  0.00    -0.411 A  
HETATM   11  C   UNL     1     -12.298  11.712  69.510  1.00  0.00    -0.089 A  
HETATM   12  C   UNL     1     -13.055  12.293  72.149  1.00  0.00    -0.406 A  
HETATM   13  C   UNL     1     -12.628  10.670  70.401  1.00  0.00    -0.395 A  
HETATM   14  C   UNL     1     -13.000  10.971  71.720  1.00  0.00    -0.544 A  
BRANCH   7  15
HETATM   15  N   UNL     1     -11.417  13.234  66.491  1.00  0.00    -0.323 NA 
HETATM   16  N   UNL     1      -9.961  11.956  63.762  1.00  0.00    -0.353 NA 
HETATM   17  C   UNL     1     -12.421  12.286  64.354  1.00  0.00    -0.484 C  
HETATM   18  C   UNL     1      -9.705  11.931  65.211  1.00  0.00    -0.192 C  
HETATM   19  C   UNL     1     -12.517  13.288  65.512  1.00  0.00    -0.474 C  
HETATM   20  C   UNL     1      -9.808  10.611  63.210  1.00  0.00    -0.312 C  
HETATM   21  C   UNL     1     -10.058  13.237  65.942  1.00  0.00    -0.291 C  
HETATM   22  C   UNL     1     -11.251  12.555  63.399  1.00  0.00    -0.397 C  
ENDBRANCH   7  15
ENDBRANCH   5   6
ENDBRANCH   4   5
ENDBRANCH   3   4
ENDBRANCH   2   3
TORSDOF 5
ENDMDL
MODEL       15
REMARK 921   NORMALIZED FREE ENERGY PREDICTED BY IDOCK:   -5.79 KCAL/MOL
REMARK 922        TOTAL FREE ENERGY PREDICTED BY IDOCK:   -8.11 KCAL/MOL
REMARK 923 INTER-LIGAND FREE ENERGY PREDICTED BY IDOCK:   -7.58 KCAL/MOL
REMARK 924 INTRA-LIGAND FREE ENERGY PREDICTED BY IDOCK:   -0.53 KCAL/MOL
REMARK 927      BINDING AFFINITY PREDICTED BY RF-SCORE:    0.00 PKD
ROOT
HETATM    1  C   UNL     1     -12.490  14.336  71.202  1.00  0.00    -0.433 C  
HETATM    2  C   UNL     1     -12.286  15.826  71.316  1.00  0.00    -0.438 C  
ENDROOT
BRANCH   2   3
HETATM    3  O   UNL     1     -11.237  16.224  70.427  1.00  0.00    -0.373 OA 
BRANCH   3   4
HETATM    4  C   UNL     1     -11.556  15.766  69.114  1.00  0.00    -0.392 C  
BRANCH   4   5
HETATM    5  C   UNL     1     -10.341  15.706  68.212  1.00  0.00    -0.244 C  
BRANCH   5   6
HETATM    6  N   UNL     1     -10.581  15.489  66.795  1.00  0.00    -0.304 NA 
HETATM    7  C   UNL     1     -10.345  16.432  65.784  1.00  0.00    -0.369 A  
HETATM    8  N   UNL     1     -10.793  15.967  64.633  1.00  0.00    -0.606 NA 
HETATM    9  C   UNL     1     -11.183  14.378  66.215  1.00  0.00    -0.338 A  
HETATM   10  C   UNL     1     -11.662  13.133  66.681  1.00  0.00    -0.427 A  
HETATM   11  C   UNL     1     -11.291  14.715  64.872  1.00  0.00    -0.403 A  
HETATM   12  C   UNL     1     -12.242  12.237  65.784  1.00  0.00    -0.151 A  
HETATM   13  C   UNL     1     -11.882  13.804  63.972  1.00  0.00    -0.410 A  
HETATM   14  C   UNL     1     -12.348  12.566  64.437  1.00  0.00    -0.537 A  
BRANCH   7  15
HETATM   15  N   UNL     1      -9.845  17.696  65.981  1.00  0.00    -0.524 NA 
HETATM   16  N   UNL     1      -9.940  20.153  68.251  1.00  0.00    -0.367 NA 
HETATM   17  C   UNL     1      -8.141  18.422  67.726  1.00  0.00    -0.264 C  
HETATM   18  C   UNL     1     -10.904  19.198  67.681  1.00  0.00    -0.369 C  
HETATM   19  C   UNL     1      -8.422  17.828  66.339  1.00  0.00    -0.239 C  
HETATM   20  C   UNL     1     -10.101  20.209  69.704  1.00  0.00     0.187 C  
HETATM   21  C   UNL     1     -10.681  18.881  66.193  1.00  0.00    -0.289 C  
HETATM   22  C   UNL     1      -8.549  19.894  67.863  1.00  0.00    -0.290 C  
ENDBRANCH   7  15
ENDBRANCH   5   6
ENDBRANCH   4   5
ENDBRANCH   3   4
ENDBRANCH   2   3
TORSDOF 5
ENDMDL
MODEL       16
REMARK 921   NORMALIZED FREE ENERGY PREDICTED BY IDOCK:   -5.70 KCAL/MOL
REMARK 922        TOTAL FREE ENERGY PREDICTED BY IDOCK:   -8.00 KCAL/MOL
REMARK 923 INTER-LIGAND FREE ENERGY PREDICTED BY IDOCK:   -7.27 KCAL/MOL
REMARK 924 INTRA-LIGAND FREE ENERGY PREDICTED BY IDOCK:   -0.73 KCAL/MOL
REMARK 927      BINDING AFFINITY PREDICTED BY RF-SCORE:    0.00 PKD
ROOT
HETATM    1  C   UNL     1     -11.868  14.190  66.290  1.00  0.00    -0.427 C  
HETATM    2  C   UNL     1     -11.118  12.990  66.811  1.00  0.00    -0.286 C  
ENDROOT
BRANCH   2   3
HETATM    3  O   UNL     1     -12.008  11.871  66.873  1.00  0.00    -0.614 OA 
BRANCH   3   4
HETATM    4  C   UNL     1     -11.481  10.922  67.799  1.00  0.00    -0.243 C  
BRANCH   4   5
HETATM    5  C   UNL     1     -10.861  11.582  69.012  1.00  0.00    -0.212 C  
BRANCH   5   6
HETATM    6  N   UNL     1     -11.710  11.748  70.181  1.00  0.00    -0.304 NA 
HETATM    7  C   UNL     1     -12.120  10.713  71.033  1.00  0.00    -0.368 A  
HETATM    8  N   UNL     1     -12.988  11.180  71.910  1.00  0.00    -0.441 NA 
HETATM    9  C   UNL     1     -12.348  12.916  70.584  1.00  0.00    -0.302 A  
HETATM   10  C   UNL     1     -12.364  14.259  70.145  1.00  0.00    -0.413 A  
HETATM   11  C   UNL     1     -13.128  12.519  71.663  1.00  0.00    -0.315 A  
HETATM   12  C   UNL     1     -13.165  15.190  70.805  1.00  0.00    -0.433 A  
HETATM   13  C   UNL     1     -13.936  13.467  72.323  1.00  0.00    -0.638 A  
HETATM   14  C   UNL     1     -13.943  14.801  71.890  1.00  0.00    -0.577 A  
BRANCH   7  15
HETATM   15  N   UNL     1     -11.773   9.391  70.896  1.00  0.00    -0.294 NA 
HETATM   16  N   UNL     1     -10.463   6.896  72.701  1.00  0.00    -0.205 NA 
HETATM   17  C   UNL     1     -12.872   7.387  72.016  1.00  0.00    -0.217 C  
HETATM   18  C   UNL     1     -10.217   8.339  72.551  1.00  0.00    -0.316 C  
HETATM   19  C   UNL     1     -12.856   8.393  70.857  1.00  0.00     0.165 C  
HETATM   20  C   UNL     1     -10.463   6.540  74.120  1.00  0.00    -0.239 C  
HETATM   21  C   UNL     1     -10.421   8.874  71.123  1.00  0.00    -0.266 C  
HETATM   22  C   UNL     1     -11.675   6.427  72.019  1.00  0.00    -0.329 C  
ENDBRANCH   7  15
ENDBRANCH   5   6
ENDBRANCH   4   5
ENDBRANCH   3   4
ENDBRANCH   2   3
TORSDOF 5
ENDMDL
MODEL       17
REMARK 921   NORMALIZED FREE ENERGY PREDICTED BY IDOCK:   -5.69 KCAL/MOL
REMARK 922        TOTAL FREE ENERGY PREDICTED BY IDOCK:   -7.99 KCAL/MOL
REMARK 923 INTER-LIGAND FREE ENERGY PREDICTED BY IDOCK:   -7.31 KCAL/MOL
REMARK 924 INTRA-LIGAND FREE ENERGY PREDICTED BY IDOCK:   -0.68 KCAL/MOL
REMARK 927      BINDING AFFINITY PREDICTED BY RF-SCORE:    0.00 PKD
ROOT
HETATM    1  C   UNL     1     -10.164  19.699  66.947  1.00  0.00    -0.560 C  
HETATM    2  C   UNL     1      -9.359  18.603  67.600  1.00  0.00    -0.288 C  
ENDROOT
BRANCH   2   3
HETATM    3  O   UNL     1      -9.994  18.221  68.825  1.00  0.00    -0.363 OA 
BRANCH   3   4
HETATM    4  C   UNL     1      -9.894  16.805  68.966  1.00  0.00    -0.260 C  
BRANCH   4   5
HETATM    5  C   UNL     1     -11.168  16.093  68.562  1.00  0.00    -0.365 C  
BRANCH   5   6
HETATM    6  N   UNL     1     -11.504  14.878  69.286  1.00  0.00    -0.285 NA 
HETATM    7  C   UNL     1     -11.162  13.579  68.883  1.00  0.00    -0.275 A  
HETATM    8  N   UNL     1     -11.732  12.702  69.688  1.00  0.00    -0.313 NA 
HETATM    9  C   UNL     1     -12.305  14.780  70.419  1.00  0.00    -0.344 A  
HETATM   10  C   UNL     1     -12.960  15.696  71.272  1.00  0.00    -0.556 A  
HETATM   11  C   UNL     1     -12.417  13.413  70.636  1.00  0.00    -0.311 A  
HETATM   12  C   UNL     1     -13.719  15.222  72.341  1.00  0.00    -0.622 A  
HETATM   13  C   UNL     1     -13.188  12.942  71.718  1.00  0.00    -0.479 A  
HETATM   14  C   UNL     1     -13.830  13.855  72.568  1.00  0.00    -0.620 A  
BRANCH   7  15
HETATM   15  N   UNL     1     -10.453  13.263  67.750  1.00  0.00    -0.235 NA 
HETATM   16  N   UNL     1      -8.254  10.983  66.668  1.00  0.00    -0.148 NA 
HETATM   17  C   UNL     1     -10.762  11.223  66.260  1.00  0.00    -0.312 C  
HETATM   18  C   UNL     1      -8.472  11.741  67.911  1.00  0.00    -0.154 C  
HETATM   19  C   UNL     1     -11.184  12.653  66.625  1.00  0.00    -0.300 C  
HETATM   20  C   UNL     1      -7.983   9.582  66.986  1.00  0.00    -0.109 C  
HETATM   21  C   UNL     1      -8.991  13.173  67.700  1.00  0.00    -0.192 C  
HETATM   22  C   UNL     1      -9.341  11.124  65.691  1.00  0.00    -0.219 C  
ENDBRANCH   7  15
ENDBRANCH   5   6
ENDBRANCH   4   5
ENDBRANCH   3   4
ENDBRANCH   2   3
TORSDOF 5
ENDMDL
MODEL       18
REMARK 921   NORMALIZED FREE ENERGY PREDICTED BY IDOCK:   -5.68 KCAL/MOL
REMARK 922        TOTAL FREE ENERGY PREDICTED BY IDOCK:   -7.97 KCAL/MOL
REMARK 923 INTER-LIGAND FREE ENERGY PREDICTED BY IDOCK:   -7.05 KCAL/MOL
REMARK 924 INTRA-LIGAND FREE ENERGY PREDICTED BY IDOCK:   -0.92 KCAL/MOL
REMARK 927      BINDING AFFINITY PREDICTED BY RF-SCORE:    0.00 PKD
ROOT
HETATM    1  C   UNL     1     -11.073  11.597  63.884  1.00  0.00    -0.477 C  
HETATM    2  C   UNL     1     -12.429  12.158  63.536  1.00  0.00    -0.555 C  
ENDROOT
BRANCH   2   3
HETATM    3  O   UNL     1     -13.111  12.517  64.742  1.00  0.00    -0.853 OA 
BRANCH   3   4
HETATM    4  C   UNL     1     -12.658  13.806  65.154  1.00  0.00    -0.433 C  
BRANCH   4   5
HETATM    5  C   UNL     1     -12.509  13.913  66.657  1.00  0.00    -0.270 C  
BRANCH   5   6
HETATM    6  N   UNL     1     -11.214  13.567  67.219  1.00  0.00    -0.289 NA 
HETATM    7  C   UNL     1     -10.134  14.451  67.358  1.00  0.00    -0.243 A  
HETATM    8  N   UNL     1      -9.072  13.788  67.776  1.00  0.00    -0.184 NA 
HETATM    9  C   UNL     1     -10.786  12.300  67.601  1.00  0.00    -0.225 A  
HETATM   10  C   UNL     1     -11.375  11.018  67.679  1.00  0.00    -0.355 A  
HETATM   11  C   UNL     1      -9.453  12.484  67.944  1.00  0.00    -0.196 A  
HETATM   12  C   UNL     1     -10.612   9.933  68.107  1.00  0.00    -0.270 A  
HETATM   13  C   UNL     1      -8.687  11.380  68.373  1.00  0.00    -0.157 A  
HETATM   14  C   UNL     1      -9.278  10.111  68.458  1.00  0.00    -0.144 A  
BRANCH   7  15
HETATM   15  N   UNL     1     -10.142  15.774  66.993  1.00  0.00    -0.255 NA 
HETATM   16  N   UNL     1      -8.968  18.723  68.055  1.00  0.00    -0.292 NA 
HETATM   17  C   UNL     1      -8.164  17.165  66.201  1.00  0.00    -0.269 C  
HETATM   18  C   UNL     1      -9.563  17.530  68.680  1.00  0.00    -0.303 C  
HETATM   19  C   UNL     1      -9.294  16.184  65.860  1.00  0.00    -0.281 C  
HETATM   20  C   UNL     1      -7.798  19.150  68.822  1.00  0.00    -0.348 C  
HETATM   21  C   UNL     1     -10.659  16.852  67.841  1.00  0.00    -0.361 C  
HETATM   22  C   UNL     1      -8.657  18.552  66.631  1.00  0.00    -0.286 C  
ENDBRANCH   7  15
ENDBRANCH   5   6
ENDBRANCH   4   5
ENDBRANCH   3   4
ENDBRANCH   2   3
TORSDOF 5
ENDMDL
MODEL       19
REMARK 921   NORMALIZED FREE ENERGY PREDICTED BY IDOCK:   -5.67 KCAL/MOL
REMARK 922        TOTAL FREE ENERGY PREDICTED BY IDOCK:   -7.96 KCAL/MOL
REMARK 923 INTER-LIGAND FREE ENERGY PREDICTED BY IDOCK:   -7.38 KCAL/MOL
REMARK 924 INTRA-LIGAND FREE ENERGY PREDICTED BY IDOCK:   -0.58 KCAL/MOL
REMARK 927      BINDING AFFINITY PREDICTED BY RF-SCORE:    0.00 PKD
ROOT
HETATM    1  C   UNL     1     -13.449   7.443  71.588  1.00  0.00    -0.437 C  
HETATM    2  C   UNL     1     -13.856   8.843  71.974  1.00  0.00    -0.456 C  
ENDROOT
BRANCH   2   3
HETATM    3  O   UNL     1     -12.720   9.532  72.507  1.00  0.00    -0.293 OA 
BRANCH   3   4
HETATM    4  C   UNL     1     -11.945  10.037  71.421  1.00  0.00    -0.383 C  
BRANCH   4   5
HETATM    5  C   UNL     1     -12.765  10.881  70.468  1.00  0.00    -0.280 C  
BRANCH   5   6
HETATM    6  N   UNL     1     -12.361  12.267  70.298  1.00  0.00    -0.239 NA 
HETATM    7  C   UNL     1     -11.492  12.736  69.302  1.00  0.00    -0.289 A  
HETATM    8  N   UNL     1     -11.229  14.012  69.510  1.00  0.00    -0.230 NA 
HETATM    9  C   UNL     1     -12.662  13.330  71.142  1.00  0.00    -0.320 A  
HETATM   10  C   UNL     1     -13.450  13.503  72.302  1.00  0.00    -0.669 A  
HETATM   11  C   UNL     1     -11.943  14.394  70.614  1.00  0.00    -0.323 A  
HETATM   12  C   UNL     1     -13.507  14.754  72.916  1.00  0.00    -0.541 A  
HETATM   13  C   UNL     1     -12.005  15.655  71.242  1.00  0.00    -0.467 A  
HETATM   14  C   UNL     1     -12.795  15.826  72.389  1.00  0.00    -0.539 A  
BRANCH   7  15
HETATM   15  N   UNL     1     -10.902  11.959  68.335  1.00  0.00    -0.216 NA 
HETATM   16  N   UNL     1     -10.506  11.880  65.013  1.00  0.00    -0.277 NA 
HETATM   17  C   UNL     1      -8.905  12.565  66.879  1.00  0.00    -0.203 C  
HETATM   18  C   UNL     1     -11.596  12.214  65.944  1.00  0.00    -0.364 C  
HETATM   19  C   UNL     1      -9.435  12.009  68.208  1.00  0.00    -0.199 C  
HETATM   20  C   UNL     1     -10.428  12.892  63.961  1.00  0.00    -0.368 C  
HETATM   21  C   UNL     1     -11.631  11.352  67.217  1.00  0.00    -0.149 C  
HETATM   22  C   UNL     1      -9.209  11.671  65.670  1.00  0.00    -0.138 C  
ENDBRANCH   7  15
ENDBRANCH   5   6
ENDBRANCH   4   5
ENDBRANCH   3   4
ENDBRANCH   2   3
TORSDOF 5
ENDMDL
MODEL       20
REMARK 921   NORMALIZED FREE ENERGY PREDICTED BY IDOCK:   -5.66 KCAL/MOL
REMARK 922        TOTAL FREE ENERGY PREDICTED BY IDOCK:   -7.95 KCAL/MOL
REMARK 923 INTER-LIGAND FREE ENERGY PREDICTED BY IDOCK:   -7.13 KCAL/MOL
REMARK 924 INTRA-LIGAND FREE ENERGY PREDICTED BY IDOCK:   -0.82 KCAL/MOL
REMARK 927      BINDING AFFINITY PREDICTED BY RF-SCORE:    0.00 PKD
ROOT
HETATM    1  C   UNL     1     -11.934  12.131  63.660  1.00  0.00    -0.628 C  
HETATM    2  C   UNL     1     -12.511  12.810  64.877  1.00  0.00    -0.497 C  
ENDROOT
BRANCH   2   3
HETATM    3  O   UNL     1     -11.460  13.480  65.582  1.00  0.00    -0.308 OA 
BRANCH   3   4
HETATM    4  C   UNL     1     -12.045  14.332  66.566  1.00  0.00    -0.429 C  
BRANCH   4   5
HETATM    5  C   UNL     1     -11.164  14.493  67.787  1.00  0.00    -0.298 C  
BRANCH   5   6
HETATM    6  N   UNL     1     -11.528  13.732  68.971  1.00  0.00    -0.284 NA 
HETATM    7  C   UNL     1     -11.194  12.389  69.199  1.00  0.00    -0.236 A  
HETATM    8  N   UNL     1     -11.790  11.967  70.298  1.00  0.00    -0.318 NA 
HETATM    9  C   UNL     1     -12.353  14.153  70.008  1.00  0.00    -0.344 A  
HETATM   10  C   UNL     1     -13.013  15.356  70.346  1.00  0.00    -0.295 A  
HETATM   11  C   UNL     1     -12.486  13.028  70.812  1.00  0.00    -0.302 A  
HETATM   12  C   UNL     1     -13.798  15.412  71.496  1.00  0.00    -0.599 A  
HETATM   13  C   UNL     1     -13.284  13.093  71.972  1.00  0.00    -0.543 A  
HETATM   14  C   UNL     1     -13.931  14.291  72.309  1.00  0.00    -0.629 A  
BRANCH   7  15
HETATM   15  N   UNL     1     -10.467  11.598  68.344  1.00  0.00    -0.205 NA 
HETATM   16  N   UNL     1      -8.293   9.056  68.447  1.00  0.00    -0.123 NA 
HETATM   17  C   UNL     1     -10.785   9.112  67.902  1.00  0.00    -0.224 C  
HETATM   18  C   UNL     1      -8.522  10.287  69.219  1.00  0.00    -0.166 C  
HETATM   19  C   UNL     1     -11.185  10.559  67.584  1.00  0.00    -0.265 C  
HETATM   20  C   UNL     1      -8.058   7.937  69.359  1.00  0.00    -0.125 C  
HETATM   21  C   UNL     1      -9.006  11.482  68.382  1.00  0.00    -0.173 C  
HETATM   22  C   UNL     1      -9.354   8.758  67.477  1.00  0.00    -0.136 C  
ENDBRANCH   7  15
ENDBRANCH   5   6
ENDBRANCH   4   5
ENDBRANCH   3   4
ENDBRANCH   2   3
TORSDOF 5
ENDMDL
MODEL       21
REMARK 921   NORMALIZED FREE ENERGY PREDICTED BY IDOCK:   -5.64 KCAL/MOL
REMARK 922        TOTAL FREE ENERGY PREDICTED BY IDOCK:   -7.93 KCAL/MOL
REMARK 923 INTER-LIGAND FREE ENERGY PREDICTED BY IDOCK:   -7.81 KCAL/MOL
REMARK 924 INTRA-LIGAND FREE ENERGY PREDICTED BY IDOCK:   -0.11 KCAL/MOL
REMARK 927      BINDING AFFINITY PREDICTED BY RF-SCORE:    0.00 PKD
ROOT
HETATM    1  C   UNL     1      -9.931  20.075  67.637  1.00  0.00    -0.566 C  
HETATM    2  C   UNL     1      -9.890  18.799  68.441  1.00  0.00    -0.382 C  
ENDROOT
BRANCH   2   3
HETATM    3  O   UNL     1     -10.816  17.862  67.881  1.00  0.00    -0.365 OA 
BRANCH   3   4
HETATM    4  C   UNL     1     -10.551  16.574  68.435  1.00  0.00    -0.323 C  
BRANCH   4   5
HETATM    5  C   UNL     1     -11.611  15.557  68.068  1.00  0.00    -0.268 C  
BRANCH   5   6
HETATM    6  N   UNL     1     -11.824  14.460  68.997  1.00  0.00    -0.313 NA 
HETATM    7  C   UNL     1     -11.507  13.118  68.746  1.00  0.00    -0.307 A  
HETATM    8  N   UNL     1     -11.949  12.366  69.736  1.00  0.00    -0.310 NA 
HETATM    9  C   UNL     1     -12.473  14.526  70.226  1.00  0.00    -0.348 A  
HETATM   10  C   UNL     1     -13.035  15.555  71.015  1.00  0.00    -0.550 A  
HETATM   11  C   UNL     1     -12.525  13.205  70.651  1.00  0.00    -0.286 A  
HETATM   12  C   UNL     1     -13.640  15.239  72.230  1.00  0.00    -0.586 A  
HETATM   13  C   UNL     1     -13.142  12.894  71.881  1.00  0.00    -0.474 A  
HETATM   14  C   UNL     1     -13.691  13.919  72.665  1.00  0.00    -0.582 A  
BRANCH   7  15
HETATM   15  N   UNL     1     -10.940  12.642  67.589  1.00  0.00    -0.233 NA 
HETATM   16  N   UNL     1     -11.437  12.727  64.280  1.00  0.00    -0.349 NA 
HETATM   17  C   UNL     1      -9.795  13.997  65.765  1.00  0.00    -0.280 C  
HETATM   18  C   UNL     1     -12.284  12.597  65.477  1.00  0.00    -0.440 C  
HETATM   19  C   UNL     1      -9.697  13.276  67.116  1.00  0.00    -0.236 C  
HETATM   20  C   UNL     1     -12.038  13.686  63.353  1.00  0.00    -0.188 C  
HETATM   21  C   UNL     1     -11.645  11.794  66.623  1.00  0.00    -0.197 C  
HETATM   22  C   UNL     1     -10.038  13.056  64.578  1.00  0.00    -0.230 C  
ENDBRANCH   7  15
ENDBRANCH   5   6
ENDBRANCH   4   5
ENDBRANCH   3   4
ENDBRANCH   2   3
TORSDOF 5
ENDMDL
MODEL       22
REMARK 921   NORMALIZED FREE ENERGY PREDICTED BY IDOCK:   -5.62 KCAL/MOL
REMARK 922        TOTAL FREE ENERGY PREDICTED BY IDOCK:   -7.90 KCAL/MOL
REMARK 923 INTER-LIGAND FREE ENERGY PREDICTED BY IDOCK:   -7.22 KCAL/MOL
REMARK 924 INTRA-LIGAND FREE ENERGY PREDICTED BY IDOCK:   -0.68 KCAL/MOL
REMARK 927      BINDING AFFINITY PREDICTED BY RF-SCORE:    0.00 PKD
ROOT
HETATM    1  C   UNL     1      -5.250  16.981  70.285  1.00  0.00    -0.213 C  
HETATM    2  C   UNL     1      -6.132  15.786  70.021  1.00  0.00    -0.143 C  
ENDROOT
BRANCH   2   3
HETATM    3  O   UNL     1      -7.276  16.206  69.270  1.00  0.00    -0.209 OA 
BRANCH   3   4
HETATM    4  C   UNL     1      -8.299  15.221  69.410  1.00  0.00    -0.232 C  
BRANCH   4   5
HETATM    5  C   UNL     1      -9.688  15.822  69.388  1.00  0.00    -0.286 C  
BRANCH   5   6
HETATM    6  N   UNL     1     -10.105  16.475  68.158  1.00  0.00    -0.247 NA 
HETATM    7  C   UNL     1     -10.604  15.815  67.025  1.00  0.00    -0.316 A  
HETATM    8  N   UNL     1     -10.759  16.683  66.042  1.00  0.00    -0.214 NA 
HETATM    9  C   UNL     1      -9.978  17.825  67.849  1.00  0.00    -0.322 A  
HETATM   10  C   UNL     1      -9.539  18.979  68.536  1.00  0.00    -0.442 A  
HETATM   11  C   UNL     1     -10.399  17.910  66.528  1.00  0.00    -0.362 A  
HETATM   12  C   UNL     1      -9.533  20.210  67.882  1.00  0.00    -0.438 A  
HETATM   13  C   UNL     1     -10.388  19.159  65.874  1.00  0.00    -0.463 A  
HETATM   14  C   UNL     1      -9.959  20.304  66.562  1.00  0.00    -0.528 A  
BRANCH   7  15
HETATM   15  N   UNL     1     -10.779  14.458  66.912  1.00  0.00    -0.289 NA 
HETATM   16  N   UNL     1     -12.365  12.242  64.970  1.00  0.00    -0.504 NA 
HETATM   17  C   UNL     1      -9.913  12.942  65.061  1.00  0.00    -0.163 C  
HETATM   18  C   UNL     1     -12.674  13.562  65.543  1.00  0.00    -0.440 C  
HETATM   19  C   UNL     1      -9.656  13.657  66.395  1.00  0.00    -0.268 C  
HETATM   20  C   UNL     1     -12.771  12.207  63.565  1.00  0.00    -0.431 C  
HETATM   21  C   UNL     1     -12.088  13.798  66.945  1.00  0.00    -0.413 C  
HETATM   22  C   UNL     1     -10.967  11.831  65.147  1.00  0.00    -0.294 C  
ENDBRANCH   7  15
ENDBRANCH   5   6
ENDBRANCH   4   5
ENDBRANCH   3   4
ENDBRANCH   2   3
TORSDOF 5
ENDMDL
MODEL       23
REMARK 921   NORMALIZED FREE ENERGY PREDICTED BY IDOCK:   -5.61 KCAL/MOL
REMARK 922        TOTAL FREE ENERGY PREDICTED BY IDOCK:   -7.88 KCAL/MOL
REMARK 923 INTER-LIGAND FREE ENERGY PREDICTED BY IDOCK:   -7.27 KCAL/MOL
REMARK 924 INTRA-LIGAND FREE ENERGY PREDICTED BY IDOCK:   -0.61 KCAL/MOL
REMARK 927      BINDING AFFINITY PREDICTED BY RF-SCORE:    0.00 PKD
ROOT
HETATM    1  C   UNL     1     -13.659  15.597  72.797  1.00  0.00    -0.678 C  
HETATM    2  C   UNL     1     -13.953  14.972  71.456  1.00  0.00    -0.501 C  
ENDROOT
BRANCH   2   3
HETATM    3  O   UNL     1     -13.089  15.549  70.471  1.00  0.00    -0.402 OA 
BRANCH   3   4
HETATM    4  C   UNL     1     -11.949  14.706  70.317  1.00  0.00    -0.308 C  
BRANCH   4   5
HETATM    5  C   UNL     1     -12.143  13.661  69.237  1.00  0.00    -0.314 C  
BRANCH   5   6
HETATM    6  N   UNL     1     -11.540  12.358  69.462  1.00  0.00    -0.293 NA 
HETATM    7  C   UNL     1     -10.451  11.840  68.746  1.00  0.00    -0.198 A  
HETATM    8  N   UNL     1     -10.240  10.588  69.107  1.00  0.00    -0.214 NA 
HETATM    9  C   UNL     1     -11.997  11.369  70.326  1.00  0.00    -0.373 A  
HETATM   10  C   UNL     1     -13.035  11.264  71.279  1.00  0.00    -0.427 A  
HETATM   11  C   UNL     1     -11.159  10.289  70.076  1.00  0.00    -0.311 A  
HETATM   12  C   UNL     1     -13.214  10.069  71.974  1.00  0.00    -0.545 A  
HETATM   13  C   UNL     1     -11.349   9.084  70.782  1.00  0.00    -0.329 A  
HETATM   14  C   UNL     1     -12.376   8.986  71.733  1.00  0.00    -0.438 A  
BRANCH   7  15
HETATM   15  N   UNL     1      -9.789  12.489  67.733  1.00  0.00    -0.199 NA 
HETATM   16  N   UNL     1     -10.417  14.605  65.217  1.00  0.00    -0.369 NA 
HETATM   17  C   UNL     1      -9.380  14.992  67.517  1.00  0.00    -0.195 C  
HETATM   18  C   UNL     1     -11.083  13.435  65.810  1.00  0.00    -0.282 C  
HETATM   19  C   UNL     1      -8.937  13.638  68.089  1.00  0.00    -0.191 C  
HETATM   20  C   UNL     1     -11.397  15.665  64.983  1.00  0.00    -0.253 C  
HETATM   21  C   UNL     1     -10.123  12.344  66.313  1.00  0.00    -0.240 C  
HETATM   22  C   UNL     1      -9.265  15.085  65.990  1.00  0.00    -0.210 C  
ENDBRANCH   7  15
ENDBRANCH   5   6
ENDBRANCH   4   5
ENDBRANCH   3   4
ENDBRANCH   2   3
TORSDOF 5
ENDMDL
MODEL       24
REMARK 921   NORMALIZED FREE ENERGY PREDICTED BY IDOCK:   -5.60 KCAL/MOL
REMARK 922        TOTAL FREE ENERGY PREDICTED BY IDOCK:   -7.86 KCAL/MOL
REMARK 923 INTER-LIGAND FREE ENERGY PREDICTED BY IDOCK:   -7.09 KCAL/MOL
REMARK 924 INTRA-LIGAND FREE ENERGY PREDICTED BY IDOCK:   -0.77 KCAL/MOL
REMARK 927      BINDING AFFINITY PREDICTED BY RF-SCORE:    0.00 PKD
ROOT
HETATM    1  C   UNL     1      -7.072  16.688  68.179  1.00  0.00    -0.157 C  
HETATM    2  C   UNL     1      -7.646  15.720  69.183  1.00  0.00    -0.212 C  
ENDROOT
BRANCH   2   3
HETATM    3  O   UNL     1      -8.587  14.865  68.524  1.00  0.00    -0.149 OA 
BRANCH   3   4
HETATM    4  C   UNL     1      -9.872  15.067  69.110  1.00  0.00    -0.223 C  
BRANCH   4   5
HETATM    5  C   UNL     1     -10.954  15.282  68.072  1.00  0.00    -0.299 C  
BRANCH   5   6
HETATM    6  N   UNL     1     -10.768  16.385  67.143  1.00  0.00    -0.279 NA 
HETATM    7  C   UNL     1     -10.779  16.271  65.746  1.00  0.00    -0.255 A  
HETATM    8  N   UNL     1     -10.449  17.430  65.206  1.00  0.00    -0.615 NA 
HETATM    9  C   UNL     1     -10.436  17.696  67.467  1.00  0.00    -0.365 A  
HETATM   10  C   UNL     1     -10.257  18.425  68.664  1.00  0.00    -0.370 A  
HETATM   11  C   UNL     1     -10.252  18.311  66.234  1.00  0.00    -0.401 A  
HETATM   12  C   UNL     1      -9.897  19.770  68.605  1.00  0.00    -0.491 A  
HETATM   13  C   UNL     1      -9.885  19.671  66.184  1.00  0.00    -0.523 A  
HETATM   14  C   UNL     1      -9.716  20.393  67.375  1.00  0.00    -0.597 A  
BRANCH   7  15
HETATM   15  N   UNL     1     -10.976  15.105  65.047  1.00  0.00    -0.408 NA 
HETATM   16  N   UNL     1     -10.631  11.801  65.448  1.00  0.00    -0.268 NA 
HETATM   17  C   UNL     1     -12.698  13.295  65.530  1.00  0.00    -0.429 C  
HETATM   18  C   UNL     1      -9.857  13.000  65.808  1.00  0.00    -0.209 C  
HETATM   19  C   UNL     1     -12.361  14.636  64.863  1.00  0.00    -0.315 C  
HETATM   20  C   UNL     1     -10.689  10.890  66.591  1.00  0.00    -0.230 C  
HETATM   21  C   UNL     1      -9.917  14.131  64.769  1.00  0.00    -0.008 C  
HETATM   22  C   UNL     1     -11.966  12.096  64.914  1.00  0.00    -0.290 C  
ENDBRANCH   7  15
ENDBRANCH   5   6
ENDBRANCH   4   5
ENDBRANCH   3   4
ENDBRANCH   2   3
TORSDOF 5
ENDMDL
MODEL       25
REMARK 921   NORMALIZED FREE ENERGY PREDICTED BY IDOCK:   -5.57 KCAL/MOL
REMARK 922        TOTAL FREE ENERGY PREDICTED BY IDOCK:   -7.83 KCAL/MOL
REMARK 923 INTER-LIGAND FREE ENERGY PREDICTED BY IDOCK:   -7.40 KCAL/MOL
REMARK 924 INTRA-LIGAND FREE ENERGY PREDICTED BY IDOCK:   -0.43 KCAL/MOL
REMARK 927      BINDING AFFINITY PREDICTED BY RF-SCORE:    0.00 PKD
ROOT
HETATM    1  C   UNL     1     -10.167   7.903  67.416  1.00  0.00    -0.320 C  
HETATM    2  C   UNL     1      -9.781   9.170  68.138  1.00  0.00    -0.154 C  
ENDROOT
BRANCH   2   3
HETATM    3  O   UNL     1     -10.887   9.613  68.932  1.00  0.00    -0.221 OA 
BRANCH   3   4
HETATM    4  C   UNL     1     -10.782  11.024  69.111  1.00  0.00    -0.234 C  
BRANCH   4   5
HETATM    5  C   UNL     1     -11.980  11.768  68.560  1.00  0.00    -0.215 C  
BRANCH   5   6
HETATM    6  N   UNL     1     -12.135  13.158  68.958  1.00  0.00    -0.260 NA 
HETATM    7  C   UNL     1     -11.896  14.264  68.130  1.00  0.00    -0.339 A  
HETATM    8  N   UNL     1     -11.999  15.375  68.836  1.00  0.00    -0.313 NA 
HETATM    9  C   UNL     1     -12.425  13.630  70.234  1.00  0.00    -0.265 A  
HETATM   10  C   UNL     1     -12.739  13.040  71.479  1.00  0.00    -0.349 A  
HETATM   11  C   UNL     1     -12.335  15.011  70.111  1.00  0.00    -0.333 A  
HETATM   12  C   UNL     1     -12.963  13.853  72.589  1.00  0.00    -0.440 A  
HETATM   13  C   UNL     1     -12.561  15.824  71.240  1.00  0.00    -0.504 A  
HETATM   14  C   UNL     1     -12.880  15.236  72.473  1.00  0.00    -0.465 A  
BRANCH   7  15
HETATM   15  N   UNL     1     -11.490  14.200  66.819  1.00  0.00    -0.352 NA 
HETATM   16  N   UNL     1     -10.052  12.049  64.696  1.00  0.00    -0.272 NA 
HETATM   17  C   UNL     1     -12.486  12.765  64.969  1.00  0.00    -0.572 C  
HETATM   18  C   UNL     1      -9.874  12.426  66.108  1.00  0.00    -0.252 C  
HETATM   19  C   UNL     1     -12.527  14.067  65.781  1.00  0.00    -0.494 C  
HETATM   20  C   UNL     1     -10.023  10.593  64.566  1.00  0.00    -0.345 C  
HETATM   21  C   UNL     1     -10.113  13.916  66.404  1.00  0.00    -0.295 C  
HETATM   22  C   UNL     1     -11.247  12.632  64.074  1.00  0.00    -0.406 C  
ENDBRANCH   7  15
ENDBRANCH   5   6
ENDBRANCH   4   5
ENDBRANCH   3   4
ENDBRANCH   2   3
TORSDOF 5
ENDMDL
MODEL       26
REMARK 921   NORMALIZED FREE ENERGY PREDICTED BY IDOCK:   -5.50 KCAL/MOL
REMARK 922        TOTAL FREE ENERGY PREDICTED BY IDOCK:   -7.74 KCAL/MOL
REMARK 923 INTER-LIGAND FREE ENERGY PREDICTED BY IDOCK:   -7.34 KCAL/MOL
REMARK 924 INTRA-LIGAND FREE ENERGY PREDICTED BY IDOCK:   -0.40 KCAL/MOL
REMARK 927      BINDING AFFINITY PREDICTED BY RF-SCORE:    0.00 PKD
ROOT
HETATM    1  C   UNL     1     -10.903  11.012  66.562  1.00  0.00    -0.269 C  
HETATM    2  C   UNL     1     -11.454  12.036  65.602  1.00  0.00    -0.316 C  
ENDROOT
BRANCH   2   3
HETATM    3  O   UNL     1     -10.387  12.873  65.145  1.00  0.00    -0.294 OA 
BRANCH   3   4
HETATM    4  C   UNL     1     -10.039  13.778  66.192  1.00  0.00    -0.307 C  
BRANCH   4   5
HETATM    5  C   UNL     1     -11.078  14.862  66.387  1.00  0.00    -0.342 C  
BRANCH   5   6
HETATM    6  N   UNL     1     -11.054  15.580  67.652  1.00  0.00    -0.319 NA 
HETATM    7  C   UNL     1     -10.470  16.839  67.853  1.00  0.00    -0.335 A  
HETATM    8  N   UNL     1     -10.505  17.141  69.137  1.00  0.00    -0.327 NA 
HETATM    9  C   UNL     1     -11.491  15.106  68.884  1.00  0.00    -0.320 A  
HETATM   10  C   UNL     1     -12.134  13.934  69.343  1.00  0.00    -0.384 A  
HETATM   11  C   UNL     1     -11.135  16.108  69.777  1.00  0.00    -0.350 A  
HETATM   12  C   UNL     1     -12.414  13.788  70.701  1.00  0.00    -0.429 A  
HETATM   13  C   UNL     1     -11.420  15.951  71.149  1.00  0.00    -0.471 A  
HETATM   14  C   UNL     1     -12.065  14.790  71.599  1.00  0.00    -0.414 A  
BRANCH   7  15
HETATM   15  N   UNL     1      -9.843  17.584  66.885  1.00  0.00    -0.289 NA 
HETATM   16  N   UNL     1      -7.898  20.294  66.610  1.00  0.00    -0.282 NA 
HETATM   17  C   UNL     1      -7.338  17.807  66.495  1.00  0.00    -0.283 C  
HETATM   18  C   UNL     1      -9.068  19.905  67.414  1.00  0.00    -0.342 C  
HETATM   19  C   UNL     1      -8.636  17.023  66.254  1.00  0.00    -0.262 C  
HETATM   20  C   UNL     1      -6.904  20.939  67.466  1.00  0.00    -0.360 C  
HETATM   21  C   UNL     1     -10.081  19.015  66.674  1.00  0.00    -0.392 C  
HETATM   22  C   UNL     1      -7.320  19.190  65.834  1.00  0.00    -0.252 C  
ENDBRANCH   7  15
ENDBRANCH   5   6
ENDBRANCH   4   5
ENDBRANCH   3   4
ENDBRANCH   2   3
TORSDOF 5
ENDMDL
MODEL       27
REMARK 921   NORMALIZED FREE ENERGY PREDICTED BY IDOCK:   -5.40 KCAL/MOL
REMARK 922        TOTAL FREE ENERGY PREDICTED BY IDOCK:   -7.61 KCAL/MOL
REMARK 923 INTER-LIGAND FREE ENERGY PREDICTED BY IDOCK:   -6.91 KCAL/MOL
REMARK 924 INTRA-LIGAND FREE ENERGY PREDICTED BY IDOCK:   -0.71 KCAL/MOL
REMARK 927      BINDING AFFINITY PREDICTED BY RF-SCORE:    0.00 PKD
ROOT
HETATM    1  C   UNL     1     -10.832   6.374  68.189  1.00  0.00    -0.386 C  
HETATM    2  C   UNL     1     -10.671   7.228  66.957  1.00  0.00    -0.336 C  
ENDROOT
BRANCH   2   3
HETATM    3  O   UNL     1     -10.425   8.581  67.353  1.00  0.00    -0.262 OA 
BRANCH   3   4
HETATM    4  C   UNL     1      -9.271   8.607  68.191  1.00  0.00    -0.137 C  
BRANCH   4   5
HETATM    5  C   UNL     1      -9.207   9.854  69.048  1.00  0.00    -0.168 C  
BRANCH   5   6
HETATM    6  N   UNL     1     -10.469  10.388  69.533  1.00  0.00    -0.236 NA 
HETATM    7  C   UNL     1     -11.026  11.616  69.146  1.00  0.00    -0.219 A  
HETATM    8  N   UNL     1     -12.102  11.860  69.870  1.00  0.00    -0.294 NA 
HETATM    9  C   UNL     1     -11.271   9.846  70.531  1.00  0.00    -0.330 A  
HETATM   10  C   UNL     1     -11.249   8.671  71.315  1.00  0.00    -0.338 A  
HETATM   11  C   UNL     1     -12.276  10.790  70.705  1.00  0.00    -0.381 A  
HETATM   12  C   UNL     1     -12.246   8.458  72.266  1.00  0.00    -0.449 A  
HETATM   13  C   UNL     1     -13.279  10.567  71.671  1.00  0.00    -0.493 A  
HETATM   14  C   UNL     1     -13.258   9.396  72.442  1.00  0.00    -0.483 A  
BRANCH   7  15
HETATM   15  N   UNL     1     -10.467  12.490  68.246  1.00  0.00    -0.228 NA 
HETATM   16  N   UNL     1     -11.156  13.896  65.289  1.00  0.00    -0.308 NA 
HETATM   17  C   UNL     1     -11.284  14.828  67.661  1.00  0.00    -0.332 C  
HETATM   18  C   UNL     1     -11.323  12.566  65.895  1.00  0.00    -0.340 C  
HETATM   19  C   UNL     1     -10.460  13.923  68.588  1.00  0.00    -0.246 C  
HETATM   20  C   UNL     1     -12.383  14.277  64.590  1.00  0.00    -0.415 C  
HETATM   21  C   UNL     1     -10.187  12.154  66.847  1.00  0.00    -0.208 C  
HETATM   22  C   UNL     1     -10.723  14.929  66.237  1.00  0.00    -0.320 C  
ENDBRANCH   7  15
ENDBRANCH   5   6
ENDBRANCH   4   5
ENDBRANCH   3   4
ENDBRANCH   2   3
TORSDOF 5
ENDMDL
MODEL       28
REMARK 921   NORMALIZED FREE ENERGY PREDICTED BY IDOCK:   -5.36 KCAL/MOL
REMARK 922        TOTAL FREE ENERGY PREDICTED BY IDOCK:   -7.56 KCAL/MOL
REMARK 923 INTER-LIGAND FREE ENERGY PREDICTED BY IDOCK:   -6.56 KCAL/MOL
REMARK 924 INTRA-LIGAND FREE ENERGY PREDICTED BY IDOCK:   -0.99 KCAL/MOL
REMARK 927      BINDING AFFINITY PREDICTED BY RF-SCORE:    0.00 PKD
ROOT
HETATM    1  C   UNL     1      -6.331  18.864  65.461  1.00  0.00    -0.307 C  
HETATM    2  C   UNL     1      -7.351  19.947  65.711  1.00  0.00    -0.321 C  
ENDROOT
BRANCH   2   3
HETATM    3  O   UNL     1      -8.663  19.377  65.654  1.00  0.00    -0.327 OA 
BRANCH   3   4
HETATM    4  C   UNL     1      -9.434  19.903  66.732  1.00  0.00    -0.395 C  
BRANCH   4   5
HETATM    5  C   UNL     1      -9.925  18.822  67.673  1.00  0.00    -0.345 C  
BRANCH   5   6
HETATM    6  N   UNL     1      -9.083  17.647  67.826  1.00  0.00    -0.244 NA 
HETATM    7  C   UNL     1      -9.422  16.352  67.407  1.00  0.00    -0.227 A  
HETATM    8  N   UNL     1      -8.499  15.500  67.815  1.00  0.00    -0.149 NA 
HETATM    9  C   UNL     1      -7.870  17.577  68.504  1.00  0.00    -0.274 A  
HETATM   10  C   UNL     1      -7.025  18.503  69.155  1.00  0.00    -0.263 A  
HETATM   11  C   UNL     1      -7.542  16.227  68.469  1.00  0.00    -0.179 A  
HETATM   12  C   UNL     1      -5.852  18.057  69.762  1.00  0.00    -0.240 A  
HETATM   13  C   UNL     1      -6.355  15.785  69.088  1.00  0.00    -0.134 A  
HETATM   14  C   UNL     1      -5.514  16.708  69.726  1.00  0.00    -0.173 A  
BRANCH   7  15
HETATM   15  N   UNL     1     -10.594  16.003  66.783  1.00  0.00    -0.315 NA 
HETATM   16  N   UNL     1     -11.750  13.748  64.598  1.00  0.00    -0.377 NA 
HETATM   17  C   UNL     1     -11.955  13.883  67.138  1.00  0.00    -0.455 C  
HETATM   18  C   UNL     1     -10.531  14.559  64.740  1.00  0.00    -0.337 C  
HETATM   19  C   UNL     1     -11.623  15.314  67.581  1.00  0.00    -0.239 C  
HETATM   20  C   UNL     1     -11.391  12.374  64.248  1.00  0.00    -0.360 C  
HETATM   21  C   UNL     1     -10.764  15.961  65.328  1.00  0.00    -0.424 C  
HETATM   22  C   UNL     1     -12.637  13.803  65.766  1.00  0.00    -0.480 C  
ENDBRANCH   7  15
ENDBRANCH   5   6
ENDBRANCH   4   5
ENDBRANCH   3   4
ENDBRANCH   2   3
TORSDOF 5
ENDMDL
MODEL       29
REMARK 921   NORMALIZED FREE ENERGY PREDICTED BY IDOCK:   -5.36 KCAL/MOL
REMARK 922        TOTAL FREE ENERGY PREDICTED BY IDOCK:   -7.56 KCAL/MOL
REMARK 923 INTER-LIGAND FREE ENERGY PREDICTED BY IDOCK:   -7.06 KCAL/MOL
REMARK 924 INTRA-LIGAND FREE ENERGY PREDICTED BY IDOCK:   -0.49 KCAL/MOL
REMARK 927      BINDING AFFINITY PREDICTED BY RF-SCORE:    0.00 PKD
ROOT
HETATM    1  C   UNL     1      -8.475   9.644  67.056  1.00  0.00    -0.124 C  
HETATM    2  C   UNL     1      -8.807   9.838  68.515  1.00  0.00    -0.121 C  
ENDROOT
BRANCH   2   3
HETATM    3  O   UNL     1     -10.217   9.677  68.701  1.00  0.00    -0.176 OA 
BRANCH   3   4
HETATM    4  C   UNL     1     -10.610  10.416  69.855  1.00  0.00    -0.251 C  
BRANCH   4   5
HETATM    5  C   UNL     1     -12.009  10.983  69.729  1.00  0.00    -0.356 C  
BRANCH   5   6
HETATM    6  N   UNL     1     -12.134  12.431  69.694  1.00  0.00    -0.249 NA 
HETATM    7  C   UNL     1     -11.680  13.253  68.653  1.00  0.00    -0.341 A  
HETATM    8  N   UNL     1     -11.827  14.520  68.994  1.00  0.00    -0.314 NA 
HETATM    9  C   UNL     1     -12.610  13.249  70.713  1.00  0.00    -0.280 A  
HETATM   10  C   UNL     1     -13.175  13.041  71.991  1.00  0.00    -0.543 A  
HETATM   11  C   UNL     1     -12.405  14.537  70.235  1.00  0.00    -0.349 A  
HETATM   12  C   UNL     1     -13.532  14.138  72.773  1.00  0.00    -0.592 A  
HETATM   13  C   UNL     1     -12.767  15.641  71.034  1.00  0.00    -0.517 A  
HETATM   14  C   UNL     1     -13.336  15.431  72.299  1.00  0.00    -0.548 A  
BRANCH   7  15
HETATM   15  N   UNL     1     -11.057  12.814  67.510  1.00  0.00    -0.252 NA 
HETATM   16  N   UNL     1     -11.562  12.719  64.204  1.00  0.00    -0.366 NA 
HETATM   17  C   UNL     1     -10.095  14.239  65.635  1.00  0.00    -0.364 C  
HETATM   18  C   UNL     1     -12.384  12.523  65.408  1.00  0.00    -0.359 C  
HETATM   19  C   UNL     1      -9.905  13.585  67.010  1.00  0.00    -0.251 C  
HETATM   20  C   UNL     1     -12.280  13.559  63.246  1.00  0.00    -0.146 C  
HETATM   21  C   UNL     1     -11.648  11.849  66.578  1.00  0.00    -0.255 C  
HETATM   22  C   UNL     1     -10.216  13.234  64.483  1.00  0.00    -0.310 C  
ENDBRANCH   7  15
ENDBRANCH   5   6
ENDBRANCH   4   5
ENDBRANCH   3   4
ENDBRANCH   2   3
TORSDOF 5
ENDMDL
MODEL       30
REMARK 921   NORMALIZED FREE ENERGY PREDICTED BY IDOCK:   -5.31 KCAL/MOL
REMARK 922        TOTAL FREE ENERGY PREDICTED BY IDOCK:   -7.50 KCAL/MOL
REMARK 923 INTER-LIGAND FREE ENERGY PREDICTED BY IDOCK:   -6.90 KCAL/MOL
REMARK 924 INTRA-LIGAND FREE ENERGY PREDICTED BY IDOCK:   -0.60 KCAL/MOL
REMARK 927      BINDING AFFINITY PREDICTED BY RF-SCORE:    0.00 PKD
ROOT
HETATM    1  C   UNL     1     -11.591  12.222  63.675  1.00  0.00    -0.581 C  
HETATM    2  C   UNL     1     -11.154  13.634  63.975  1.00  0.00    -0.102 C  
ENDROOT
BRANCH   2   3
HETATM    3  O   UNL     1     -10.850  13.744  65.370  1.00  0.00    -0.293 OA 
BRANCH   3   4
HETATM    4  C   UNL     1     -10.634  15.120  65.681  1.00  0.00    -0.356 C  
BRANCH   4   5
HETATM    5  C   UNL     1      -9.814  15.306  66.940  1.00  0.00    -0.235 C  
BRANCH   5   6
HETATM    6  N   UNL     1     -10.544  15.475  68.185  1.00  0.00    -0.259 NA 
HETATM    7  C   UNL     1     -10.668  16.681  68.890  1.00  0.00    -0.337 A  
HETATM    8  N   UNL     1     -11.277  16.461  70.040  1.00  0.00    -0.322 NA 
HETATM    9  C   UNL     1     -11.137  14.471  68.943  1.00  0.00    -0.256 A  
HETATM   10  C   UNL     1     -11.331  13.079  68.797  1.00  0.00    -0.332 A  
HETATM   11  C   UNL     1     -11.583  15.128  70.083  1.00  0.00    -0.292 A  
HETATM   12  C   UNL     1     -11.978  12.364  69.804  1.00  0.00    -0.359 A  
HETATM   13  C   UNL     1     -12.234  14.396  71.097  1.00  0.00    -0.420 A  
HETATM   14  C   UNL     1     -12.432  13.016  70.945  1.00  0.00    -0.396 A  
BRANCH   7  15
HETATM   15  N   UNL     1     -10.126  17.883  68.503  1.00  0.00    -0.373 NA 
HETATM   16  N   UNL     1      -7.577  19.066  66.687  1.00  0.00    -0.234 NA 
HETATM   17  C   UNL     1     -10.064  18.860  66.154  1.00  0.00    -0.438 C  
HETATM   18  C   UNL     1      -7.778  17.964  67.640  1.00  0.00    -0.213 C  
HETATM   19  C   UNL     1     -10.832  18.659  67.469  1.00  0.00    -0.317 C  
HETATM   20  C   UNL     1      -6.828  18.585  65.526  1.00  0.00    -0.195 C  
HETATM   21  C   UNL     1      -8.746  18.286  68.790  1.00  0.00    -0.218 C  
HETATM   22  C   UNL     1      -8.819  19.744  66.295  1.00  0.00    -0.370 C  
ENDBRANCH   7  15
ENDBRANCH   5   6
ENDBRANCH   4   5
ENDBRANCH   3   4
ENDBRANCH   2   3
TORSDOF 5
ENDMDL
MODEL       31
REMARK 921   NORMALIZED FREE ENERGY PREDICTED BY IDOCK:   -5.30 KCAL/MOL
REMARK 922        TOTAL FREE ENERGY PREDICTED BY IDOCK:   -7.49 KCAL/MOL
REMARK 923 INTER-LIGAND FREE ENERGY PREDICTED BY IDOCK:   -6.87 KCAL/MOL
REMARK 924 INTRA-LIGAND FREE ENERGY PREDICTED BY IDOCK:   -0.62 KCAL/MOL
REMARK 927      BINDING AFFINITY PREDICTED BY RF-SCORE:    0.00 PKD
ROOT
HETATM    1  C   UNL     1     -14.399   8.037  71.539  1.00  0.00    -0.546 C  
HETATM    2  C   UNL     1     -13.596   9.313  71.512  1.00  0.00    -0.346 C  
ENDROOT
BRANCH   2   3
HETATM    3  O   UNL     1     -12.204   8.993  71.611  1.00  0.00    -0.306 OA 
BRANCH   3   4
HETATM    4  C   UNL     1     -11.446  10.127  71.192  1.00  0.00    -0.307 C  
BRANCH   4   5
HETATM    5  C   UNL     1     -12.029  10.789  69.961  1.00  0.00    -0.347 C  
BRANCH   5   6
HETATM    6  N   UNL     1     -11.920  12.236  69.875  1.00  0.00    -0.327 NA 
HETATM    7  C   UNL     1     -11.122  12.931  68.954  1.00  0.00    -0.255 A  
HETATM    8  N   UNL     1     -11.148  14.220  69.233  1.00  0.00    -0.263 NA 
HETATM    9  C   UNL     1     -12.482  13.164  70.745  1.00  0.00    -0.308 A  
HETATM   10  C   UNL     1     -13.346  13.105  71.861  1.00  0.00    -0.546 A  
HETATM   11  C   UNL     1     -11.980  14.383  70.307  1.00  0.00    -0.321 A  
HETATM   12  C   UNL     1     -13.698  14.280  72.523  1.00  0.00    -0.608 A  
HETATM   13  C   UNL     1     -12.340  15.567  70.984  1.00  0.00    -0.471 A  
HETATM   14  C   UNL     1     -13.205  15.505  72.087  1.00  0.00    -0.541 A  
BRANCH   7  15
HETATM   15  N   UNL     1     -10.333  12.348  67.993  1.00  0.00    -0.210 NA 
HETATM   16  N   UNL     1      -8.553   9.559  67.498  1.00  0.00    -0.125 NA 
HETATM   17  C   UNL     1     -10.850  10.259  66.635  1.00  0.00    -0.115 C  
HETATM   18  C   UNL     1      -8.788  10.481  68.619  1.00  0.00    -0.147 C  
HETATM   19  C   UNL     1     -10.996  11.777  66.807  1.00  0.00    -0.288 C  
HETATM   20  C   UNL     1      -8.651   8.177  67.966  1.00  0.00    -0.129 C  
HETATM   21  C   UNL     1      -8.938  11.956  68.209  1.00  0.00    -0.178 C  
HETATM   22  C   UNL     1      -9.416   9.806  66.336  1.00  0.00    -0.184 C  
ENDBRANCH   7  15
ENDBRANCH   5   6
ENDBRANCH   4   5
ENDBRANCH   3   4
ENDBRANCH   2   3
TORSDOF 5
ENDMDL
MODEL       32
REMARK 921   NORMALIZED FREE ENERGY PREDICTED BY IDOCK:   -5.29 KCAL/MOL
REMARK 922        TOTAL FREE ENERGY PREDICTED BY IDOCK:   -7.47 KCAL/MOL
REMARK 923 INTER-LIGAND FREE ENERGY PREDICTED BY IDOCK:   -7.28 KCAL/MOL
REMARK 924 INTRA-LIGAND FREE ENERGY PREDICTED BY IDOCK:   -0.19 KCAL/MOL
REMARK 927      BINDING AFFINITY PREDICTED BY RF-SCORE:    0.00 PKD
ROOT
HETATM    1  C   UNL     1     -10.751   7.664  71.215  1.00  0.00    -0.248 C  
HETATM    2  C   UNL     1     -11.414   8.868  71.835  1.00  0.00    -0.372 C  
ENDROOT
BRANCH   2   3
HETATM    3  O   UNL     1     -11.155  10.017  71.021  1.00  0.00    -0.343 OA 
BRANCH   3   4
HETATM    4  C   UNL     1     -12.375  10.737  70.851  1.00  0.00    -0.396 C  
BRANCH   4   5
HETATM    5  C   UNL     1     -12.348  11.639  69.634  1.00  0.00    -0.108 C  
BRANCH   5   6
HETATM    6  N   UNL     1     -12.001  13.034  69.853  1.00  0.00    -0.330 NA 
HETATM    7  C   UNL     1     -11.143  13.788  69.040  1.00  0.00    -0.259 A  
HETATM    8  N   UNL     1     -10.937  14.969  69.591  1.00  0.00    -0.269 NA 
HETATM    9  C   UNL     1     -12.356  13.816  70.947  1.00  0.00    -0.380 A  
HETATM   10  C   UNL     1     -13.162  13.639  72.094  1.00  0.00    -0.541 A  
HETATM   11  C   UNL     1     -11.677  15.011  70.742  1.00  0.00    -0.320 A  
HETATM   12  C   UNL     1     -13.279  14.674  73.021  1.00  0.00    -0.587 A  
HETATM   13  C   UNL     1     -11.799  16.051  71.685  1.00  0.00    -0.582 A  
HETATM   14  C   UNL     1     -12.607  15.875  72.818  1.00  0.00    -0.567 A  
BRANCH   7  15
HETATM   15  N   UNL     1     -10.510  13.324  67.913  1.00  0.00    -0.235 NA 
HETATM   16  N   UNL     1      -9.666  10.425  66.469  1.00  0.00    -0.186 NA 
HETATM   17  C   UNL     1     -11.560  12.061  65.969  1.00  0.00    -0.371 C  
HETATM   18  C   UNL     1      -9.679  10.964  67.838  1.00  0.00    -0.165 C  
HETATM   19  C   UNL     1     -11.233  13.406  66.631  1.00  0.00    -0.309 C  
HETATM   20  C   UNL     1     -10.226   9.074  66.465  1.00  0.00    -0.248 C  
HETATM   21  C   UNL     1      -9.328  12.458  67.937  1.00  0.00    -0.195 C  
HETATM   22  C   UNL     1     -10.323  11.294  65.485  1.00  0.00    -0.266 C  
ENDBRANCH   7  15
ENDBRANCH   5   6
ENDBRANCH   4   5
ENDBRANCH   3   4
ENDBRANCH   2   3
TORSDOF 5
ENDMDL
MODEL       33
REMARK 921   NORMALIZED FREE ENERGY PREDICTED BY IDOCK:   -5.28 KCAL/MOL
REMARK 922        TOTAL FREE ENERGY PREDICTED BY IDOCK:   -7.45 KCAL/MOL
REMARK 923 INTER-LIGAND FREE ENERGY PREDICTED BY IDOCK:   -6.73 KCAL/MOL
REMARK 924 INTRA-LIGAND FREE ENERGY PREDICTED BY IDOCK:   -0.72 KCAL/MOL
REMARK 927      BINDING AFFINITY PREDICTED BY RF-SCORE:    0.00 PKD
ROOT
HETATM    1  C   UNL     1      -6.798  13.694  67.647  1.00  0.00    -0.185 C  
HETATM    2  C   UNL     1      -7.240  15.122  67.444  1.00  0.00    -0.199 C  
ENDROOT
BRANCH   2   3
HETATM    3  O   UNL     1      -7.124  15.829  68.683  1.00  0.00    -0.120 OA 
BRANCH   3   4
HETATM    4  C   UNL     1      -8.134  15.355  69.573  1.00  0.00    -0.207 C  
BRANCH   4   5
HETATM    5  C   UNL     1      -9.447  16.090  69.403  1.00  0.00    -0.226 C  
BRANCH   5   6
HETATM    6  N   UNL     1     -10.664  15.323  69.607  1.00  0.00    -0.265 NA 
HETATM    7  C   UNL     1     -11.248  14.469  68.660  1.00  0.00    -0.261 A  
HETATM    8  N   UNL     1     -12.410  14.036  69.112  1.00  0.00    -0.247 NA 
HETATM    9  C   UNL     1     -11.512  15.388  70.708  1.00  0.00    -0.355 A  
HETATM   10  C   UNL     1     -11.500  16.060  71.951  1.00  0.00    -0.409 A  
HETATM   11  C   UNL     1     -12.580  14.571  70.360  1.00  0.00    -0.346 A  
HETATM   12  C   UNL     1     -12.566  15.896  72.833  1.00  0.00    -0.581 A  
HETATM   13  C   UNL     1     -13.655  14.412  71.258  1.00  0.00    -0.389 A  
HETATM   14  C   UNL     1     -13.636  15.074  72.494  1.00  0.00    -0.569 A  
BRANCH   7  15
HETATM   15  N   UNL     1     -10.751  14.224  67.403  1.00  0.00    -0.279 NA 
HETATM   16  N   UNL     1     -11.475  12.420  64.679  1.00  0.00    -0.319 NA 
HETATM   17  C   UNL     1     -11.785  14.904  65.179  1.00  0.00    -0.295 C  
HETATM   18  C   UNL     1     -11.524  12.210  66.134  1.00  0.00    -0.371 C  
HETATM   19  C   UNL     1     -10.906  15.275  66.382  1.00  0.00    -0.317 C  
HETATM   20  C   UNL     1     -12.709  11.928  64.067  1.00  0.00    -0.241 C  
HETATM   21  C   UNL     1     -10.387  12.891  66.914  1.00  0.00    -0.243 C  
HETATM   22  C   UNL     1     -11.186  13.806  64.291  1.00  0.00    -0.305 C  
ENDBRANCH   7  15
ENDBRANCH   5   6
ENDBRANCH   4   5
ENDBRANCH   3   4
ENDBRANCH   2   3
TORSDOF 5
ENDMDL
MODEL       34
REMARK 921   NORMALIZED FREE ENERGY PREDICTED BY IDOCK:   -5.27 KCAL/MOL
REMARK 922        TOTAL FREE ENERGY PREDICTED BY IDOCK:   -7.44 KCAL/MOL
REMARK 923 INTER-LIGAND FREE ENERGY PREDICTED BY IDOCK:   -6.66 KCAL/MOL
REMARK 924 INTRA-LIGAND FREE ENERGY PREDICTED BY IDOCK:   -0.78 KCAL/MOL
REMARK 927      BINDING AFFINITY PREDICTED BY RF-SCORE:    0.00 PKD
ROOT
HETATM    1  C   UNL     1     -11.474  10.714  69.869  1.00  0.00    -0.393 C  
HETATM    2  C   UNL     1     -11.858  11.780  68.872  1.00  0.00    -0.320 C  
ENDROOT
BRANCH   2   3
HETATM    3  O   UNL     1     -10.816  12.760  68.810  1.00  0.00    -0.242 OA 
BRANCH   3   4
HETATM    4  C   UNL     1      -9.627  12.131  68.336  1.00  0.00    -0.186 C  
BRANCH   4   5
HETATM    5  C   UNL     1      -8.890  12.979  67.321  1.00  0.00    -0.208 C  
BRANCH   5   6
HETATM    6  N   UNL     1      -9.696  13.676  66.332  1.00  0.00    -0.289 NA 
HETATM    7  C   UNL     1      -9.862  15.067  66.264  1.00  0.00    -0.285 A  
HETATM    8  N   UNL     1     -10.758  15.360  65.340  1.00  0.00    -0.373 NA 
HETATM    9  C   UNL     1     -10.521  13.097  65.374  1.00  0.00    -0.296 A  
HETATM   10  C   UNL     1     -10.809  11.778  64.957  1.00  0.00    -0.350 A  
HETATM   11  C   UNL     1     -11.158  14.178  64.778  1.00  0.00    -0.387 A  
HETATM   12  C   UNL     1     -11.736  11.564  63.938  1.00  0.00    -0.249 A  
HETATM   13  C   UNL     1     -12.095  13.952  63.750  1.00  0.00    -0.330 A  
HETATM   14  C   UNL     1     -12.373  12.642  63.333  1.00  0.00    -0.553 A  
BRANCH   7  15
HETATM   15  N   UNL     1      -9.282  15.976  67.114  1.00  0.00    -0.204 NA 
HETATM   16  N   UNL     1      -8.804  19.278  67.381  1.00  0.00    -0.292 NA 
HETATM   17  C   UNL     1     -10.462  17.723  68.540  1.00  0.00    -0.332 C  
HETATM   18  C   UNL     1      -8.763  18.284  66.296  1.00  0.00    -0.178 C  
HETATM   19  C   UNL     1      -9.972  16.277  68.381  1.00  0.00    -0.234 C  
HETATM   20  C   UNL     1      -9.535  20.464  66.937  1.00  0.00    -0.371 C  
HETATM   21  C   UNL     1      -8.222  16.907  66.715  1.00  0.00    -0.240 C  
HETATM   22  C   UNL     1      -9.330  18.751  68.646  1.00  0.00    -0.351 C  
ENDBRANCH   7  15
ENDBRANCH   5   6
ENDBRANCH   4   5
ENDBRANCH   3   4
ENDBRANCH   2   3
TORSDOF 5
ENDMDL
MODEL       35
REMARK 921   NORMALIZED FREE ENERGY PREDICTED BY IDOCK:   -5.24 KCAL/MOL
REMARK 922        TOTAL FREE ENERGY PREDICTED BY IDOCK:   -7.40 KCAL/MOL
REMARK 923 INTER-LIGAND FREE ENERGY PREDICTED BY IDOCK:   -6.87 KCAL/MOL
REMARK 924 INTRA-LIGAND FREE ENERGY PREDICTED BY IDOCK:   -0.54 KCAL/MOL
REMARK 927      BINDING AFFINITY PREDICTED BY RF-SCORE:    0.00 PKD
ROOT
HETATM    1  C   UNL     1      -9.082  16.859  66.370  1.00  0.00    -0.315 C  
HETATM    2  C   UNL     1      -9.849  17.965  67.051  1.00  0.00    -0.314 C  
ENDROOT
BRANCH   2   3
HETATM    3  O   UNL     1     -10.862  17.390  67.883  1.00  0.00    -0.375 OA 
BRANCH   3   4
HETATM    4  C   UNL     1     -10.417  16.108  68.321  1.00  0.00    -0.276 C  
BRANCH   4   5
HETATM    5  C   UNL     1     -11.425  15.016  68.031  1.00  0.00    -0.342 C  
BRANCH   5   6
HETATM    6  N   UNL     1     -11.704  14.073  69.102  1.00  0.00    -0.309 NA 
HETATM    7  C   UNL     1     -11.291  12.733  69.124  1.00  0.00    -0.281 A  
HETATM    8  N   UNL     1     -11.823  12.124  70.168  1.00  0.00    -0.323 NA 
HETATM    9  C   UNL     1     -12.512  14.293  70.213  1.00  0.00    -0.361 A  
HETATM   10  C   UNL     1     -13.222  15.395  70.740  1.00  0.00    -0.440 A  
HETATM   11  C   UNL     1     -12.554  13.059  70.849  1.00  0.00    -0.280 A  
HETATM   12  C   UNL     1     -13.966  15.240  71.908  1.00  0.00    -0.644 A  
HETATM   13  C   UNL     1     -13.311  12.911  72.029  1.00  0.00    -0.579 A  
HETATM   14  C   UNL     1     -14.009  14.009  72.554  1.00  0.00    -0.553 A  
BRANCH   7  15
HETATM   15  N   UNL     1     -10.555  12.115  68.143  1.00  0.00    -0.208 NA 
HETATM   16  N   UNL     1      -8.306   9.661  67.804  1.00  0.00    -0.120 NA 
HETATM   17  C   UNL     1     -10.807   9.727  67.302  1.00  0.00    -0.247 C  
HETATM   18  C   UNL     1      -8.559  10.741  68.770  1.00  0.00    -0.156 C  
HETATM   19  C   UNL     1     -11.254  11.194  67.231  1.00  0.00    -0.277 C  
HETATM   20  C   UNL     1      -8.024   8.416  68.518  1.00  0.00    -0.121 C  
HETATM   21  C   UNL     1      -9.091  12.041  68.146  1.00  0.00    -0.191 C  
HETATM   22  C   UNL     1      -9.373   9.493  66.810  1.00  0.00    -0.153 C  
ENDBRANCH   7  15
ENDBRANCH   5   6
ENDBRANCH   4   5
ENDBRANCH   3   4
ENDBRANCH   2   3
TORSDOF 5
ENDMDL
MODEL       36
REMARK 921   NORMALIZED FREE ENERGY PREDICTED BY IDOCK:   -5.23 KCAL/MOL
REMARK 922        TOTAL FREE ENERGY PREDICTED BY IDOCK:   -7.39 KCAL/MOL
REMARK 923 INTER-LIGAND FREE ENERGY PREDICTED BY IDOCK:   -6.79 KCAL/MOL
REMARK 924 INTRA-LIGAND FREE ENERGY PREDICTED BY IDOCK:   -0.60 KCAL/MOL
REMARK 927      BINDING AFFINITY PREDICTED BY RF-SCORE:    0.00 PKD
ROOT
HETATM    1  C   UNL     1      -8.396  16.724  67.309  1.00  0.00    -0.197 C  
HETATM    2  C   UNL     1      -9.609  17.474  66.818  1.00  0.00    -0.282 C  
ENDROOT
BRANCH   2   3
HETATM    3  O   UNL     1     -10.746  17.091  67.600  1.00  0.00    -0.342 OA 
BRANCH   3   4
HETATM    4  C   UNL     1     -10.450  15.861  68.260  1.00  0.00    -0.257 C  
BRANCH   4   5
HETATM    5  C   UNL     1     -11.533  14.822  68.060  1.00  0.00    -0.331 C  
BRANCH   5   6
HETATM    6  N   UNL     1     -11.827  13.950  69.186  1.00  0.00    -0.337 NA 
HETATM    7  C   UNL     1     -11.482  12.593  69.265  1.00  0.00    -0.294 A  
HETATM    8  N   UNL     1     -12.012  12.066  70.353  1.00  0.00    -0.337 NA 
HETATM    9  C   UNL     1     -12.589  14.268  70.305  1.00  0.00    -0.319 A  
HETATM   10  C   UNL     1     -13.226  15.430  70.795  1.00  0.00    -0.440 A  
HETATM   11  C   UNL     1     -12.674  13.071  71.005  1.00  0.00    -0.262 A  
HETATM   12  C   UNL     1     -13.941  15.373  71.989  1.00  0.00    -0.640 A  
HETATM   13  C   UNL     1     -13.402  13.021  72.212  1.00  0.00    -0.606 A  
HETATM   14  C   UNL     1     -14.027  14.179  72.698  1.00  0.00    -0.412 A  
BRANCH   7  15
HETATM   15  N   UNL     1     -10.808  11.890  68.298  1.00  0.00    -0.212 NA 
HETATM   16  N   UNL     1     -10.543  11.746  64.965  1.00  0.00    -0.277 NA 
HETATM   17  C   UNL     1      -9.008  12.769  66.728  1.00  0.00    -0.188 C  
HETATM   18  C   UNL     1     -11.634  11.926  65.935  1.00  0.00    -0.224 C  
HETATM   19  C   UNL     1      -9.378  12.185  68.099  1.00  0.00    -0.204 C  
HETATM   20  C   UNL     1     -10.685  12.713  63.877  1.00  0.00    -0.431 C  
HETATM   21  C   UNL     1     -11.467  11.124  67.236  1.00  0.00    -0.136 C  
HETATM   22  C   UNL     1      -9.204  11.789  65.565  1.00  0.00    -0.057 C  
ENDBRANCH   7  15
ENDBRANCH   5   6
ENDBRANCH   4   5
ENDBRANCH   3   4
ENDBRANCH   2   3
TORSDOF 5
ENDMDL
MODEL       37
REMARK 921   NORMALIZED FREE ENERGY PREDICTED BY IDOCK:   -5.22 KCAL/MOL
REMARK 922        TOTAL FREE ENERGY PREDICTED BY IDOCK:   -7.38 KCAL/MOL
REMARK 923 INTER-LIGAND FREE ENERGY PREDICTED BY IDOCK:   -6.80 KCAL/MOL
REMARK 924 INTRA-LIGAND FREE ENERGY PREDICTED BY IDOCK:   -0.58 KCAL/MOL
REMARK 927      BINDING AFFINITY PREDICTED BY RF-SCORE:    0.00 PKD
ROOT
HETATM    1  C   UNL     1     -13.691  15.235  71.735  1.00  0.00    -0.605 C  
HETATM    2  C   UNL     1     -13.765  13.870  72.373  1.00  0.00    -0.576 C  
ENDROOT
BRANCH   2   3
HETATM    3  O   UNL     1     -12.812  13.006  71.745  1.00  0.00    -0.314 OA 
BRANCH   3   4
HETATM    4  C   UNL     1     -13.230  11.655  71.933  1.00  0.00    -0.369 C  
BRANCH   4   5
HETATM    5  C   UNL     1     -12.947  10.789  70.723  1.00  0.00    -0.262 C  
BRANCH   5   6
HETATM    6  N   UNL     1     -11.558  10.661  70.313  1.00  0.00    -0.312 NA 
HETATM    7  C   UNL     1     -10.971  11.339  69.234  1.00  0.00    -0.243 A  
HETATM    8  N   UNL     1      -9.741  10.898  69.052  1.00  0.00    -0.194 NA 
HETATM    9  C   UNL     1     -10.617   9.777  70.829  1.00  0.00    -0.301 A  
HETATM   10  C   UNL     1     -10.592   8.833  71.880  1.00  0.00    -0.425 A  
HETATM   11  C   UNL     1      -9.502   9.960  70.021  1.00  0.00    -0.202 A  
HETATM   12  C   UNL     1      -9.438   8.085  72.107  1.00  0.00    -0.264 A  
HETATM   13  C   UNL     1      -8.340   9.198  70.256  1.00  0.00    -0.187 A  
HETATM   14  C   UNL     1      -8.316   8.267  71.305  1.00  0.00    -0.156 A  
BRANCH   7  15
HETATM   15  N   UNL     1     -11.617  12.230  68.413  1.00  0.00    -0.304 NA 
HETATM   16  N   UNL     1     -11.148  15.251  67.053  1.00  0.00    -0.325 NA 
HETATM   17  C   UNL     1     -10.950  12.911  66.053  1.00  0.00    -0.301 C  
HETATM   18  C   UNL     1     -10.884  14.623  68.357  1.00  0.00    -0.245 C  
HETATM   19  C   UNL     1     -11.679  11.922  66.973  1.00  0.00    -0.227 C  
HETATM   20  C   UNL     1      -9.978  16.021  66.630  1.00  0.00    -0.267 C  
HETATM   21  C   UNL     1     -11.949  13.605  68.799  1.00  0.00    -0.359 C  
HETATM   22  C   UNL     1     -11.586  14.307  66.018  1.00  0.00    -0.360 C  
ENDBRANCH   7  15
ENDBRANCH   5   6
ENDBRANCH   4   5
ENDBRANCH   3   4
ENDBRANCH   2   3
TORSDOF 5
ENDMDL
MODEL       38
REMARK 921   NORMALIZED FREE ENERGY PREDICTED BY IDOCK:   -5.22 KCAL/MOL
REMARK 922        TOTAL FREE ENERGY PREDICTED BY IDOCK:   -7.38 KCAL/MOL
REMARK 923 INTER-LIGAND FREE ENERGY PREDICTED BY IDOCK:   -7.25 KCAL/MOL
REMARK 924 INTRA-LIGAND FREE ENERGY PREDICTED BY IDOCK:   -0.13 KCAL/MOL
REMARK 927      BINDING AFFINITY PREDICTED BY RF-SCORE:    0.00 PKD
ROOT
HETATM    1  C   UNL     1     -10.385  12.226  63.687  1.00  0.00    -0.463 C  
HETATM    2  C   UNL     1     -11.444  13.109  64.300  1.00  0.00    -0.384 C  
ENDROOT
BRANCH   2   3
HETATM    3  O   UNL     1     -11.958  12.477  65.477  1.00  0.00    -0.420 OA 
BRANCH   3   4
HETATM    4  C   UNL     1     -12.111  13.466  66.493  1.00  0.00    -0.388 C  
BRANCH   4   5
HETATM    5  C   UNL     1     -11.099  13.310  67.609  1.00  0.00    -0.269 C  
BRANCH   5   6
HETATM    6  N   UNL     1     -11.374  12.296  68.614  1.00  0.00    -0.266 NA 
HETATM    7  C   UNL     1     -11.995  12.533  69.849  1.00  0.00    -0.301 A  
HETATM    8  N   UNL     1     -11.969  11.430  70.574  1.00  0.00    -0.365 NA 
HETATM    9  C   UNL     1     -10.973  10.965  68.581  1.00  0.00    -0.227 A  
HETATM   10  C   UNL     1     -10.308  10.135  67.651  1.00  0.00    -0.265 A  
HETATM   11  C   UNL     1     -11.367  10.464  69.815  1.00  0.00    -0.289 A  
HETATM   12  C   UNL     1     -10.051   8.804  67.975  1.00  0.00    -0.241 A  
HETATM   13  C   UNL     1     -11.101   9.117  70.136  1.00  0.00    -0.248 A  
HETATM   14  C   UNL     1     -10.448   8.293  69.206  1.00  0.00    -0.218 A  
BRANCH   7  15
HETATM   15  N   UNL     1     -12.443  13.754  70.288  1.00  0.00    -0.316 NA 
HETATM   16  N   UNL     1     -12.864  15.441  73.147  1.00  0.00    -0.441 NA 
HETATM   17  C   UNL     1     -11.063  15.611  71.347  1.00  0.00    -0.293 C  
HETATM   18  C   UNL     1     -13.065  14.056  72.694  1.00  0.00    -0.459 C  
HETATM   19  C   UNL     1     -11.577  14.926  70.073  1.00  0.00    -0.289 C  
HETATM   20  C   UNL     1     -12.200  15.443  74.450  1.00  0.00    -0.569 C  
HETATM   21  C   UNL     1     -13.545  13.925  71.239  1.00  0.00    -0.145 C  
HETATM   22  C   UNL     1     -12.164  16.287  72.173  1.00  0.00    -0.394 C  
ENDBRANCH   7  15
ENDBRANCH   5   6
ENDBRANCH   4   5
ENDBRANCH   3   4
ENDBRANCH   2   3
TORSDOF 5
ENDMDL
MODEL       39
REMARK 921   NORMALIZED FREE ENERGY PREDICTED BY IDOCK:   -5.19 KCAL/MOL
REMARK 922        TOTAL FREE ENERGY PREDICTED BY IDOCK:   -7.34 KCAL/MOL
REMARK 923 INTER-LIGAND FREE ENERGY PREDICTED BY IDOCK:   -7.06 KCAL/MOL
REMARK 924 INTRA-LIGAND FREE ENERGY PREDICTED BY IDOCK:   -0.28 KCAL/MOL
REMARK 927      BINDING AFFINITY PREDICTED BY RF-SCORE:    0.00 PKD
ROOT
HETATM    1  C   UNL     1     -10.375  10.768  65.656  1.00  0.00    -0.297 C  
HETATM    2  C   UNL     1     -11.194  11.954  65.212  1.00  0.00    -0.295 C  
ENDROOT
BRANCH   2   3
HETATM    3  O   UNL     1     -11.694  12.637  66.367  1.00  0.00    -0.368 OA 
BRANCH   3   4
HETATM    4  C   UNL     1     -11.009  12.146  67.518  1.00  0.00    -0.257 C  
BRANCH   4   5
HETATM    5  C   UNL     1     -10.417  13.259  68.357  1.00  0.00    -0.253 C  
BRANCH   5   6
HETATM    6  N   UNL     1     -11.340  14.048  69.155  1.00  0.00    -0.267 NA 
HETATM    7  C   UNL     1     -11.489  15.440  69.075  1.00  0.00    -0.337 A  
HETATM    8  N   UNL     1     -12.308  15.852  70.024  1.00  0.00    -0.247 NA 
HETATM    9  C   UNL     1     -12.138  13.589  70.198  1.00  0.00    -0.354 A  
HETATM   10  C   UNL     1     -12.415  12.330  70.776  1.00  0.00    -0.356 A  
HETATM   11  C   UNL     1     -12.724  14.741  70.707  1.00  0.00    -0.362 A  
HETATM   12  C   UNL     1     -13.286  12.246  71.861  1.00  0.00    -0.481 A  
HETATM   13  C   UNL     1     -13.602  14.647  71.806  1.00  0.00    -0.481 A  
HETATM   14  C   UNL     1     -13.881  13.395  72.372  1.00  0.00    -0.665 A  
BRANCH   7  15
HETATM   15  N   UNL     1     -10.791  16.263  68.225  1.00  0.00    -0.326 NA 
HETATM   16  N   UNL     1      -7.637  16.903  67.311  1.00  0.00    -0.162 NA 
HETATM   17  C   UNL     1      -9.486  15.582  66.150  1.00  0.00    -0.376 C  
HETATM   18  C   UNL     1      -8.336  16.609  68.571  1.00  0.00    -0.228 C  
HETATM   19  C   UNL     1     -10.831  15.961  66.784  1.00  0.00    -0.228 C  
HETATM   20  C   UNL     1      -6.406  16.117  67.234  1.00  0.00    -0.169 C  
HETATM   21  C   UNL     1      -9.753  17.200  68.665  1.00  0.00    -0.293 C  
HETATM   22  C   UNL     1      -8.472  16.733  66.116  1.00  0.00    -0.263 C  
ENDBRANCH   7  15
ENDBRANCH   5   6
ENDBRANCH   4   5
ENDBRANCH   3   4
ENDBRANCH   2   3
TORSDOF 5
ENDMDL
MODEL       40
REMARK 921   NORMALIZED FREE ENERGY PREDICTED BY IDOCK:   -5.17 KCAL/MOL
REMARK 922        TOTAL FREE ENERGY PREDICTED BY IDOCK:   -7.31 KCAL/MOL
REMARK 923 INTER-LIGAND FREE ENERGY PREDICTED BY IDOCK:   -6.65 KCAL/MOL
REMARK 924 INTRA-LIGAND FREE ENERGY PREDICTED BY IDOCK:   -0.66 KCAL/MOL
REMARK 927      BINDING AFFINITY PREDICTED BY RF-SCORE:    0.00 PKD
ROOT
HETATM    1  C   UNL     1     -13.061  15.682  71.761  1.00  0.00    -0.546 C  
HETATM    2  C   UNL     1     -11.570  15.531  71.930  1.00  0.00    -0.442 C  
ENDROOT
BRANCH   2   3
HETATM    3  O   UNL     1     -10.944  15.589  70.644  1.00  0.00    -0.317 OA 
BRANCH   3   4
HETATM    4  C   UNL     1     -11.916  15.266  69.651  1.00  0.00    -0.338 C  
BRANCH   4   5
HETATM    5  C   UNL     1     -11.867  16.208  68.466  1.00  0.00    -0.037 C  
BRANCH   5   6
HETATM    6  N   UNL     1     -10.594  16.339  67.778  1.00  0.00    -0.306 NA 
HETATM    7  C   UNL     1     -10.016  15.358  66.959  1.00  0.00    -0.238 A  
HETATM    8  N   UNL     1      -8.804  15.739  66.601  1.00  0.00    -0.260 NA 
HETATM    9  C   UNL     1      -9.687  17.387  67.900  1.00  0.00    -0.272 A  
HETATM   10  C   UNL     1      -9.667  18.628  68.574  1.00  0.00    -0.409 A  
HETATM   11  C   UNL     1      -8.593  16.975  67.150  1.00  0.00    -0.202 A  
HETATM   12  C   UNL     1      -8.541  19.445  68.480  1.00  0.00    -0.401 A  
HETATM   13  C   UNL     1      -7.458  17.807  67.062  1.00  0.00    -0.224 A  
HETATM   14  C   UNL     1      -7.444  19.042  67.726  1.00  0.00    -0.271 A  
BRANCH   7  15
HETATM   15  N   UNL     1     -10.571  14.134  66.679  1.00  0.00    -0.276 NA 
HETATM   16  N   UNL     1     -10.698  11.898  64.192  1.00  0.00    -0.319 NA 
HETATM   17  C   UNL     1      -9.347  11.926  66.356  1.00  0.00    -0.233 C  
HETATM   18  C   UNL     1     -10.744  13.365  64.303  1.00  0.00    -0.355 C  
HETATM   19  C   UNL     1      -9.978  12.944  67.315  1.00  0.00    -0.224 C  
HETATM   20  C   UNL     1      -9.798  11.513  63.105  1.00  0.00    -0.390 C  
HETATM   21  C   UNL     1     -11.475  13.885  65.552  1.00  0.00    -0.316 C  
HETATM   22  C   UNL     1     -10.361  11.219  65.449  1.00  0.00    -0.272 C  
ENDBRANCH   7  15
ENDBRANCH   5   6
ENDBRANCH   4   5
ENDBRANCH   3   4
ENDBRANCH   2   3
TORSDOF 5
ENDMDL
MODEL       41
REMARK 921   NORMALIZED FREE ENERGY PREDICTED BY IDOCK:   -5.07 KCAL/MOL
REMARK 922        TOTAL FREE ENERGY PREDICTED BY IDOCK:   -7.19 KCAL/MOL
REMARK 923 INTER-LIGAND FREE ENERGY PREDICTED BY IDOCK:   -6.50 KCAL/MOL
REMARK 924 INTRA-LIGAND FREE ENERGY PREDICTED BY IDOCK:   -0.69 KCAL/MOL
REMARK 927      BINDING AFFINITY PREDICTED BY RF-SCORE:    0.00 PKD
ROOT
HETATM    1  C   UNL     1     -11.842  15.383  72.292  1.00  0.00    -0.551 C  
HETATM    2  C   UNL     1     -11.448  15.864  70.917  1.00  0.00    -0.409 C  
ENDROOT
BRANCH   2   3
HETATM    3  O   UNL     1     -12.447  15.461  69.975  1.00  0.00    -0.345 OA 
BRANCH   3   4
HETATM    4  C   UNL     1     -12.245  14.084  69.659  1.00  0.00    -0.332 C  
BRANCH   4   5
HETATM    5  C   UNL     1     -10.997  13.858  68.832  1.00  0.00    -0.263 C  
BRANCH   5   6
HETATM    6  N   UNL     1     -11.078  12.868  67.771  1.00  0.00    -0.248 NA 
HETATM    7  C   UNL     1     -10.647  11.537  67.876  1.00  0.00    -0.191 A  
HETATM    8  N   UNL     1     -10.738  10.949  66.698  1.00  0.00    -0.251 NA 
HETATM    9  C   UNL     1     -11.478  13.089  66.457  1.00  0.00    -0.340 A  
HETATM   10  C   UNL     1     -11.988  14.187  65.730  1.00  0.00    -0.410 A  
HETATM   11  C   UNL     1     -11.255  11.870  65.828  1.00  0.00    -0.312 A  
HETATM   12  C   UNL     1     -12.273  14.043  64.373  1.00  0.00    -0.457 A  
HETATM   13  C   UNL     1     -11.543  11.735  64.454  1.00  0.00    -0.325 A  
HETATM   14  C   UNL     1     -12.058  12.825  63.738  1.00  0.00    -0.596 A  
BRANCH   7  15
HETATM   15  N   UNL     1     -10.093  10.971  68.998  1.00  0.00    -0.202 NA 
HETATM   16  N   UNL     1     -10.164   8.093  70.704  1.00  0.00    -0.195 NA 
HETATM   17  C   UNL     1      -8.432   9.046  69.091  1.00  0.00    -0.128 C  
HETATM   18  C   UNL     1     -11.148   8.939  70.011  1.00  0.00    -0.170 C  
HETATM   19  C   UNL     1      -8.682  10.552  68.937  1.00  0.00    -0.154 C  
HETATM   20  C   UNL     1     -10.384   6.691  70.351  1.00  0.00    -0.199 C  
HETATM   21  C   UNL     1     -10.878  10.449  70.121  1.00  0.00    -0.271 C  
HETATM   22  C   UNL     1      -8.772   8.502  70.484  1.00  0.00    -0.152 C  
ENDBRANCH   7  15
ENDBRANCH   5   6
ENDBRANCH   4   5
ENDBRANCH   3   4
ENDBRANCH   2   3
TORSDOF 5
ENDMDL
MODEL       42
REMARK 921   NORMALIZED FREE ENERGY PREDICTED BY IDOCK:   -5.05 KCAL/MOL
REMARK 922        TOTAL FREE ENERGY PREDICTED BY IDOCK:   -7.16 KCAL/MOL
REMARK 923 INTER-LIGAND FREE ENERGY PREDICTED BY IDOCK:   -6.48 KCAL/MOL
REMARK 924 INTRA-LIGAND FREE ENERGY PREDICTED BY IDOCK:   -0.68 KCAL/MOL
REMARK 927      BINDING AFFINITY PREDICTED BY RF-SCORE:    0.00 PKD
ROOT
HETATM    1  C   UNL     1      -6.616  12.806  67.545  1.00  0.00    -0.158 C  
HETATM    2  C   UNL     1      -8.011  13.157  67.998  1.00  0.00    -0.156 C  
ENDROOT
BRANCH   2   3
HETATM    3  O   UNL     1      -8.203  14.571  67.873  1.00  0.00    -0.134 OA 
BRANCH   3   4
HETATM    4  C   UNL     1      -9.195  14.979  68.813  1.00  0.00    -0.200 C  
BRANCH   4   5
HETATM    5  C   UNL     1     -10.360  15.686  68.154  1.00  0.00    -0.246 C  
BRANCH   5   6
HETATM    6  N   UNL     1     -10.567  15.438  66.736  1.00  0.00    -0.305 NA 
HETATM    7  C   UNL     1     -10.279  16.348  65.708  1.00  0.00    -0.348 A  
HETATM    8  N   UNL     1     -10.707  15.864  64.558  1.00  0.00    -0.434 NA 
HETATM    9  C   UNL     1     -11.181  14.327  66.169  1.00  0.00    -0.331 A  
HETATM   10  C   UNL     1     -11.705  13.108  66.653  1.00  0.00    -0.427 A  
HETATM   11  C   UNL     1     -11.244  14.632  64.815  1.00  0.00    -0.389 A  
HETATM   12  C   UNL     1     -12.283  12.204  65.763  1.00  0.00     0.005 A  
HETATM   13  C   UNL     1     -11.833  13.713  63.922  1.00  0.00    -0.419 A  
HETATM   14  C   UNL     1     -12.344  12.499  64.405  1.00  0.00    -0.537 A  
BRANCH   7  15
HETATM   15  N   UNL     1      -9.751  17.603  65.887  1.00  0.00    -0.542 NA 
HETATM   16  N   UNL     1      -9.920  20.160  68.039  1.00  0.00    -0.404 NA 
HETATM   17  C   UNL     1      -8.147  18.353  67.715  1.00  0.00    -0.264 C  
HETATM   18  C   UNL     1     -10.873  19.210  67.444  1.00  0.00    -0.435 C  
HETATM   19  C   UNL     1      -8.352  17.707  66.338  1.00  0.00    -0.253 C  
HETATM   20  C   UNL     1     -10.177  20.284  69.474  1.00  0.00     0.200 C  
HETATM   21  C   UNL     1     -10.559  18.822  65.990  1.00  0.00    -0.386 C  
HETATM   22  C   UNL     1      -8.514  19.842  67.761  1.00  0.00    -0.317 C  
ENDBRANCH   7  15
ENDBRANCH   5   6
ENDBRANCH   4   5
ENDBRANCH   3   4
ENDBRANCH   2   3
TORSDOF 5
ENDMDL
MODEL       43
REMARK 921   NORMALIZED FREE ENERGY PREDICTED BY IDOCK:   -5.03 KCAL/MOL
REMARK 922        TOTAL FREE ENERGY PREDICTED BY IDOCK:   -7.13 KCAL/MOL
REMARK 923 INTER-LIGAND FREE ENERGY PREDICTED BY IDOCK:   -6.46 KCAL/MOL
REMARK 924 INTRA-LIGAND FREE ENERGY PREDICTED BY IDOCK:   -0.67 KCAL/MOL
REMARK 927      BINDING AFFINITY PREDICTED BY RF-SCORE:    0.00 PKD
ROOT
HETATM    1  C   UNL     1      -8.302   7.916  66.412  1.00  0.00    -0.129 C  
HETATM    2  C   UNL     1      -9.664   8.563  66.425  1.00  0.00    -0.258 C  
ENDROOT
BRANCH   2   3
HETATM    3  O   UNL     1      -9.526   9.953  66.111  1.00  0.00    -0.174 OA 
BRANCH   3   4
HETATM    4  C   UNL     1      -8.544  10.519  66.977  1.00  0.00    -0.127 C  
BRANCH   4   5
HETATM    5  C   UNL     1      -9.126  11.560  67.910  1.00  0.00    -0.167 C  
BRANCH   5   6
HETATM    6  N   UNL     1     -10.331  11.195  68.637  1.00  0.00    -0.195 NA 
HETATM    7  C   UNL     1     -11.596  11.768  68.439  1.00  0.00    -0.318 A  
HETATM    8  N   UNL     1     -12.435  11.309  69.348  1.00  0.00    -0.272 NA 
HETATM    9  C   UNL     1     -10.418  10.320  69.714  1.00  0.00    -0.259 A  
HETATM   10  C   UNL     1      -9.521   9.469  70.396  1.00  0.00    -0.317 A  
HETATM   11  C   UNL     1     -11.743  10.418  70.122  1.00  0.00    -0.312 A  
HETATM   12  C   UNL     1      -9.971   8.721  71.483  1.00  0.00    -0.370 A  
HETATM   13  C   UNL     1     -12.189   9.659  71.223  1.00  0.00    -0.452 A  
HETATM   14  C   UNL     1     -11.297   8.809  71.893  1.00  0.00    -0.431 A  
BRANCH   7  15
HETATM   15  N   UNL     1     -11.886  12.749  67.523  1.00  0.00    -0.363 NA 
HETATM   16  N   UNL     1     -10.514  15.509  66.219  1.00  0.00    -0.297 NA 
HETATM   17  C   UNL     1     -10.750  13.148  65.281  1.00  0.00    -0.318 C  
HETATM   18  C   UNL     1     -10.595  14.894  67.554  1.00  0.00    -0.266 C  
HETATM   19  C   UNL     1     -11.819  12.402  66.093  1.00  0.00    -0.376 C  
HETATM   20  C   UNL     1      -9.145  15.958  65.966  1.00  0.00    -0.328 C  
HETATM   21  C   UNL     1     -11.926  14.179  67.844  1.00  0.00    -0.343 C  
HETATM   22  C   UNL     1     -11.018  14.651  65.140  1.00  0.00    -0.386 C  
ENDBRANCH   7  15
ENDBRANCH   5   6
ENDBRANCH   4   5
ENDBRANCH   3   4
ENDBRANCH   2   3
TORSDOF 5
ENDMDL
MODEL       44
REMARK 921   NORMALIZED FREE ENERGY PREDICTED BY IDOCK:   -5.02 KCAL/MOL
REMARK 922        TOTAL FREE ENERGY PREDICTED BY IDOCK:   -7.12 KCAL/MOL
REMARK 923 INTER-LIGAND FREE ENERGY PREDICTED BY IDOCK:   -6.53 KCAL/MOL
REMARK 924 INTRA-LIGAND FREE ENERGY PREDICTED BY IDOCK:   -0.59 KCAL/MOL
REMARK 927      BINDING AFFINITY PREDICTED BY RF-SCORE:    0.00 PKD
ROOT
HETATM    1  C   UNL     1     -12.866  11.887  63.543  1.00  0.00    -0.435 C  
HETATM    2  C   UNL     1     -12.091  13.167  63.353  1.00  0.00    -0.486 C  
ENDROOT
BRANCH   2   3
HETATM    3  O   UNL     1     -12.657  14.186  64.184  1.00  0.00    -0.684 OA 
BRANCH   3   4
HETATM    4  C   UNL     1     -12.083  14.080  65.486  1.00  0.00    -0.410 C  
BRANCH   4   5
HETATM    5  C   UNL     1     -10.570  14.105  65.455  1.00  0.00    -0.346 C  
BRANCH   5   6
HETATM    6  N   UNL     1      -9.875  13.228  66.383  1.00  0.00    -0.276 NA 
HETATM    7  C   UNL     1      -9.252  13.641  67.570  1.00  0.00    -0.218 A  
HETATM    8  N   UNL     1      -8.604  12.624  68.105  1.00  0.00    -0.184 NA 
HETATM    9  C   UNL     1      -9.609  11.874  66.206  1.00  0.00    -0.229 A  
HETATM   10  C   UNL     1      -9.934  10.902  65.234  1.00  0.00    -0.330 A  
HETATM   11  C   UNL     1      -8.821  11.539  67.300  1.00  0.00    -0.160 A  
HETATM   12  C   UNL     1      -9.463   9.598  65.378  1.00  0.00    -0.343 A  
HETATM   13  C   UNL     1      -8.348  10.218  67.437  1.00  0.00    -0.118 A  
HETATM   14  C   UNL     1      -8.679   9.254  66.474  1.00  0.00    -0.145 A  
BRANCH   7  15
HETATM   15  N   UNL     1      -9.214  14.933  68.035  1.00  0.00    -0.182 NA 
HETATM   16  N   UNL     1      -9.698  18.057  66.937  1.00  0.00    -0.300 NA 
HETATM   17  C   UNL     1     -11.180  16.520  68.336  1.00  0.00    -0.280 C  
HETATM   18  C   UNL     1      -9.074  16.833  66.411  1.00  0.00    -0.289 C  
HETATM   19  C   UNL     1     -10.313  15.387  68.904  1.00  0.00    -0.233 C  
HETATM   20  C   UNL     1     -10.534  18.668  65.904  1.00  0.00    -0.356 C  
HETATM   21  C   UNL     1      -8.356  15.979  67.470  1.00  0.00    -0.161 C  
HETATM   22  C   UNL     1     -10.437  17.854  68.190  1.00  0.00    -0.372 C  
ENDBRANCH   7  15
ENDBRANCH   5   6
ENDBRANCH   4   5
ENDBRANCH   3   4
ENDBRANCH   2   3
TORSDOF 5
ENDMDL
MODEL       45
REMARK 921   NORMALIZED FREE ENERGY PREDICTED BY IDOCK:   -4.99 KCAL/MOL
REMARK 922        TOTAL FREE ENERGY PREDICTED BY IDOCK:   -7.09 KCAL/MOL
REMARK 923 INTER-LIGAND FREE ENERGY PREDICTED BY IDOCK:   -6.29 KCAL/MOL
REMARK 924 INTRA-LIGAND FREE ENERGY PREDICTED BY IDOCK:   -0.80 KCAL/MOL
REMARK 927      BINDING AFFINITY PREDICTED BY RF-SCORE:    0.00 PKD
ROOT
HETATM    1  C   UNL     1     -13.233  12.266  71.853  1.00  0.00    -0.481 C  
HETATM    2  C   UNL     1     -13.395  10.781  72.061  1.00  0.00    -0.298 C  
ENDROOT
BRANCH   2   3
HETATM    3  O   UNL     1     -12.700  10.083  71.023  1.00  0.00    -0.331 OA 
BRANCH   3   4
HETATM    4  C   UNL     1     -11.549   9.457  71.589  1.00  0.00    -0.396 C  
BRANCH   4   5
HETATM    5  C   UNL     1     -10.296   9.707  70.776  1.00  0.00    -0.286 C  
BRANCH   5   6
HETATM    6  N   UNL     1     -10.320   9.295  69.382  1.00  0.00    -0.209 NA 
HETATM    7  C   UNL     1     -10.382  10.167  68.285  1.00  0.00    -0.186 A  
HETATM    8  N   UNL     1     -10.524   9.469  67.174  1.00  0.00    -0.260 NA 
HETATM    9  C   UNL     1     -10.403   7.992  68.902  1.00  0.00    -0.209 A  
HETATM   10  C   UNL     1     -10.405   6.703  69.481  1.00  0.00    -0.232 A  
HETATM   11  C   UNL     1     -10.523   8.146  67.527  1.00  0.00    -0.256 A  
HETATM   12  C   UNL     1     -10.524   5.581  68.663  1.00  0.00    -0.240 A  
HETATM   13  C   UNL     1     -10.646   7.006  66.707  1.00  0.00    -0.297 A  
HETATM   14  C   UNL     1     -10.639   5.727  67.285  1.00  0.00    -0.353 A  
BRANCH   7  15
HETATM   15  N   UNL     1     -10.420  11.537  68.364  1.00  0.00    -0.199 NA 
HETATM   16  N   UNL     1     -10.038  14.219  66.399  1.00  0.00    -0.279 NA 
HETATM   17  C   UNL     1     -12.138  13.092  67.312  1.00  0.00    -0.329 C  
HETATM   18  C   UNL     1      -9.375  12.914  66.553  1.00  0.00    -0.222 C  
HETATM   19  C   UNL     1     -11.738  12.186  68.484  1.00  0.00    -0.330 C  
HETATM   20  C   UNL     1     -10.257  14.497  64.980  1.00  0.00    -0.365 C  
HETATM   21  C   UNL     1      -9.298  12.408  68.003  1.00  0.00    -0.204 C  
HETATM   22  C   UNL     1     -11.273  14.352  67.181  1.00  0.00    -0.328 C  
ENDBRANCH   7  15
ENDBRANCH   5   6
ENDBRANCH   4   5
ENDBRANCH   3   4
ENDBRANCH   2   3
TORSDOF 5
ENDMDL
MODEL       46
REMARK 921   NORMALIZED FREE ENERGY PREDICTED BY IDOCK:   -4.95 KCAL/MOL
REMARK 922        TOTAL FREE ENERGY PREDICTED BY IDOCK:   -7.04 KCAL/MOL
REMARK 923 INTER-LIGAND FREE ENERGY PREDICTED BY IDOCK:   -6.32 KCAL/MOL
REMARK 924 INTRA-LIGAND FREE ENERGY PREDICTED BY IDOCK:   -0.71 KCAL/MOL
REMARK 927      BINDING AFFINITY PREDICTED BY RF-SCORE:    0.00 PKD
ROOT
HETATM    1  C   UNL     1      -5.342  10.361  71.008  1.00  0.00    -0.085 C  
HETATM    2  C   UNL     1      -6.158   9.105  71.186  1.00  0.00    -0.067 C  
ENDROOT
BRANCH   2   3
HETATM    3  O   UNL     1      -7.549   9.438  71.127  1.00  0.00    -0.306 OA 
BRANCH   3   4
HETATM    4  C   UNL     1      -7.813  10.067  69.874  1.00  0.00    -0.174 C  
BRANCH   4   5
HETATM    5  C   UNL     1      -9.010   9.467  69.167  1.00  0.00    -0.148 C  
BRANCH   5   6
HETATM    6  N   UNL     1     -10.312  10.033  69.476  1.00  0.00    -0.219 NA 
HETATM    7  C   UNL     1     -10.866  11.166  68.861  1.00  0.00    -0.216 A  
HETATM    8  N   UNL     1     -11.994  11.489  69.465  1.00  0.00    -0.331 NA 
HETATM    9  C   UNL     1     -11.171   9.634  70.495  1.00  0.00    -0.297 A  
HETATM   10  C   UNL     1     -11.180   8.600  71.458  1.00  0.00    -0.360 A  
HETATM   11  C   UNL     1     -12.204  10.562  70.449  1.00  0.00    -0.328 A  
HETATM   12  C   UNL     1     -12.235   8.512  72.365  1.00  0.00    -0.432 A  
HETATM   13  C   UNL     1     -13.266  10.466  71.371  1.00  0.00    -0.459 A  
HETATM   14  C   UNL     1     -13.275   9.434  72.321  1.00  0.00    -0.528 A  
BRANCH   7  15
HETATM   15  N   UNL     1     -10.264  11.901  67.870  1.00  0.00    -0.189 NA 
HETATM   16  N   UNL     1     -11.072  13.587  65.094  1.00  0.00    -0.307 NA 
HETATM   17  C   UNL     1     -10.503  14.399  67.446  1.00  0.00    -0.261 C  
HETATM   18  C   UNL     1     -11.482  12.322  65.724  1.00  0.00    -0.367 C  
HETATM   19  C   UNL     1      -9.803  13.261  68.201  1.00  0.00    -0.231 C  
HETATM   20  C   UNL     1     -12.255  14.319  64.640  1.00  0.00    -0.454 C  
HETATM   21  C   UNL     1     -10.348  11.573  66.444  1.00  0.00    -0.237 C  
HETATM   22  C   UNL     1     -10.207  14.417  65.941  1.00  0.00    -0.325 C  
ENDBRANCH   7  15
ENDBRANCH   5   6
ENDBRANCH   4   5
ENDBRANCH   3   4
ENDBRANCH   2   3
TORSDOF 5
ENDMDL
MODEL       47
REMARK 921   NORMALIZED FREE ENERGY PREDICTED BY IDOCK:   -4.95 KCAL/MOL
REMARK 922        TOTAL FREE ENERGY PREDICTED BY IDOCK:   -7.03 KCAL/MOL
REMARK 923 INTER-LIGAND FREE ENERGY PREDICTED BY IDOCK:   -6.61 KCAL/MOL
REMARK 924 INTRA-LIGAND FREE ENERGY PREDICTED BY IDOCK:   -0.41 KCAL/MOL
REMARK 927      BINDING AFFINITY PREDICTED BY RF-SCORE:    0.00 PKD
ROOT
HETATM    1  C   UNL     1     -11.847  12.583  63.428  1.00  0.00    -0.587 C  
HETATM    2  C   UNL     1     -10.799  11.502  63.511  1.00  0.00    -0.398 C  
ENDROOT
BRANCH   2   3
HETATM    3  O   UNL     1      -9.970  11.740  64.654  1.00  0.00    -0.249 OA 
BRANCH   3   4
HETATM    4  C   UNL     1     -10.690  11.357  65.825  1.00  0.00    -0.251 C  
BRANCH   4   5
HETATM    5  C   UNL     1     -10.039  11.864  67.095  1.00  0.00    -0.204 C  
BRANCH   5   6
HETATM    6  N   UNL     1     -10.824  11.784  68.316  1.00  0.00    -0.208 NA 
HETATM    7  C   UNL     1     -11.464  12.868  68.935  1.00  0.00    -0.304 A  
HETATM    8  N   UNL     1     -11.972  12.480  70.089  1.00  0.00    -0.343 NA 
HETATM    9  C   UNL     1     -10.978  10.669  69.133  1.00  0.00    -0.247 A  
HETATM   10  C   UNL     1     -10.572   9.317  69.080  1.00  0.00    -0.225 A  
HETATM   11  C   UNL     1     -11.700  11.145  70.220  1.00  0.00    -0.341 A  
HETATM   12  C   UNL     1     -10.904   8.456  70.124  1.00  0.00    -0.238 A  
HETATM   13  C   UNL     1     -12.030  10.268  71.273  1.00  0.00    -0.457 A  
HETATM   14  C   UNL     1     -11.633   8.924  71.213  1.00  0.00    -0.371 A  
BRANCH   7  15
HETATM   15  N   UNL     1     -11.452  14.162  68.474  1.00  0.00    -0.281 NA 
HETATM   16  N   UNL     1      -9.314  16.401  67.205  1.00  0.00    -0.216 NA 
HETATM   17  C   UNL     1     -11.080  14.941  66.081  1.00  0.00    -0.335 C  
HETATM   18  C   UNL     1      -9.279  15.387  68.271  1.00  0.00    -0.188 C  
HETATM   19  C   UNL     1     -12.050  14.431  67.155  1.00  0.00    -0.333 C  
HETATM   20  C   UNL     1      -8.090  16.320  66.407  1.00  0.00    -0.299 C  
HETATM   21  C   UNL     1     -10.605  15.220  69.032  1.00  0.00    -0.245 C  
HETATM   22  C   UNL     1     -10.518  16.339  66.368  1.00  0.00    -0.294 C  
ENDBRANCH   7  15
ENDBRANCH   5   6
ENDBRANCH   4   5
ENDBRANCH   3   4
ENDBRANCH   2   3
TORSDOF 5
ENDMDL
MODEL       48
REMARK 921   NORMALIZED FREE ENERGY PREDICTED BY IDOCK:   -4.95 KCAL/MOL
REMARK 922        TOTAL FREE ENERGY PREDICTED BY IDOCK:   -7.03 KCAL/MOL
REMARK 923 INTER-LIGAND FREE ENERGY PREDICTED BY IDOCK:   -6.25 KCAL/MOL
REMARK 924 INTRA-LIGAND FREE ENERGY PREDICTED BY IDOCK:   -0.78 KCAL/MOL
REMARK 927      BINDING AFFINITY PREDICTED BY RF-SCORE:    0.00 PKD
ROOT
HETATM    1  C   UNL     1      -6.942   9.613  69.540  1.00  0.00    -0.059 C  
HETATM    2  C   UNL     1      -7.107  11.018  69.016  1.00  0.00    -0.106 C  
ENDROOT
BRANCH   2   3
HETATM    3  O   UNL     1      -8.098  11.019  67.982  1.00  0.00    -0.113 OA 
BRANCH   3   4
HETATM    4  C   UNL     1      -9.345  10.619  68.548  1.00  0.00    -0.170 C  
BRANCH   4   5
HETATM    5  C   UNL     1     -10.519  11.357  67.940  1.00  0.00    -0.184 C  
BRANCH   5   6
HETATM    6  N   UNL     1     -11.097  12.437  68.724  1.00  0.00    -0.249 NA 
HETATM    7  C   UNL     1     -10.864  13.803  68.509  1.00  0.00    -0.263 A  
HETATM    8  N   UNL     1     -11.429  14.504  69.473  1.00  0.00    -0.274 NA 
HETATM    9  C   UNL     1     -11.872  12.307  69.872  1.00  0.00    -0.311 A  
HETATM   10  C   UNL     1     -12.420  11.229  70.601  1.00  0.00    -0.439 A  
HETATM   11  C   UNL     1     -12.059  13.615  70.301  1.00  0.00    -0.357 A  
HETATM   12  C   UNL     1     -13.158  11.482  71.756  1.00  0.00    -0.503 A  
HETATM   13  C   UNL     1     -12.804  13.862  71.473  1.00  0.00    -0.441 A  
HETATM   14  C   UNL     1     -13.354  12.789  72.189  1.00  0.00    -0.593 A  
BRANCH   7  15
HETATM   15  N   UNL     1     -10.063  14.324  67.522  1.00  0.00    -0.235 NA 
HETATM   16  N   UNL     1      -9.566  17.204  65.893  1.00  0.00    -0.529 NA 
HETATM   17  C   UNL     1      -8.256  16.096  67.782  1.00  0.00    -0.162 C  
HETATM   18  C   UNL     1     -10.731  16.444  66.372  1.00  0.00    -0.161 C  
HETATM   19  C   UNL     1      -8.658  14.617  67.856  1.00  0.00    -0.165 C  
HETATM   20  C   UNL     1      -9.728  18.619  66.228  1.00  0.00    -0.307 C  
HETATM   21  C   UNL     1     -10.575  14.917  66.283  1.00  0.00    -0.308 C  
HETATM   22  C   UNL     1      -8.280  16.674  66.362  1.00  0.00    -0.318 C  
ENDBRANCH   7  15
ENDBRANCH   5   6
ENDBRANCH   4   5
ENDBRANCH   3   4
ENDBRANCH   2   3
TORSDOF 5
ENDMDL
MODEL       49
REMARK 921   NORMALIZED FREE ENERGY PREDICTED BY IDOCK:   -4.90 KCAL/MOL
REMARK 922        TOTAL FREE ENERGY PREDICTED BY IDOCK:   -6.96 KCAL/MOL
REMARK 923 INTER-LIGAND FREE ENERGY PREDICTED BY IDOCK:   -6.22 KCAL/MOL
REMARK 924 INTRA-LIGAND FREE ENERGY PREDICTED BY IDOCK:   -0.74 KCAL/MOL
REMARK 927      BINDING AFFINITY PREDICTED BY RF-SCORE:    0.00 PKD
ROOT
HETATM    1  C   UNL     1      -5.524  15.727  70.350  1.00  0.00    -0.157 C  
HETATM    2  C   UNL     1      -6.768  14.920  70.078  1.00  0.00    -0.154 C  
ENDROOT
BRANCH   2   3
HETATM    3  O   UNL     1      -6.663  14.319  68.783  1.00  0.00    -0.085 OA 
BRANCH   3   4
HETATM    4  C   UNL     1      -7.923  13.740  68.447  1.00  0.00    -0.144 C  
BRANCH   4   5
HETATM    5  C   UNL     1      -9.057  14.741  68.517  1.00  0.00    -0.187 C  
BRANCH   5   6
HETATM    6  N   UNL     1      -9.681  15.122  67.260  1.00  0.00    -0.209 NA 
HETATM    7  C   UNL     1      -9.562  16.379  66.650  1.00  0.00    -0.256 A  
HETATM    8  N   UNL     1     -10.356  16.435  65.597  1.00  0.00    -0.486 NA 
HETATM    9  C   UNL     1     -10.580  14.365  66.517  1.00  0.00    -0.296 A  
HETATM   10  C   UNL     1     -11.117  13.062  66.608  1.00  0.00    -0.318 A  
HETATM   11  C   UNL     1     -10.971  15.217  65.492  1.00  0.00    -0.359 A  
HETATM   12  C   UNL     1     -12.042  12.629  65.659  1.00  0.00    -0.502 A  
HETATM   13  C   UNL     1     -11.909  14.772  64.537  1.00  0.00    -0.428 A  
HETATM   14  C   UNL     1     -12.433  13.474  64.626  1.00  0.00    -0.372 A  
BRANCH   7  15
HETATM   15  N   UNL     1      -8.832  17.432  67.143  1.00  0.00    -0.227 NA 
HETATM   16  N   UNL     1      -6.628  19.723  66.096  1.00  0.00    -0.207 NA 
HETATM   17  C   UNL     1      -9.126  19.899  66.592  1.00  0.00    -0.466 C  
HETATM   18  C   UNL     1      -6.866  18.291  65.854  1.00  0.00    -0.290 C  
HETATM   19  C   UNL     1      -9.544  18.688  67.437  1.00  0.00    -0.296 C  
HETATM   20  C   UNL     1      -6.373  20.403  64.827  1.00  0.00    -0.298 C  
HETATM   21  C   UNL     1      -7.370  17.513  67.081  1.00  0.00    -0.188 C  
HETATM   22  C   UNL     1      -7.694  20.378  66.864  1.00  0.00    -0.300 C  
ENDBRANCH   7  15
ENDBRANCH   5   6
ENDBRANCH   4   5
ENDBRANCH   3   4
ENDBRANCH   2   3
TORSDOF 5
ENDMDL
MODEL       50
REMARK 921   NORMALIZED FREE ENERGY PREDICTED BY IDOCK:   -4.88 KCAL/MOL
REMARK 922        TOTAL FREE ENERGY PREDICTED BY IDOCK:   -6.95 KCAL/MOL
REMARK 923 INTER-LIGAND FREE ENERGY PREDICTED BY IDOCK:   -6.48 KCAL/MOL
REMARK 924 INTRA-LIGAND FREE ENERGY PREDICTED BY IDOCK:   -0.47 KCAL/MOL
REMARK 927      BINDING AFFINITY PREDICTED BY RF-SCORE:    0.00 PKD
ROOT
HETATM    1  C   UNL     1      -6.886  14.862  69.096  1.00  0.00    -0.132 C  
HETATM    2  C   UNL     1      -6.417  14.015  67.938  1.00  0.00    -0.162 C  
ENDROOT
BRANCH   2   3
HETATM    3  O   UNL     1      -7.552  13.407  67.312  1.00  0.00    -0.147 OA 
BRANCH   3   4
HETATM    4  C   UNL     1      -8.261  12.651  68.293  1.00  0.00    -0.164 C  
BRANCH   4   5
HETATM    5  C   UNL     1      -9.182  11.622  67.673  1.00  0.00    -0.178 C  
BRANCH   5   6
HETATM    6  N   UNL     1     -10.393  11.292  68.407  1.00  0.00    -0.185 NA 
HETATM    7  C   UNL     1     -11.656  11.857  68.174  1.00  0.00    -0.334 A  
HETATM    8  N   UNL     1     -12.502  11.442  69.097  1.00  0.00    -0.277 NA 
HETATM    9  C   UNL     1     -10.490  10.466  69.522  1.00  0.00    -0.247 A  
HETATM   10  C   UNL     1      -9.599   9.646  70.249  1.00  0.00    -0.307 A  
HETATM   11  C   UNL     1     -11.817  10.585  69.915  1.00  0.00    -0.282 A  
HETATM   12  C   UNL     1     -10.058   8.948  71.365  1.00  0.00    -0.379 A  
HETATM   13  C   UNL     1     -12.273   9.878  71.047  1.00  0.00    -0.446 A  
HETATM   14  C   UNL     1     -11.387   9.058  71.761  1.00  0.00    -0.447 A  
BRANCH   7  15
HETATM   15  N   UNL     1     -11.937  12.797  67.213  1.00  0.00    -0.416 NA 
HETATM   16  N   UNL     1     -10.715  15.677  66.024  1.00  0.00    -0.324 NA 
HETATM   17  C   UNL     1     -10.595  13.297  65.109  1.00  0.00    -0.342 C  
HETATM   18  C   UNL     1     -10.887  15.065  67.351  1.00  0.00    -0.305 C  
HETATM   19  C   UNL     1     -11.668  12.449  65.807  1.00  0.00    -0.414 C  
HETATM   20  C   UNL     1      -9.380  16.265  65.921  1.00  0.00    -0.264 C  
HETATM   21  C   UNL     1     -12.161  14.217  67.500  1.00  0.00    -0.312 C  
HETATM   22  C   UNL     1     -10.999  14.764  64.910  1.00  0.00    -0.412 C  
ENDBRANCH   7  15
ENDBRANCH   5   6
ENDBRANCH   4   5
ENDBRANCH   3   4
ENDBRANCH   2   3
TORSDOF 5
ENDMDL
MODEL       51
REMARK 921   NORMALIZED FREE ENERGY PREDICTED BY IDOCK:   -4.87 KCAL/MOL
REMARK 922        TOTAL FREE ENERGY PREDICTED BY IDOCK:   -6.92 KCAL/MOL
REMARK 923 INTER-LIGAND FREE ENERGY PREDICTED BY IDOCK:   -6.27 KCAL/MOL
REMARK 924 INTRA-LIGAND FREE ENERGY PREDICTED BY IDOCK:   -0.65 KCAL/MOL
REMARK 927      BINDING AFFINITY PREDICTED BY RF-SCORE:    0.00 PKD
ROOT
HETATM    1  C   UNL     1     -12.347  15.766  73.668  1.00  0.00    -0.689 C  
HETATM    2  C   UNL     1     -12.801  14.561  72.883  1.00  0.00    -0.441 C  
ENDROOT
BRANCH   2   3
HETATM    3  O   UNL     1     -12.814  14.888  71.489  1.00  0.00    -0.298 OA 
BRANCH   3   4
HETATM    4  C   UNL     1     -12.040  13.916  70.788  1.00  0.00    -0.330 C  
BRANCH   4   5
HETATM    5  C   UNL     1     -12.163  14.054  69.285  1.00  0.00    -0.278 C  
BRANCH   5   6
HETATM    6  N   UNL     1     -11.017  13.648  68.488  1.00  0.00    -0.257 NA 
HETATM    7  C   UNL     1     -10.051  14.518  67.963  1.00  0.00    -0.226 A  
HETATM    8  N   UNL     1      -9.228  13.845  67.181  1.00  0.00    -0.229 NA 
HETATM    9  C   UNL     1     -10.746  12.368  68.016  1.00  0.00    -0.223 A  
HETATM   10  C   UNL     1     -11.333  11.092  68.167  1.00  0.00    -0.374 A  
HETATM   11  C   UNL     1      -9.625  12.536  67.213  1.00  0.00    -0.205 A  
HETATM   12  C   UNL     1     -10.779   9.995  67.508  1.00  0.00    -0.339 A  
HETATM   13  C   UNL     1      -9.072  11.421  66.548  1.00  0.00    -0.193 A  
HETATM   14  C   UNL     1      -9.654  10.155  66.707  1.00  0.00    -0.222 A  
BRANCH   7  15
HETATM   15  N   UNL     1     -10.039  15.881  68.131  1.00  0.00    -0.226 NA 
HETATM   16  N   UNL     1      -7.903  18.453  67.982  1.00  0.00    -0.266 NA 
HETATM   17  C   UNL     1      -9.682  17.650  66.337  1.00  0.00    -0.303 C  
HETATM   18  C   UNL     1      -7.864  17.069  68.481  1.00  0.00    -0.251 C  
HETATM   19  C   UNL     1     -10.646  16.713  67.077  1.00  0.00    -0.247 C  
HETATM   20  C   UNL     1      -6.686  18.739  67.223  1.00  0.00    -0.202 C  
HETATM   21  C   UNL     1      -9.184  16.578  69.097  1.00  0.00    -0.197 C  
HETATM   22  C   UNL     1      -9.114  18.772  67.216  1.00  0.00    -0.277 C  
ENDBRANCH   7  15
ENDBRANCH   5   6
ENDBRANCH   4   5
ENDBRANCH   3   4
ENDBRANCH   2   3
TORSDOF 5
ENDMDL
MODEL       52
REMARK 921   NORMALIZED FREE ENERGY PREDICTED BY IDOCK:   -4.86 KCAL/MOL
REMARK 922        TOTAL FREE ENERGY PREDICTED BY IDOCK:   -6.91 KCAL/MOL
REMARK 923 INTER-LIGAND FREE ENERGY PREDICTED BY IDOCK:   -6.17 KCAL/MOL
REMARK 924 INTRA-LIGAND FREE ENERGY PREDICTED BY IDOCK:   -0.74 KCAL/MOL
REMARK 927      BINDING AFFINITY PREDICTED BY RF-SCORE:    0.00 PKD
ROOT
HETATM    1  C   UNL     1     -12.337  14.504  64.308  1.00  0.00    -0.396 C  
HETATM    2  C   UNL     1     -11.070  13.686  64.271  1.00  0.00    -0.315 C  
ENDROOT
BRANCH   2   3
HETATM    3  O   UNL     1     -11.274  12.542  63.436  1.00  0.00    -0.469 OA 
BRANCH   3   4
HETATM    4  C   UNL     1     -10.977  11.369  64.192  1.00  0.00    -0.341 C  
BRANCH   4   5
HETATM    5  C   UNL     1      -9.980  11.633  65.301  1.00  0.00    -0.255 C  
BRANCH   5   6
HETATM    6  N   UNL     1     -10.304  11.113  66.619  1.00  0.00    -0.232 NA 
HETATM    7  C   UNL     1     -10.647  11.896  67.731  1.00  0.00    -0.203 A  
HETATM    8  N   UNL     1     -10.749  11.125  68.798  1.00  0.00    -0.188 NA 
HETATM    9  C   UNL     1     -10.220   9.788  67.033  1.00  0.00    -0.229 A  
HETATM   10  C   UNL     1      -9.917   8.556  66.414  1.00  0.00    -0.314 A  
HETATM   11  C   UNL     1     -10.508   9.841  68.391  1.00  0.00    -0.218 A  
HETATM   12  C   UNL     1      -9.912   7.386  67.171  1.00  0.00    -0.281 A  
HETATM   13  C   UNL     1     -10.498   8.653  69.151  1.00  0.00    -0.223 A  
HETATM   14  C   UNL     1     -10.205   7.430  68.530  1.00  0.00    -0.201 A  
BRANCH   7  15
HETATM   15  N   UNL     1     -10.736  13.266  67.738  1.00  0.00    -0.240 NA 
HETATM   16  N   UNL     1     -11.651  15.754  69.780  1.00  0.00    -0.338 NA 
HETATM   17  C   UNL     1      -9.343  14.892  69.114  1.00  0.00    -0.145 C  
HETATM   18  C   UNL     1     -12.152  14.409  69.457  1.00  0.00    -0.322 C  
HETATM   19  C   UNL     1      -9.486  14.039  67.846  1.00  0.00    -0.210 C  
HETATM   20  C   UNL     1     -11.657  15.948  71.230  1.00  0.00    -0.452 C  
HETATM   21  C   UNL     1     -11.979  14.003  67.984  1.00  0.00    -0.350 C  
HETATM   22  C   UNL     1     -10.340  16.055  69.192  1.00  0.00    -0.247 C  
ENDBRANCH   7  15
ENDBRANCH   5   6
ENDBRANCH   4   5
ENDBRANCH   3   4
ENDBRANCH   2   3
TORSDOF 5
ENDMDL
MODEL       53
REMARK 921   NORMALIZED FREE ENERGY PREDICTED BY IDOCK:   -4.86 KCAL/MOL
REMARK 922        TOTAL FREE ENERGY PREDICTED BY IDOCK:   -6.91 KCAL/MOL
REMARK 923 INTER-LIGAND FREE ENERGY PREDICTED BY IDOCK:   -6.23 KCAL/MOL
REMARK 924 INTRA-LIGAND FREE ENERGY PREDICTED BY IDOCK:   -0.68 KCAL/MOL
REMARK 927      BINDING AFFINITY PREDICTED BY RF-SCORE:    0.00 PKD
ROOT
HETATM    1  C   UNL     1     -12.385  16.079  72.652  1.00  0.00    -0.594 C  
HETATM    2  C   UNL     1     -11.607  15.014  71.921  1.00  0.00    -0.349 C  
ENDROOT
BRANCH   2   3
HETATM    3  O   UNL     1     -10.793  15.631  70.918  1.00  0.00    -0.315 OA 
BRANCH   3   4
HETATM    4  C   UNL     1     -11.647  16.192  69.922  1.00  0.00    -0.239 C  
BRANCH   4   5
HETATM    5  C   UNL     1     -11.284  15.733  68.525  1.00  0.00    -0.354 C  
BRANCH   5   6
HETATM    6  N   UNL     1     -10.441  14.554  68.415  1.00  0.00    -0.240 NA 
HETATM    7  C   UNL     1      -9.127  14.546  67.924  1.00  0.00    -0.191 A  
HETATM    8  N   UNL     1      -8.697  13.302  67.833  1.00  0.00    -0.180 NA 
HETATM    9  C   UNL     1     -10.817  13.238  68.661  1.00  0.00    -0.259 A  
HETATM   10  C   UNL     1     -11.980  12.594  69.139  1.00  0.00    -0.293 A  
HETATM   11  C   UNL     1      -9.703  12.494  68.290  1.00  0.00    -0.220 A  
HETATM   12  C   UNL     1     -12.006  11.205  69.243  1.00  0.00    -0.421 A  
HETATM   13  C   UNL     1      -9.739  11.089  68.397  1.00  0.00    -0.181 A  
HETATM   14  C   UNL     1     -10.893  10.454  68.880  1.00  0.00    -0.273 A  
BRANCH   7  15
HETATM   15  N   UNL     1      -8.440  15.651  67.483  1.00  0.00    -0.160 NA 
HETATM   16  N   UNL     1      -9.024  18.605  66.023  1.00  0.00    -0.481 NA 
HETATM   17  C   UNL     1      -8.523  18.002  68.452  1.00  0.00    -0.306 C  
HETATM   18  C   UNL     1      -9.532  17.231  65.878  1.00  0.00    -0.015 C  
HETATM   19  C   UNL     1      -7.922  16.590  68.493  1.00  0.00    -0.216 C  
HETATM   20  C   UNL     1     -10.142  19.547  66.016  1.00  0.00    -0.436 C  
HETATM   21  C   UNL     1      -8.475  16.136  66.101  1.00  0.00    -0.253 C  
HETATM   22  C   UNL     1      -8.155  18.795  67.191  1.00  0.00    -0.250 C  
ENDBRANCH   7  15
ENDBRANCH   5   6
ENDBRANCH   4   5
ENDBRANCH   3   4
ENDBRANCH   2   3
TORSDOF 5
ENDMDL
MODEL       54
REMARK 921   NORMALIZED FREE ENERGY PREDICTED BY IDOCK:   -4.85 KCAL/MOL
REMARK 922        TOTAL FREE ENERGY PREDICTED BY IDOCK:   -6.90 KCAL/MOL
REMARK 923 INTER-LIGAND FREE ENERGY PREDICTED BY IDOCK:   -6.26 KCAL/MOL
REMARK 924 INTRA-LIGAND FREE ENERGY PREDICTED BY IDOCK:   -0.64 KCAL/MOL
REMARK 927      BINDING AFFINITY PREDICTED BY RF-SCORE:    0.00 PKD
ROOT
HETATM    1  C   UNL     1     -11.907  16.041  71.782  1.00  0.00    -0.599 C  
HETATM    2  C   UNL     1     -12.385  15.670  70.400  1.00  0.00    -0.391 C  
ENDROOT
BRANCH   2   3
HETATM    3  O   UNL     1     -12.307  14.250  70.242  1.00  0.00    -0.319 OA 
BRANCH   3   4
HETATM    4  C   UNL     1     -11.418  13.960  69.165  1.00  0.00    -0.299 C  
BRANCH   4   5
HETATM    5  C   UNL     1     -11.827  12.722  68.394  1.00  0.00    -0.310 C  
BRANCH   5   6
HETATM    6  N   UNL     1     -11.306  11.449  68.865  1.00  0.00    -0.242 NA 
HETATM    7  C   UNL     1     -10.323  10.691  68.213  1.00  0.00    -0.177 A  
HETATM    8  N   UNL     1     -10.177   9.533  68.830  1.00  0.00    -0.191 NA 
HETATM    9  C   UNL     1     -11.762  10.717  69.956  1.00  0.00    -0.336 A  
HETATM   10  C   UNL     1     -12.721  10.917  70.973  1.00  0.00    -0.505 A  
HETATM   11  C   UNL     1     -11.031   9.537  69.899  1.00  0.00    -0.238 A  
HETATM   12  C   UNL     1     -12.931   9.923  71.928  1.00  0.00    -0.545 A  
HETATM   13  C   UNL     1     -11.251   8.536  70.867  1.00  0.00    -0.304 A  
HETATM   14  C   UNL     1     -12.199   8.741  71.881  1.00  0.00    -0.429 A  
BRANCH   7  15
HETATM   15  N   UNL     1      -9.701  11.042  67.040  1.00  0.00    -0.180 NA 
HETATM   16  N   UNL     1      -6.954  10.288  65.283  1.00  0.00    -0.137 NA 
HETATM   17  C   UNL     1      -9.390   9.594  64.970  1.00  0.00    -0.319 C  
HETATM   18  C   UNL     1      -7.283  10.486  66.703  1.00  0.00    -0.119 C  
HETATM   19  C   UNL     1     -10.279  10.550  65.777  1.00  0.00    -0.243 C  
HETATM   20  C   UNL     1      -6.123   9.094  65.131  1.00  0.00    -0.060 C  
HETATM   21  C   UNL     1      -8.337  11.575  66.966  1.00  0.00    -0.165 C  
HETATM   22  C   UNL     1      -8.128  10.256  64.402  1.00  0.00    -0.149 C  
ENDBRANCH   7  15
ENDBRANCH   5   6
ENDBRANCH   4   5
ENDBRANCH   3   4
ENDBRANCH   2   3
TORSDOF 5
ENDMDL
MODEL       55
REMARK 921   NORMALIZED FREE ENERGY PREDICTED BY IDOCK:   -4.83 KCAL/MOL
REMARK 922        TOTAL FREE ENERGY PREDICTED BY IDOCK:   -6.87 KCAL/MOL
REMARK 923 INTER-LIGAND FREE ENERGY PREDICTED BY IDOCK:   -6.72 KCAL/MOL
REMARK 924 INTRA-LIGAND FREE ENERGY PREDICTED BY IDOCK:   -0.15 KCAL/MOL
REMARK 927      BINDING AFFINITY PREDICTED BY RF-SCORE:    0.00 PKD
ROOT
HETATM    1  C   UNL     1      -6.121  18.344  65.552  1.00  0.00    -0.281 C  
HETATM    2  C   UNL     1      -5.426  17.477  66.572  1.00  0.00    -0.191 C  
ENDROOT
BRANCH   2   3
HETATM    3  O   UNL     1      -6.176  16.271  66.752  1.00  0.00    -0.309 OA 
BRANCH   3   4
HETATM    4  C   UNL     1      -6.541  16.164  68.128  1.00  0.00    -0.124 C  
BRANCH   4   5
HETATM    5  C   UNL     1      -8.016  15.879  68.314  1.00  0.00    -0.139 C  
BRANCH   5   6
HETATM    6  N   UNL     1      -8.938  16.550  67.412  1.00  0.00    -0.198 NA 
HETATM    7  C   UNL     1      -9.656  15.924  66.383  1.00  0.00    -0.287 A  
HETATM    8  N   UNL     1     -10.293  16.836  65.672  1.00  0.00    -0.562 NA 
HETATM    9  C   UNL     1      -9.177  17.918  67.335  1.00  0.00    -0.253 A  
HETATM   10  C   UNL     1      -8.756  19.057  68.057  1.00  0.00    -0.341 A  
HETATM   11  C   UNL     1     -10.027  18.050  66.244  1.00  0.00    -0.337 A  
HETATM   12  C   UNL     1      -9.201  20.320  67.672  1.00  0.00    -0.449 A  
HETATM   13  C   UNL     1     -10.470  19.333  65.861  1.00  0.00    -0.534 A  
HETATM   14  C   UNL     1     -10.057  20.460  66.585  1.00  0.00    -0.457 A  
BRANCH   7  15
HETATM   15  N   UNL     1      -9.602  14.586  66.080  1.00  0.00    -0.298 NA 
HETATM   16  N   UNL     1     -10.351  11.627  67.451  1.00  0.00    -0.202 NA 
HETATM   17  C   UNL     1     -11.567  13.016  65.689  1.00  0.00    -0.391 C  
HETATM   18  C   UNL     1      -9.759  12.891  67.916  1.00  0.00    -0.218 C  
HETATM   19  C   UNL     1     -10.588  14.054  65.123  1.00  0.00    -0.386 C  
HETATM   20  C   UNL     1     -11.343  11.161  68.420  1.00  0.00    -0.288 C  
HETATM   21  C   UNL     1      -8.871  13.597  66.877  1.00  0.00    -0.187 C  
HETATM   22  C   UNL     1     -10.901  11.694  66.092  1.00  0.00    -0.294 C  
ENDBRANCH   7  15
ENDBRANCH   5   6
ENDBRANCH   4   5
ENDBRANCH   3   4
ENDBRANCH   2   3
TORSDOF 5
ENDMDL
MODEL       56
REMARK 921   NORMALIZED FREE ENERGY PREDICTED BY IDOCK:   -4.81 KCAL/MOL
REMARK 922        TOTAL FREE ENERGY PREDICTED BY IDOCK:   -6.85 KCAL/MOL
REMARK 923 INTER-LIGAND FREE ENERGY PREDICTED BY IDOCK:   -6.18 KCAL/MOL
REMARK 924 INTRA-LIGAND FREE ENERGY PREDICTED BY IDOCK:   -0.67 KCAL/MOL
REMARK 927      BINDING AFFINITY PREDICTED BY RF-SCORE:    0.00 PKD
ROOT
HETATM    1  C   UNL     1     -12.627  12.160  64.069  1.00  0.00    -0.507 C  
HETATM    2  C   UNL     1     -12.086  13.282  64.920  1.00  0.00    -0.397 C  
ENDROOT
BRANCH   2   3
HETATM    3  O   UNL     1     -12.622  13.168  66.242  1.00  0.00    -0.366 OA 
BRANCH   3   4
HETATM    4  C   UNL     1     -12.124  14.249  67.029  1.00  0.00    -0.390 C  
BRANCH   4   5
HETATM    5  C   UNL     1     -10.956  13.839  67.901  1.00  0.00    -0.253 C  
BRANCH   5   6
HETATM    6  N   UNL     1     -11.004  12.510  68.488  1.00  0.00    -0.238 NA 
HETATM    7  C   UNL     1     -10.435  11.359  67.926  1.00  0.00    -0.184 A  
HETATM    8  N   UNL     1     -10.775  10.303  68.641  1.00  0.00    -0.211 NA 
HETATM    9  C   UNL     1     -11.708  12.130  69.626  1.00  0.00    -0.325 A  
HETATM   10  C   UNL     1     -12.484  12.797  70.601  1.00  0.00    -0.328 A  
HETATM   11  C   UNL     1     -11.535  10.753  69.686  1.00  0.00    -0.305 A  
HETATM   12  C   UNL     1     -13.074  12.066  71.630  1.00  0.00    -0.422 A  
HETATM   13  C   UNL     1     -12.138  10.021  70.730  1.00  0.00    -0.418 A  
HETATM   14  C   UNL     1     -12.900  10.688  71.700  1.00  0.00    -0.570 A  
BRANCH   7  15
HETATM   15  N   UNL     1      -9.740  11.317  66.742  1.00  0.00    -0.191 NA 
HETATM   16  N   UNL     1      -6.768  10.331  65.560  1.00  0.00    -0.122 NA 
HETATM   17  C   UNL     1      -9.075   9.247  65.419  1.00  0.00    -0.277 C  
HETATM   18  C   UNL     1      -7.256  11.008  66.772  1.00  0.00    -0.139 C  
HETATM   19  C   UNL     1     -10.135  10.309  65.743  1.00  0.00    -0.255 C  
HETATM   20  C   UNL     1      -5.806   9.293  65.928  1.00  0.00    -0.050 C  
HETATM   21  C   UNL     1      -8.439  11.961  66.535  1.00  0.00    -0.097 C  
HETATM   22  C   UNL     1      -7.839   9.807  64.703  1.00  0.00    -0.136 C  
ENDBRANCH   7  15
ENDBRANCH   5   6
ENDBRANCH   4   5
ENDBRANCH   3   4
ENDBRANCH   2   3
TORSDOF 5
ENDMDL
MODEL       57
REMARK 921   NORMALIZED FREE ENERGY PREDICTED BY IDOCK:   -4.79 KCAL/MOL
REMARK 922        TOTAL FREE ENERGY PREDICTED BY IDOCK:   -6.82 KCAL/MOL
REMARK 923 INTER-LIGAND FREE ENERGY PREDICTED BY IDOCK:   -6.26 KCAL/MOL
REMARK 924 INTRA-LIGAND FREE ENERGY PREDICTED BY IDOCK:   -0.56 KCAL/MOL
REMARK 927      BINDING AFFINITY PREDICTED BY RF-SCORE:    0.00 PKD
ROOT
HETATM    1  C   UNL     1      -6.021  11.454  66.883  1.00  0.00    -0.122 C  
HETATM    2  C   UNL     1      -7.035  12.486  67.309  1.00  0.00    -0.112 C  
ENDROOT
BRANCH   2   3
HETATM    3  O   UNL     1      -6.413  13.776  67.322  1.00  0.00    -0.281 OA 
BRANCH   3   4
HETATM    4  C   UNL     1      -7.324  14.713  67.894  1.00  0.00    -0.154 C  
BRANCH   4   5
HETATM    5  C   UNL     1      -8.488  15.022  66.977  1.00  0.00    -0.229 C  
BRANCH   5   6
HETATM    6  N   UNL     1      -9.375  16.103  67.375  1.00  0.00    -0.216 NA 
HETATM    7  C   UNL     1     -10.704  15.942  67.793  1.00  0.00    -0.320 A  
HETATM    8  N   UNL     1     -11.264  17.127  67.951  1.00  0.00    -0.085 NA 
HETATM    9  C   UNL     1      -9.108  17.466  67.303  1.00  0.00    -0.237 A  
HETATM   10  C   UNL     1      -7.992  18.257  66.951  1.00  0.00    -0.251 A  
HETATM   11  C   UNL     1     -10.306  18.064  67.674  1.00  0.00    -0.388 A  
HETATM   12  C   UNL     1      -8.095  19.646  66.980  1.00  0.00    -0.315 A  
HETATM   13  C   UNL     1     -10.402  19.470  67.698  1.00  0.00    -0.574 A  
HETATM   14  C   UNL     1      -9.289  20.252  67.356  1.00  0.00    -0.531 A  
BRANCH   7  15
HETATM   15  N   UNL     1     -11.362  14.741  67.895  1.00  0.00    -0.303 NA 
HETATM   16  N   UNL     1     -11.433  11.736  66.424  1.00  0.00    -0.435 NA 
HETATM   17  C   UNL     1     -10.382  12.506  68.618  1.00  0.00    -0.193 C  
HETATM   18  C   UNL     1     -11.315  13.133  65.977  1.00  0.00    -0.308 C  
HETATM   19  C   UNL     1     -11.006  13.851  69.015  1.00  0.00    -0.250 C  
HETATM   20  C   UNL     1     -10.452  10.909  65.722  1.00  0.00    -0.210 C  
HETATM   21  C   UNL     1     -12.134  14.137  66.806  1.00  0.00    -0.442 C  
HETATM   22  C   UNL     1     -11.348  11.570  67.880  1.00  0.00    -0.303 C  
ENDBRANCH   7  15
ENDBRANCH   5   6
ENDBRANCH   4   5
ENDBRANCH   3   4
ENDBRANCH   2   3
TORSDOF 5
ENDMDL
MODEL       58
REMARK 921   NORMALIZED FREE ENERGY PREDICTED BY IDOCK:   -4.78 KCAL/MOL
REMARK 922        TOTAL FREE ENERGY PREDICTED BY IDOCK:   -6.81 KCAL/MOL
REMARK 923 INTER-LIGAND FREE ENERGY PREDICTED BY IDOCK:   -6.51 KCAL/MOL
REMARK 924 INTRA-LIGAND FREE ENERGY PREDICTED BY IDOCK:   -0.30 KCAL/MOL
REMARK 927      BINDING AFFINITY PREDICTED BY RF-SCORE:    0.00 PKD
ROOT
HETATM    1  C   UNL     1     -13.313   9.500  71.998  1.00  0.00    -0.535 C  
HETATM    2  C   UNL     1     -13.025  10.901  71.518  1.00  0.00    -0.451 C  
ENDROOT
BRANCH   2   3
HETATM    3  O   UNL     1     -11.808  10.898  70.765  1.00  0.00    -0.333 OA 
BRANCH   3   4
HETATM    4  C   UNL     1     -12.122  11.113  69.390  1.00  0.00    -0.326 C  
BRANCH   4   5
HETATM    5  C   UNL     1     -10.943  11.648  68.605  1.00  0.00    -0.220 C  
BRANCH   5   6
HETATM    6  N   UNL     1     -10.884  11.311  67.192  1.00  0.00    -0.256 NA 
HETATM    7  C   UNL     1     -10.248  10.180  66.659  1.00  0.00    -0.224 A  
HETATM    8  N   UNL     1     -10.263  10.244  65.341  1.00  0.00    -0.281 NA 
HETATM    9  C   UNL     1     -11.333  12.092  66.132  1.00  0.00    -0.351 A  
HETATM   10  C   UNL     1     -12.019  13.320  66.005  1.00  0.00    -0.473 A  
HETATM   11  C   UNL     1     -10.931  11.390  65.002  1.00  0.00    -0.204 A  
HETATM   12  C   UNL     1     -12.298  13.826  64.737  1.00  0.00    -0.420 A  
HETATM   13  C   UNL     1     -11.215  11.911  63.723  1.00  0.00    -0.519 A  
HETATM   14  C   UNL     1     -11.904  13.127  63.601  1.00  0.00    -0.549 A  
BRANCH   7  15
HETATM   15  N   UNL     1      -9.597   9.219  67.393  1.00  0.00    -0.145 NA 
HETATM   16  N   UNL     1      -8.678   8.606  70.552  1.00  0.00    -0.149 NA 
HETATM   17  C   UNL     1     -10.603   7.682  69.154  1.00  0.00    -0.195 C  
HETATM   18  C   UNL     1      -8.714   9.781  69.667  1.00  0.00    -0.199 C  
HETATM   19  C   UNL     1     -10.311   7.961  67.673  1.00  0.00    -0.241 C  
HETATM   20  C   UNL     1      -9.209   8.963  71.867  1.00  0.00    -0.170 C  
HETATM   21  C   UNL     1      -8.396   9.477  68.193  1.00  0.00    -0.118 C  
HETATM   22  C   UNL     1      -9.345   7.424  69.994  1.00  0.00    -0.151 C  
ENDBRANCH   7  15
ENDBRANCH   5   6
ENDBRANCH   4   5
ENDBRANCH   3   4
ENDBRANCH   2   3
TORSDOF 5
ENDMDL
MODEL       59
REMARK 921   NORMALIZED FREE ENERGY PREDICTED BY IDOCK:   -4.76 KCAL/MOL
REMARK 922        TOTAL FREE ENERGY PREDICTED BY IDOCK:   -6.78 KCAL/MOL
REMARK 923 INTER-LIGAND FREE ENERGY PREDICTED BY IDOCK:   -6.26 KCAL/MOL
REMARK 924 INTRA-LIGAND FREE ENERGY PREDICTED BY IDOCK:   -0.52 KCAL/MOL
REMARK 927      BINDING AFFINITY PREDICTED BY RF-SCORE:    0.00 PKD
ROOT
HETATM    1  C   UNL     1      -7.286  10.885  66.695  1.00  0.00    -0.139 C  
HETATM    2  C   UNL     1      -8.542  11.696  66.891  1.00  0.00    -0.174 C  
ENDROOT
BRANCH   2   3
HETATM    3  O   UNL     1      -8.611  12.132  68.253  1.00  0.00    -0.173 OA 
BRANCH   3   4
HETATM    4  C   UNL     1      -8.112  13.467  68.329  1.00  0.00    -0.152 C  
BRANCH   4   5
HETATM    5  C   UNL     1      -8.507  14.301  67.128  1.00  0.00    -0.200 C  
BRANCH   5   6
HETATM    6  N   UNL     1      -9.057  15.620  67.393  1.00  0.00    -0.191 NA 
HETATM    7  C   UNL     1     -10.339  16.049  67.020  1.00  0.00    -0.292 A  
HETATM    8  N   UNL     1     -10.471  17.334  67.289  1.00  0.00    -0.335 NA 
HETATM    9  C   UNL     1      -8.384  16.705  67.945  1.00  0.00    -0.185 A  
HETATM   10  C   UNL     1      -7.098  16.924  68.487  1.00  0.00    -0.198 A  
HETATM   11  C   UNL     1      -9.300  17.746  67.865  1.00  0.00    -0.266 A  
HETATM   12  C   UNL     1      -6.750  18.192  68.949  1.00  0.00    -0.256 A  
HETATM   13  C   UNL     1      -8.940  19.027  68.332  1.00  0.00    -0.378 A  
HETATM   14  C   UNL     1      -7.665  19.238  68.878  1.00  0.00    -0.376 A  
BRANCH   7  15
HETATM   15  N   UNL     1     -11.268  15.283  66.358  1.00  0.00    -0.279 NA 
HETATM   16  N   UNL     1     -11.400  12.731  64.199  1.00  0.00    -0.363 NA 
HETATM   17  C   UNL     1     -11.770  12.815  66.722  1.00  0.00    -0.459 C  
HETATM   18  C   UNL     1     -10.573  13.936  64.366  1.00  0.00    -0.234 C  
HETATM   19  C   UNL     1     -12.011  14.275  67.133  1.00  0.00    -0.417 C  
HETATM   20  C   UNL     1     -10.544  11.581  63.908  1.00  0.00    -0.391 C  
HETATM   21  C   UNL     1     -11.335  15.161  64.899  1.00  0.00    -0.399 C  
HETATM   22  C   UNL     1     -12.304  12.471  65.326  1.00  0.00    -0.403 C  
ENDBRANCH   7  15
ENDBRANCH   5   6
ENDBRANCH   4   5
ENDBRANCH   3   4
ENDBRANCH   2   3
TORSDOF 5
ENDMDL
MODEL       60
REMARK 921   NORMALIZED FREE ENERGY PREDICTED BY IDOCK:   -4.75 KCAL/MOL
REMARK 922        TOTAL FREE ENERGY PREDICTED BY IDOCK:   -6.77 KCAL/MOL
REMARK 923 INTER-LIGAND FREE ENERGY PREDICTED BY IDOCK:   -6.58 KCAL/MOL
REMARK 924 INTRA-LIGAND FREE ENERGY PREDICTED BY IDOCK:   -0.19 KCAL/MOL
REMARK 927      BINDING AFFINITY PREDICTED BY RF-SCORE:    0.00 PKD
ROOT
HETATM    1  C   UNL     1      -9.702   8.842  68.534  1.00  0.00    -0.172 C  
HETATM    2  C   UNL     1      -9.552  10.322  68.785  1.00  0.00    -0.175 C  
ENDROOT
BRANCH   2   3
HETATM    3  O   UNL     1      -9.726  11.027  67.551  1.00  0.00    -0.170 OA 
BRANCH   3   4
HETATM    4  C   UNL     1     -10.746  12.008  67.728  1.00  0.00    -0.210 C  
BRANCH   4   5
HETATM    5  C   UNL     1     -10.266  13.204  68.524  1.00  0.00    -0.215 C  
BRANCH   5   6
HETATM    6  N   UNL     1     -11.277  13.987  69.214  1.00  0.00    -0.261 NA 
HETATM    7  C   UNL     1     -11.498  15.360  69.030  1.00  0.00    -0.337 A  
HETATM    8  N   UNL     1     -12.392  15.784  69.903  1.00  0.00    -0.276 NA 
HETATM    9  C   UNL     1     -12.107  13.551  70.242  1.00  0.00    -0.355 A  
HETATM   10  C   UNL     1     -12.347  12.319  70.889  1.00  0.00    -0.363 A  
HETATM   11  C   UNL     1     -12.785  14.698  70.637  1.00  0.00    -0.357 A  
HETATM   12  C   UNL     1     -13.274  12.255  71.928  1.00  0.00    -0.481 A  
HETATM   13  C   UNL     1     -13.719  14.625  71.690  1.00  0.00    -0.500 A  
HETATM   14  C   UNL     1     -13.961  13.398  72.325  1.00  0.00    -0.605 A  
BRANCH   7  15
HETATM   15  N   UNL     1     -10.798  16.165  68.165  1.00  0.00    -0.316 NA 
HETATM   16  N   UNL     1      -7.636  16.940  67.391  1.00  0.00    -0.155 NA 
HETATM   17  C   UNL     1      -9.328  15.427  66.224  1.00  0.00    -0.351 C  
HETATM   18  C   UNL     1      -8.395  16.689  68.626  1.00  0.00    -0.246 C  
HETATM   19  C   UNL     1     -10.730  15.763  66.749  1.00  0.00    -0.293 C  
HETATM   20  C   UNL     1      -6.359  16.230  67.443  1.00  0.00    -0.173 C  
HETATM   21  C   UNL     1      -9.847  17.194  68.595  1.00  0.00    -0.300 C  
HETATM   22  C   UNL     1      -8.384  16.635  66.165  1.00  0.00    -0.270 C  
ENDBRANCH   7  15
ENDBRANCH   5   6
ENDBRANCH   4   5
ENDBRANCH   3   4
ENDBRANCH   2   3
TORSDOF 5
ENDMDL
MODEL       61
REMARK 921   NORMALIZED FREE ENERGY PREDICTED BY IDOCK:   -4.74 KCAL/MOL
REMARK 922        TOTAL FREE ENERGY PREDICTED BY IDOCK:   -6.76 KCAL/MOL
REMARK 923 INTER-LIGAND FREE ENERGY PREDICTED BY IDOCK:   -6.25 KCAL/MOL
REMARK 924 INTRA-LIGAND FREE ENERGY PREDICTED BY IDOCK:   -0.51 KCAL/MOL
REMARK 927      BINDING AFFINITY PREDICTED BY RF-SCORE:    0.00 PKD
ROOT
HETATM    1  C   UNL     1      -5.254  15.217  70.669  1.00  0.00    -0.138 C  
HETATM    2  C   UNL     1      -6.272  14.425  69.887  1.00  0.00    -0.149 C  
ENDROOT
BRANCH   2   3
HETATM    3  O   UNL     1      -6.206  14.808  68.509  1.00  0.00    -0.080 OA 
BRANCH   3   4
HETATM    4  C   UNL     1      -7.404  14.384  67.862  1.00  0.00    -0.154 C  
BRANCH   4   5
HETATM    5  C   UNL     1      -8.497  15.430  67.925  1.00  0.00    -0.147 C  
BRANCH   5   6
HETATM    6  N   UNL     1      -9.376  15.538  66.772  1.00  0.00    -0.230 NA 
HETATM    7  C   UNL     1      -9.435  16.638  65.904  1.00  0.00    -0.183 A  
HETATM    8  N   UNL     1     -10.426  16.472  65.048  1.00  0.00    -0.655 NA 
HETATM    9  C   UNL     1     -10.374  14.643  66.401  1.00  0.00    -0.289 A  
HETATM   10  C   UNL     1     -10.826  13.388  66.868  1.00  0.00    -0.282 A  
HETATM   11  C   UNL     1     -10.998  15.260  65.324  1.00  0.00    -0.393 A  
HETATM   12  C   UNL     1     -11.903  12.766  66.239  1.00  0.00    -0.485 A  
HETATM   13  C   UNL     1     -12.088  14.625  64.696  1.00  0.00    -0.466 A  
HETATM   14  C   UNL     1     -12.529  13.376  65.156  1.00  0.00    -0.509 A  
BRANCH   7  15
HETATM   15  N   UNL     1      -8.666  17.771  66.008  1.00  0.00    -0.514 NA 
HETATM   16  N   UNL     1      -7.403  19.791  68.359  1.00  0.00    -0.313 NA 
HETATM   17  C   UNL     1      -6.314  17.953  66.963  1.00  0.00    -0.190 C  
HETATM   18  C   UNL     1      -8.675  19.084  68.140  1.00  0.00    -0.316 C  
HETATM   19  C   UNL     1      -7.219  17.650  65.760  1.00  0.00    -0.074 C  
HETATM   20  C   UNL     1      -6.974  19.615  69.746  1.00  0.00    -0.158 C  
HETATM   21  C   UNL     1      -9.112  19.002  66.667  1.00  0.00    -0.329 C  
HETATM   22  C   UNL     1      -6.348  19.420  67.408  1.00  0.00    -0.191 C  
ENDBRANCH   7  15
ENDBRANCH   5   6
ENDBRANCH   4   5
ENDBRANCH   3   4
ENDBRANCH   2   3
TORSDOF 5
ENDMDL
MODEL       62
REMARK 921   NORMALIZED FREE ENERGY PREDICTED BY IDOCK:   -4.74 KCAL/MOL
REMARK 922        TOTAL FREE ENERGY PREDICTED BY IDOCK:   -6.75 KCAL/MOL
REMARK 923 INTER-LIGAND FREE ENERGY PREDICTED BY IDOCK:   -5.92 KCAL/MOL
REMARK 924 INTRA-LIGAND FREE ENERGY PREDICTED BY IDOCK:   -0.84 KCAL/MOL
REMARK 927      BINDING AFFINITY PREDICTED BY RF-SCORE:    0.00 PKD
ROOT
HETATM    1  C   UNL     1     -13.261  12.557  71.760  1.00  0.00    -0.444 C  
HETATM    2  C   UNL     1     -13.331  11.062  71.951  1.00  0.00    -0.318 C  
ENDROOT
BRANCH   2   3
HETATM    3  O   UNL     1     -13.044  10.417  70.705  1.00  0.00    -0.385 OA 
BRANCH   3   4
HETATM    4  C   UNL     1     -11.876   9.615  70.867  1.00  0.00    -0.323 C  
BRANCH   4   5
HETATM    5  C   UNL     1     -10.673  10.193  70.151  1.00  0.00    -0.300 C  
BRANCH   5   6
HETATM    6  N   UNL     1     -10.768  10.330  68.707  1.00  0.00    -0.207 NA 
HETATM    7  C   UNL     1     -10.349   9.366  67.777  1.00  0.00    -0.238 A  
HETATM    8  N   UNL     1     -10.450   9.858  66.556  1.00  0.00    -0.181 NA 
HETATM    9  C   UNL     1     -11.170  11.460  68.004  1.00  0.00    -0.281 A  
HETATM   10  C   UNL     1     -11.672  12.735  68.348  1.00  0.00    -0.380 A  
HETATM   11  C   UNL     1     -10.961  11.122  66.673  1.00  0.00    -0.228 A  
HETATM   12  C   UNL     1     -11.963  13.656  67.343  1.00  0.00    -0.413 A  
HETATM   13  C   UNL     1     -11.256  12.061  65.663  1.00  0.00    -0.377 A  
HETATM   14  C   UNL     1     -11.762  13.322  66.008  1.00  0.00    -0.408 A  
BRANCH   7  15
HETATM   15  N   UNL     1      -9.798   8.149  68.093  1.00  0.00    -0.162 NA 
HETATM   16  N   UNL     1      -9.834   4.977  67.026  1.00  0.00    -0.168 NA 
HETATM   17  C   UNL     1      -8.102   6.828  66.731  1.00  0.00    -0.109 C  
HETATM   18  C   UNL     1     -10.826   6.051  67.194  1.00  0.00    -0.329 C  
HETATM   19  C   UNL     1      -8.379   7.928  67.765  1.00  0.00    -0.129 C  
HETATM   20  C   UNL     1     -10.024   4.328  65.730  1.00  0.00    -0.222 C  
HETATM   21  C   UNL     1     -10.585   6.955  68.415  1.00  0.00    -0.210 C  
HETATM   22  C   UNL     1      -8.447   5.416  67.222  1.00  0.00    -0.106 C  
ENDBRANCH   7  15
ENDBRANCH   5   6
ENDBRANCH   4   5
ENDBRANCH   3   4
ENDBRANCH   2   3
TORSDOF 5
ENDMDL
MODEL       63
REMARK 921   NORMALIZED FREE ENERGY PREDICTED BY IDOCK:   -4.73 KCAL/MOL
REMARK 922        TOTAL FREE ENERGY PREDICTED BY IDOCK:   -6.75 KCAL/MOL
REMARK 923 INTER-LIGAND FREE ENERGY PREDICTED BY IDOCK:   -6.26 KCAL/MOL
REMARK 924 INTRA-LIGAND FREE ENERGY PREDICTED BY IDOCK:   -0.49 KCAL/MOL
REMARK 927      BINDING AFFINITY PREDICTED BY RF-SCORE:    0.00 PKD
ROOT
HETATM    1  C   UNL     1      -6.049  13.586  68.360  1.00  0.00    -0.094 C  
HETATM    2  C   UNL     1      -7.490  13.212  68.114  1.00  0.00    -0.131 C  
ENDROOT
BRANCH   2   3
HETATM    3  O   UNL     1      -7.727  11.897  68.628  1.00  0.00    -0.129 OA 
BRANCH   3   4
HETATM    4  C   UNL     1      -8.336  11.112  67.603  1.00  0.00    -0.122 C  
BRANCH   4   5
HETATM    5  C   UNL     1      -9.825  10.940  67.815  1.00  0.00    -0.175 C  
BRANCH   5   6
HETATM    6  N   UNL     1     -10.696  11.945  67.229  1.00  0.00    -0.227 NA 
HETATM    7  C   UNL     1     -11.407  12.915  67.951  1.00  0.00    -0.294 A  
HETATM    8  N   UNL     1     -12.202  13.580  67.133  1.00  0.00    -0.332 NA 
HETATM    9  C   UNL     1     -11.065  12.047  65.892  1.00  0.00    -0.324 A  
HETATM   10  C   UNL     1     -10.725  11.372  64.698  1.00  0.00    -0.378 A  
HETATM   11  C   UNL     1     -11.997  13.077  65.877  1.00  0.00    -0.435 A  
HETATM   12  C   UNL     1     -11.327  11.748  63.499  1.00  0.00    -0.496 A  
HETATM   13  C   UNL     1     -12.603  13.449  64.659  1.00  0.00    -0.322 A  
HETATM   14  C   UNL     1     -12.256  12.782  63.475  1.00  0.00    -0.613 A  
BRANCH   7  15
HETATM   15  N   UNL     1     -11.378  13.066  69.316  1.00  0.00    -0.267 NA 
HETATM   16  N   UNL     1     -12.963  14.753  71.732  1.00  0.00    -0.315 NA 
HETATM   17  C   UNL     1     -13.148  12.320  70.985  1.00  0.00    -0.019 C  
HETATM   18  C   UNL     1     -12.490  15.045  70.370  1.00  0.00    -0.356 C  
HETATM   19  C   UNL     1     -11.913  11.970  70.143  1.00  0.00    -0.321 C  
HETATM   20  C   UNL     1     -14.318  15.274  71.906  1.00  0.00    -0.589 C  
HETATM   21  C   UNL     1     -11.171  14.350  69.992  1.00  0.00    -0.141 C  
HETATM   22  C   UNL     1     -12.869  13.335  72.100  1.00  0.00    -0.186 C  
ENDBRANCH   7  15
ENDBRANCH   5   6
ENDBRANCH   4   5
ENDBRANCH   3   4
ENDBRANCH   2   3
TORSDOF 5
ENDMDL
MODEL       64
REMARK 921   NORMALIZED FREE ENERGY PREDICTED BY IDOCK:   -4.73 KCAL/MOL
REMARK 922        TOTAL FREE ENERGY PREDICTED BY IDOCK:   -6.74 KCAL/MOL
REMARK 923 INTER-LIGAND FREE ENERGY PREDICTED BY IDOCK:   -6.19 KCAL/MOL
REMARK 924 INTRA-LIGAND FREE ENERGY PREDICTED BY IDOCK:   -0.55 KCAL/MOL
REMARK 927      BINDING AFFINITY PREDICTED BY RF-SCORE:    0.00 PKD
ROOT
HETATM    1  C   UNL     1      -7.543   8.425  67.288  1.00  0.00    -0.097 C  
HETATM    2  C   UNL     1      -8.787   8.330  68.135  1.00  0.00    -0.139 C  
ENDROOT
BRANCH   2   3
HETATM    3  O   UNL     1      -8.486   8.769  69.464  1.00  0.00    -0.123 OA 
BRANCH   3   4
HETATM    4  C   UNL     1      -9.250   9.942  69.739  1.00  0.00    -0.227 C  
BRANCH   4   5
HETATM    5  C   UNL     1     -10.739   9.707  69.600  1.00  0.00    -0.240 C  
BRANCH   5   6
HETATM    6  N   UNL     1     -11.600  10.312  70.603  1.00  0.00    -0.323 NA 
HETATM    7  C   UNL     1     -12.204   9.625  71.667  1.00  0.00    -0.402 A  
HETATM    8  N   UNL     1     -13.023  10.437  72.308  1.00  0.00    -0.292 NA 
HETATM    9  C   UNL     1     -12.062  11.624  70.620  1.00  0.00    -0.335 A  
HETATM   10  C   UNL     1     -11.846  12.778  69.835  1.00  0.00    -0.371 A  
HETATM   11  C   UNL     1     -12.939  11.659  71.697  1.00  0.00    -0.378 A  
HETATM   12  C   UNL     1     -12.516  13.960  70.147  1.00  0.00    -0.355 A  
HETATM   13  C   UNL     1     -13.614  12.857  72.004  1.00  0.00    -0.499 A  
HETATM   14  C   UNL     1     -13.391  14.004  71.227  1.00  0.00    -0.342 A  
BRANCH   7  15
HETATM   15  N   UNL     1     -12.066   8.283  71.923  1.00  0.00    -0.312 NA 
HETATM   16  N   UNL     1     -11.025   5.489  70.403  1.00  0.00    -0.207 NA 
HETATM   17  C   UNL     1      -9.895   6.974  72.143  1.00  0.00    -0.168 C  
HETATM   18  C   UNL     1     -11.803   6.678  70.020  1.00  0.00    -0.238 C  
HETATM   19  C   UNL     1     -10.963   7.857  72.802  1.00  0.00    -0.393 C  
HETATM   20  C   UNL     1     -10.042   5.186  69.364  1.00  0.00    -0.234 C  
HETATM   21  C   UNL     1     -12.710   7.230  71.132  1.00  0.00    -0.306 C  
HETATM   22  C   UNL     1     -10.407   5.588  71.731  1.00  0.00    -0.216 C  
ENDBRANCH   7  15
ENDBRANCH   5   6
ENDBRANCH   4   5
ENDBRANCH   3   4
ENDBRANCH   2   3
TORSDOF 5
ENDMDL
MODEL       65
REMARK 921   NORMALIZED FREE ENERGY PREDICTED BY IDOCK:   -4.72 KCAL/MOL
REMARK 922        TOTAL FREE ENERGY PREDICTED BY IDOCK:   -6.74 KCAL/MOL
REMARK 923 INTER-LIGAND FREE ENERGY PREDICTED BY IDOCK:   -6.08 KCAL/MOL
REMARK 924 INTRA-LIGAND FREE ENERGY PREDICTED BY IDOCK:   -0.65 KCAL/MOL
REMARK 927      BINDING AFFINITY PREDICTED BY RF-SCORE:    0.00 PKD
ROOT
HETATM    1  C   UNL     1     -13.927   8.949  71.768  1.00  0.00    -0.448 C  
HETATM    2  C   UNL     1     -12.782   9.932  71.739  1.00  0.00    -0.428 C  
ENDROOT
BRANCH   2   3
HETATM    3  O   UNL     1     -11.938   9.635  70.622  1.00  0.00    -0.272 OA 
BRANCH   3   4
HETATM    4  C   UNL     1     -11.511  10.863  70.035  1.00  0.00    -0.329 C  
BRANCH   4   5
HETATM    5  C   UNL     1     -11.955  11.001  68.594  1.00  0.00    -0.177 C  
BRANCH   5   6
HETATM    6  N   UNL     1     -10.939  10.823  67.570  1.00  0.00    -0.294 NA 
HETATM    7  C   UNL     1     -10.406  11.849  66.777  1.00  0.00    -0.209 A  
HETATM    8  N   UNL     1      -9.610  11.331  65.860  1.00  0.00    -0.213 NA 
HETATM    9  C   UNL     1     -10.413   9.616  67.123  1.00  0.00    -0.249 A  
HETATM   10  C   UNL     1     -10.555   8.258  67.487  1.00  0.00    -0.291 A  
HETATM   11  C   UNL     1      -9.589   9.978  66.064  1.00  0.00    -0.222 A  
HETATM   12  C   UNL     1      -9.859   7.278  66.780  1.00  0.00    -0.281 A  
HETATM   13  C   UNL     1      -8.891   8.981  65.354  1.00  0.00    -0.237 A  
HETATM   14  C   UNL     1      -9.028   7.634  65.723  1.00  0.00    -0.095 A  
BRANCH   7  15
HETATM   15  N   UNL     1     -10.758  13.175  66.856  1.00  0.00    -0.262 NA 
HETATM   16  N   UNL     1      -9.329  16.200  66.832  1.00  0.00    -0.219 NA 
HETATM   17  C   UNL     1     -10.589  14.925  65.016  1.00  0.00    -0.446 C  
HETATM   18  C   UNL     1      -9.022  14.887  67.420  1.00  0.00    -0.189 C  
HETATM   19  C   UNL     1     -11.389  13.794  65.677  1.00  0.00    -0.305 C  
HETATM   20  C   UNL     1      -8.122  16.765  66.229  1.00  0.00    -0.330 C  
HETATM   21  C   UNL     1     -10.255  14.093  67.882  1.00  0.00    -0.235 C  
HETATM   22  C   UNL     1     -10.454  16.179  65.889  1.00  0.00    -0.352 C  
ENDBRANCH   7  15
ENDBRANCH   5   6
ENDBRANCH   4   5
ENDBRANCH   3   4
ENDBRANCH   2   3
TORSDOF 5
ENDMDL
MODEL       66
REMARK 921   NORMALIZED FREE ENERGY PREDICTED BY IDOCK:   -4.71 KCAL/MOL
REMARK 922        TOTAL FREE ENERGY PREDICTED BY IDOCK:   -6.71 KCAL/MOL
REMARK 923 INTER-LIGAND FREE ENERGY PREDICTED BY IDOCK:   -5.99 KCAL/MOL
REMARK 924 INTRA-LIGAND FREE ENERGY PREDICTED BY IDOCK:   -0.72 KCAL/MOL
REMARK 927      BINDING AFFINITY PREDICTED BY RF-SCORE:    0.00 PKD
ROOT
HETATM    1  C   UNL     1      -9.698  11.430  63.470  1.00  0.00    -0.362 C  
HETATM    2  C   UNL     1      -9.754  10.375  64.547  1.00  0.00    -0.330 C  
ENDROOT
BRANCH   2   3
HETATM    3  O   UNL     1     -10.129  10.989  65.785  1.00  0.00    -0.233 OA 
BRANCH   3   4
HETATM    4  C   UNL     1     -10.726  12.253  65.503  1.00  0.00    -0.279 C  
BRANCH   4   5
HETATM    5  C   UNL     1     -11.821  12.608  66.487  1.00  0.00    -0.396 C  
BRANCH   5   6
HETATM    6  N   UNL     1     -11.411  13.228  67.736  1.00  0.00    -0.279 NA 
HETATM    7  C   UNL     1     -11.420  12.599  68.989  1.00  0.00    -0.303 A  
HETATM    8  N   UNL     1     -11.119  13.478  69.927  1.00  0.00     0.078 NA 
HETATM    9  C   UNL     1     -11.057  14.560  67.925  1.00  0.00    -0.279 A  
HETATM   10  C   UNL     1     -10.883  15.685  67.089  1.00  0.00    -0.297 A  
HETATM   11  C   UNL     1     -10.880  14.670  69.299  1.00  0.00    -0.258 A  
HETATM   12  C   UNL     1     -10.527  16.912  67.648  1.00  0.00    -0.332 A  
HETATM   13  C   UNL     1     -10.523  15.915  69.856  1.00  0.00    -0.311 A  
HETATM   14  C   UNL     1     -10.343  17.028  69.022  1.00  0.00    -0.330 A  
BRANCH   7  15
HETATM   15  N   UNL     1     -11.808  11.302  69.221  1.00  0.00    -0.329 NA 
HETATM   16  N   UNL     1     -10.910   8.660  71.068  1.00  0.00    -0.235 NA 
HETATM   17  C   UNL     1     -12.798  10.352  71.364  1.00  0.00    -0.556 C  
HETATM   18  C   UNL     1     -10.213   9.703  70.299  1.00  0.00    -0.277 C  
HETATM   19  C   UNL     1     -13.019  11.078  70.030  1.00  0.00     0.134 C  
HETATM   20  C   UNL     1     -10.258   8.483  72.365  1.00  0.00    -0.299 C  
HETATM   21  C   UNL     1     -10.939  10.140  69.016  1.00  0.00    -0.226 C  
HETATM   22  C   UNL     1     -12.353   8.892  71.207  1.00  0.00    -0.291 C  
ENDBRANCH   7  15
ENDBRANCH   5   6
ENDBRANCH   4   5
ENDBRANCH   3   4
ENDBRANCH   2   3
TORSDOF 5
ENDMDL
MODEL       67
REMARK 921   NORMALIZED FREE ENERGY PREDICTED BY IDOCK:   -4.67 KCAL/MOL
REMARK 922        TOTAL FREE ENERGY PREDICTED BY IDOCK:   -6.67 KCAL/MOL
REMARK 923 INTER-LIGAND FREE ENERGY PREDICTED BY IDOCK:   -6.14 KCAL/MOL
REMARK 924 INTRA-LIGAND FREE ENERGY PREDICTED BY IDOCK:   -0.53 KCAL/MOL
REMARK 927      BINDING AFFINITY PREDICTED BY RF-SCORE:    0.00 PKD
ROOT
HETATM    1  C   UNL     1     -12.405  10.965  70.677  1.00  0.00    -0.470 C  
HETATM    2  C   UNL     1     -11.297   9.946  70.771  1.00  0.00    -0.353 C  
ENDROOT
BRANCH   2   3
HETATM    3  O   UNL     1     -10.237  10.323  69.885  1.00  0.00    -0.246 OA 
BRANCH   3   4
HETATM    4  C   UNL     1     -10.796  11.047  68.790  1.00  0.00    -0.210 C  
BRANCH   4   5
HETATM    5  C   UNL     1      -9.833  12.068  68.221  1.00  0.00    -0.204 C  
BRANCH   5   6
HETATM    6  N   UNL     1      -9.996  12.420  66.820  1.00  0.00    -0.221 NA 
HETATM    7  C   UNL     1     -10.506  13.638  66.349  1.00  0.00    -0.288 A  
HETATM    8  N   UNL     1     -10.645  13.581  65.038  1.00  0.00    -0.350 NA 
HETATM    9  C   UNL     1      -9.790  11.587  65.725  1.00  0.00    -0.234 A  
HETATM   10  C   UNL     1      -9.317  10.269  65.536  1.00  0.00    -0.250 A  
HETATM   11  C   UNL     1     -10.202  12.349  64.639  1.00  0.00    -0.287 A  
HETATM   12  C   UNL     1      -9.260   9.735  64.250  1.00  0.00    -0.286 A  
HETATM   13  C   UNL     1     -10.143  11.800  63.342  1.00  0.00    -0.470 A  
HETATM   14  C   UNL     1      -9.665  10.494  63.158  1.00  0.00    -0.351 A  
BRANCH   7  15
HETATM   15  N   UNL     1     -10.918  14.682  67.140  1.00  0.00    -0.307 NA 
HETATM   16  N   UNL     1     -12.206  15.228  70.180  1.00  0.00    -0.349 NA 
HETATM   17  C   UNL     1      -9.832  15.510  69.287  1.00  0.00    -0.270 C  
HETATM   18  C   UNL     1     -12.399  14.238  69.108  1.00  0.00    -0.130 C  
HETATM   19  C   UNL     1      -9.885  15.535  67.754  1.00  0.00    -0.213 C  
HETATM   20  C   UNL     1     -12.123  14.547  71.472  1.00  0.00    -0.331 C  
HETATM   21  C   UNL     1     -12.273  14.808  67.686  1.00  0.00     0.043 C  
HETATM   22  C   UNL     1     -11.066  16.125  69.959  1.00  0.00    -0.363 C  
ENDBRANCH   7  15
ENDBRANCH   5   6
ENDBRANCH   4   5
ENDBRANCH   3   4
ENDBRANCH   2   3
TORSDOF 5
ENDMDL
MODEL       68
REMARK 921   NORMALIZED FREE ENERGY PREDICTED BY IDOCK:   -4.65 KCAL/MOL
REMARK 922        TOTAL FREE ENERGY PREDICTED BY IDOCK:   -6.64 KCAL/MOL
REMARK 923 INTER-LIGAND FREE ENERGY PREDICTED BY IDOCK:   -5.78 KCAL/MOL
REMARK 924 INTRA-LIGAND FREE ENERGY PREDICTED BY IDOCK:   -0.86 KCAL/MOL
REMARK 927      BINDING AFFINITY PREDICTED BY RF-SCORE:    0.00 PKD
ROOT
HETATM    1  C   UNL     1      -9.591  16.884  68.336  1.00  0.00    -0.255 C  
HETATM    2  C   UNL     1      -8.461  15.957  68.710  1.00  0.00    -0.204 C  
ENDROOT
BRANCH   2   3
HETATM    3  O   UNL     1      -8.969  14.625  68.834  1.00  0.00    -0.181 OA 
BRANCH   3   4
HETATM    4  C   UNL     1      -7.916  13.708  68.542  1.00  0.00    -0.127 C  
BRANCH   4   5
HETATM    5  C   UNL     1      -8.173  12.916  67.277  1.00  0.00    -0.176 C  
BRANCH   5   6
HETATM    6  N   UNL     1      -9.560  12.630  66.948  1.00  0.00    -0.225 NA 
HETATM    7  C   UNL     1     -10.252  11.467  67.317  1.00  0.00    -0.199 A  
HETATM    8  N   UNL     1     -11.442  11.462  66.747  1.00  0.00    -0.436 NA 
HETATM    9  C   UNL     1     -10.392  13.384  66.128  1.00  0.00    -0.295 A  
HETATM   10  C   UNL     1     -10.286  14.616  65.445  1.00  0.00    -0.406 A  
HETATM   11  C   UNL     1     -11.552  12.625  66.034  1.00  0.00    -0.393 A  
HETATM   12  C   UNL     1     -11.356  15.072  64.675  1.00  0.00    -0.357 A  
HETATM   13  C   UNL     1     -12.627  13.092  65.252  1.00  0.00    -0.531 A  
HETATM   14  C   UNL     1     -12.522  14.320  64.581  1.00  0.00    -0.371 A  
BRANCH   7  15
HETATM   15  N   UNL     1      -9.725  10.432  68.050  1.00  0.00    -0.149 NA 
HETATM   16  N   UNL     1     -10.663   8.217  70.377  1.00  0.00    -0.229 NA 
HETATM   17  C   UNL     1     -10.306   7.961  67.863  1.00  0.00    -0.281 C  
HETATM   18  C   UNL     1     -10.910   9.643  70.110  1.00  0.00    -0.280 C  
HETATM   19  C   UNL     1      -9.478   9.153  67.362  1.00  0.00    -0.143 C  
HETATM   20  C   UNL     1     -11.921   7.555  70.722  1.00  0.00    -0.197 C  
HETATM   21  C   UNL     1      -9.708  10.396  69.516  1.00  0.00    -0.170 C  
HETATM   22  C   UNL     1      -9.959   7.524  69.292  1.00  0.00    -0.179 C  
ENDBRANCH   7  15
ENDBRANCH   5   6
ENDBRANCH   4   5
ENDBRANCH   3   4
ENDBRANCH   2   3
TORSDOF 5
ENDMDL
MODEL       69
REMARK 921   NORMALIZED FREE ENERGY PREDICTED BY IDOCK:   -4.64 KCAL/MOL
REMARK 922        TOTAL FREE ENERGY PREDICTED BY IDOCK:   -6.63 KCAL/MOL
REMARK 923 INTER-LIGAND FREE ENERGY PREDICTED BY IDOCK:   -6.04 KCAL/MOL
REMARK 924 INTRA-LIGAND FREE ENERGY PREDICTED BY IDOCK:   -0.59 KCAL/MOL
REMARK 927      BINDING AFFINITY PREDICTED BY RF-SCORE:    0.00 PKD
ROOT
HETATM    1  C   UNL     1      -5.546  15.316  68.206  1.00  0.00    -0.122 C  
HETATM    2  C   UNL     1      -5.434  16.574  67.380  1.00  0.00    -0.145 C  
ENDROOT
BRANCH   2   3
HETATM    3  O   UNL     1      -6.590  16.690  66.544  1.00  0.00    -0.229 OA 
BRANCH   3   4
HETATM    4  C   UNL     1      -7.537  15.698  66.937  1.00  0.00    -0.166 C  
BRANCH   4   5
HETATM    5  C   UNL     1      -8.943  16.027  66.480  1.00  0.00    -0.292 C  
BRANCH   5   6
HETATM    6  N   UNL     1     -10.021  15.762  67.417  1.00  0.00    -0.235 NA 
HETATM    7  C   UNL     1     -10.698  16.736  68.165  1.00  0.00    -0.361 A  
HETATM    8  N   UNL     1     -11.522  16.150  69.012  1.00  0.00    -0.345 NA 
HETATM    9  C   UNL     1     -10.485  14.513  67.818  1.00  0.00    -0.242 A  
HETATM   10  C   UNL     1     -10.206  13.174  67.466  1.00  0.00    -0.225 A  
HETATM   11  C   UNL     1     -11.418  14.801  68.806  1.00  0.00    -0.301 A  
HETATM   12  C   UNL     1     -10.876  12.136  68.112  1.00  0.00    -0.256 A  
HETATM   13  C   UNL     1     -12.090  13.746  69.456  1.00  0.00    -0.386 A  
HETATM   14  C   UNL     1     -11.816  12.417  69.098  1.00  0.00    -0.352 A  
BRANCH   7  15
HETATM   15  N   UNL     1     -10.448  18.086  68.116  1.00  0.00    -0.378 NA 
HETATM   16  N   UNL     1      -7.865  20.195  67.833  1.00  0.00    -0.275 NA 
HETATM   17  C   UNL     1      -9.597  19.423  66.125  1.00  0.00    -0.384 C  
HETATM   18  C   UNL     1      -8.133  18.935  68.545  1.00  0.00    -0.348 C  
HETATM   19  C   UNL     1     -10.785  18.807  66.876  1.00  0.00    -0.337 C  
HETATM   20  C   UNL     1      -6.549  20.133  67.198  1.00  0.00    -0.211 C  
HETATM   21  C   UNL     1      -9.574  18.789  69.060  1.00  0.00    -0.248 C  
HETATM   22  C   UNL     1      -8.916  20.571  66.880  1.00  0.00    -0.205 C  
ENDBRANCH   7  15
ENDBRANCH   5   6
ENDBRANCH   4   5
ENDBRANCH   3   4
ENDBRANCH   2   3
TORSDOF 5
ENDMDL
MODEL       70
REMARK 921   NORMALIZED FREE ENERGY PREDICTED BY IDOCK:   -4.61 KCAL/MOL
REMARK 922        TOTAL FREE ENERGY PREDICTED BY IDOCK:   -6.60 KCAL/MOL
REMARK 923 INTER-LIGAND FREE ENERGY PREDICTED BY IDOCK:   -6.09 KCAL/MOL
REMARK 924 INTRA-LIGAND FREE ENERGY PREDICTED BY IDOCK:   -0.50 KCAL/MOL
REMARK 927      BINDING AFFINITY PREDICTED BY RF-SCORE:    0.00 PKD
ROOT
HETATM    1  C   UNL     1      -5.453  15.873  68.457  1.00  0.00    -0.101 C  
HETATM    2  C   UNL     1      -5.684  14.998  69.664  1.00  0.00    -0.105 C  
ENDROOT
BRANCH   2   3
HETATM    3  O   UNL     1      -7.093  14.851  69.874  1.00  0.00    -0.180 OA 
BRANCH   3   4
HETATM    4  C   UNL     1      -7.752  14.940  68.612  1.00  0.00    -0.127 C  
BRANCH   4   5
HETATM    5  C   UNL     1      -9.228  15.245  68.751  1.00  0.00    -0.203 C  
BRANCH   5   6
HETATM    6  N   UNL     1      -9.810  16.152  67.775  1.00  0.00    -0.230 NA 
HETATM    7  C   UNL     1     -10.585  15.761  66.674  1.00  0.00    -0.307 A  
HETATM    8  N   UNL     1     -10.842  16.812  65.918  1.00  0.00    -0.135 NA 
HETATM    9  C   UNL     1      -9.610  17.526  67.694  1.00  0.00    -0.266 A  
HETATM   10  C   UNL     1      -8.929  18.492  68.468  1.00  0.00    -0.348 A  
HETATM   11  C   UNL     1     -10.271  17.895  66.530  1.00  0.00    -0.379 A  
HETATM   12  C   UNL     1      -8.927  19.825  68.060  1.00  0.00    -0.376 A  
HETATM   13  C   UNL     1     -10.261  19.245  66.123  1.00  0.00    -0.549 A  
HETATM   14  C   UNL     1      -9.592  20.203  66.899  1.00  0.00    -0.564 A  
BRANCH   7  15
HETATM   15  N   UNL     1     -10.916  14.465  66.359  1.00  0.00    -0.314 NA 
HETATM   16  N   UNL     1      -9.758  11.356  66.796  1.00  0.00    -0.195 NA 
HETATM   17  C   UNL     1     -11.638  12.627  67.964  1.00  0.00    -0.394 C  
HETATM   18  C   UNL     1      -9.175  12.672  66.491  1.00  0.00    -0.200 C  
HETATM   19  C   UNL     1     -12.023  13.836  67.100  1.00  0.00    -0.405 C  
HETATM   20  C   UNL     1      -8.960  10.689  67.824  1.00  0.00    -0.140 C  
HETATM   21  C   UNL     1     -10.050  13.564  65.594  1.00  0.00    -0.278 C  
HETATM   22  C   UNL     1     -11.181  11.408  67.154  1.00  0.00    -0.296 C  
ENDBRANCH   7  15
ENDBRANCH   5   6
ENDBRANCH   4   5
ENDBRANCH   3   4
ENDBRANCH   2   3
TORSDOF 5
ENDMDL
MODEL       71
REMARK 921   NORMALIZED FREE ENERGY PREDICTED BY IDOCK:   -4.60 KCAL/MOL
REMARK 922        TOTAL FREE ENERGY PREDICTED BY IDOCK:   -6.58 KCAL/MOL
REMARK 923 INTER-LIGAND FREE ENERGY PREDICTED BY IDOCK:   -6.15 KCAL/MOL
REMARK 924 INTRA-LIGAND FREE ENERGY PREDICTED BY IDOCK:   -0.43 KCAL/MOL
REMARK 927      BINDING AFFINITY PREDICTED BY RF-SCORE:    0.00 PKD
ROOT
HETATM    1  C   UNL     1     -13.464  14.908  71.303  1.00  0.00    -0.500 C  
HETATM    2  C   UNL     1     -12.232  14.139  70.895  1.00  0.00    -0.363 C  
ENDROOT
BRANCH   2   3
HETATM    3  O   UNL     1     -12.468  13.513  69.629  1.00  0.00    -0.218 OA 
BRANCH   3   4
HETATM    4  C   UNL     1     -11.420  12.576  69.384  1.00  0.00    -0.263 C  
BRANCH   4   5
HETATM    5  C   UNL     1     -11.885  11.392  68.562  1.00  0.00    -0.294 C  
BRANCH   5   6
HETATM    6  N   UNL     1     -11.446  11.337  67.177  1.00  0.00    -0.490 NA 
HETATM    7  C   UNL     1     -10.513  10.425  66.663  1.00  0.00    -0.215 A  
HETATM    8  N   UNL     1     -10.239  10.731  65.409  1.00  0.00    -0.277 NA 
HETATM    9  C   UNL     1     -11.775  12.232  66.165  1.00  0.00    -0.376 A  
HETATM   10  C   UNL     1     -12.625  13.354  66.049  1.00  0.00    -0.361 A  
HETATM   11  C   UNL     1     -11.008  11.816  65.084  1.00  0.00    -0.294 A  
HETATM   12  C   UNL     1     -12.695  14.045  64.840  1.00  0.00    -0.303 A  
HETATM   13  C   UNL     1     -11.082  12.522  63.866  1.00  0.00    -0.476 A  
HETATM   14  C   UNL     1     -11.934  13.631  63.752  1.00  0.00    -0.425 A  
BRANCH   7  15
HETATM   15  N   UNL     1      -9.882   9.444  67.389  1.00  0.00    -0.162 NA 
HETATM   16  N   UNL     1      -9.159   8.687  70.568  1.00  0.00    -0.154 NA 
HETATM   17  C   UNL     1     -10.956   7.787  68.995  1.00  0.00     0.056 C  
HETATM   18  C   UNL     1      -9.172   9.906  69.745  1.00  0.00    -0.227 C  
HETATM   19  C   UNL     1     -10.575   8.154  67.554  1.00  0.00    -0.221 C  
HETATM   20  C   UNL     1      -9.788   8.957  71.860  1.00  0.00    -0.294 C  
HETATM   21  C   UNL     1      -8.747   9.691  68.282  1.00  0.00    -0.120 C  
HETATM   22  C   UNL     1      -9.751   7.518  69.905  1.00  0.00    -0.171 C  
ENDBRANCH   7  15
ENDBRANCH   5   6
ENDBRANCH   4   5
ENDBRANCH   3   4
ENDBRANCH   2   3
TORSDOF 5
ENDMDL
MODEL       72
REMARK 921   NORMALIZED FREE ENERGY PREDICTED BY IDOCK:   -4.60 KCAL/MOL
REMARK 922        TOTAL FREE ENERGY PREDICTED BY IDOCK:   -6.58 KCAL/MOL
REMARK 923 INTER-LIGAND FREE ENERGY PREDICTED BY IDOCK:   -5.90 KCAL/MOL
REMARK 924 INTRA-LIGAND FREE ENERGY PREDICTED BY IDOCK:   -0.68 KCAL/MOL
REMARK 927      BINDING AFFINITY PREDICTED BY RF-SCORE:    0.00 PKD
ROOT
HETATM    1  C   UNL     1     -12.477  15.277  71.478  1.00  0.00    -0.430 C  
HETATM    2  C   UNL     1     -11.663  15.643  70.262  1.00  0.00    -0.357 C  
ENDROOT
BRANCH   2   3
HETATM    3  O   UNL     1     -12.126  14.882  69.141  1.00  0.00    -0.291 OA 
BRANCH   3   4
HETATM    4  C   UNL     1     -11.270  13.754  68.973  1.00  0.00    -0.272 C  
BRANCH   4   5
HETATM    5  C   UNL     1     -12.007  12.544  68.438  1.00  0.00    -0.221 C  
BRANCH   5   6
HETATM    6  N   UNL     1     -11.382  11.821  67.343  1.00  0.00    -0.322 NA 
HETATM    7  C   UNL     1     -10.471  10.765  67.489  1.00  0.00    -0.220 A  
HETATM    8  N   UNL     1      -9.996  10.424  66.306  1.00  0.00    -0.216 NA 
HETATM    9  C   UNL     1     -11.483  12.118  65.988  1.00  0.00    -0.370 A  
HETATM   10  C   UNL     1     -12.204  13.052  65.211  1.00  0.00    -0.513 A  
HETATM   11  C   UNL     1     -10.610  11.223  65.381  1.00  0.00    -0.250 A  
HETATM   12  C   UNL     1     -12.038  13.073  63.827  1.00  0.00    -0.574 A  
HETATM   13  C   UNL     1     -10.447  11.252  63.981  1.00  0.00    -0.440 A  
HETATM   14  C   UNL     1     -11.171  12.177  63.212  1.00  0.00    -0.409 A  
BRANCH   7  15
HETATM   15  N   UNL     1     -10.041  10.251  68.688  1.00  0.00    -0.166 NA 
HETATM   16  N   UNL     1      -8.512   7.532  69.899  1.00  0.00    -0.137 NA 
HETATM   17  C   UNL     1      -7.635   9.883  69.431  1.00  0.00    -0.113 C  
HETATM   18  C   UNL     1      -9.540   7.806  68.882  1.00  0.00    -0.154 C  
HETATM   19  C   UNL     1      -8.832  10.834  69.296  1.00  0.00    -0.023 C  
HETATM   20  C   UNL     1      -7.539   6.576  69.371  1.00  0.00    -0.096 C  
HETATM   21  C   UNL     1     -10.488   8.966  69.233  1.00  0.00    -0.224 C  
HETATM   22  C   UNL     1      -7.864   8.739  70.427  1.00  0.00    -0.098 C  
ENDBRANCH   7  15
ENDBRANCH   5   6
ENDBRANCH   4   5
ENDBRANCH   3   4
ENDBRANCH   2   3
TORSDOF 5
ENDMDL
MODEL       73
REMARK 921   NORMALIZED FREE ENERGY PREDICTED BY IDOCK:   -4.59 KCAL/MOL
REMARK 922        TOTAL FREE ENERGY PREDICTED BY IDOCK:   -6.57 KCAL/MOL
REMARK 923 INTER-LIGAND FREE ENERGY PREDICTED BY IDOCK:   -6.20 KCAL/MOL
REMARK 924 INTRA-LIGAND FREE ENERGY PREDICTED BY IDOCK:   -0.37 KCAL/MOL
REMARK 927      BINDING AFFINITY PREDICTED BY RF-SCORE:    0.00 PKD
ROOT
HETATM    1  C   UNL     1     -13.445   9.201  71.886  1.00  0.00    -0.492 C  
HETATM    2  C   UNL     1     -13.157  10.666  71.672  1.00  0.00    -0.450 C  
ENDROOT
BRANCH   2   3
HETATM    3  O   UNL     1     -11.980  10.801  70.868  1.00  0.00    -0.326 OA 
BRANCH   3   4
HETATM    4  C   UNL     1     -12.376  11.051  69.521  1.00  0.00    -0.197 C  
BRANCH   4   5
HETATM    5  C   UNL     1     -11.357  11.875  68.762  1.00  0.00    -0.274 C  
BRANCH   5   6
HETATM    6  N   UNL     1     -11.133  11.530  67.368  1.00  0.00    -0.264 NA 
HETATM    7  C   UNL     1     -10.350  10.456  66.920  1.00  0.00    -0.240 A  
HETATM    8  N   UNL     1     -10.246  10.504  65.605  1.00  0.00    -0.262 NA 
HETATM    9  C   UNL     1     -11.549  12.254  66.256  1.00  0.00    -0.385 A  
HETATM   10  C   UNL     1     -12.329  13.412  66.041  1.00  0.00    -0.471 A  
HETATM   11  C   UNL     1     -10.979  11.580  65.183  1.00  0.00    -0.234 A  
HETATM   12  C   UNL     1     -12.530  13.876  64.742  1.00  0.00    -0.386 A  
HETATM   13  C   UNL     1     -11.186  12.058  63.873  1.00  0.00    -0.490 A  
HETATM   14  C   UNL     1     -11.968  13.203  63.663  1.00  0.00    -0.580 A  
BRANCH   7  15
HETATM   15  N   UNL     1      -9.687   9.568  67.731  1.00  0.00    -0.143 NA 
HETATM   16  N   UNL     1      -9.381   6.267  68.187  1.00  0.00    -0.116 NA 
HETATM   17  C   UNL     1      -7.836   7.956  67.057  1.00  0.00    -0.108 C  
HETATM   18  C   UNL     1     -10.479   7.198  67.883  1.00  0.00    -0.212 C  
HETATM   19  C   UNL     1      -8.245   9.367  67.501  1.00  0.00    -0.117 C  
HETATM   20  C   UNL     1      -9.475   5.093  67.319  1.00  0.00    -0.131 C  
HETATM   21  C   UNL     1     -10.357   8.569  68.569  1.00  0.00    -0.198 C  
HETATM   22  C   UNL     1      -8.049   6.883  68.133  1.00  0.00    -0.119 C  
ENDBRANCH   7  15
ENDBRANCH   5   6
ENDBRANCH   4   5
ENDBRANCH   3   4
ENDBRANCH   2   3
TORSDOF 5
ENDMDL
MODEL       74
REMARK 921   NORMALIZED FREE ENERGY PREDICTED BY IDOCK:   -4.59 KCAL/MOL
REMARK 922        TOTAL FREE ENERGY PREDICTED BY IDOCK:   -6.57 KCAL/MOL
REMARK 923 INTER-LIGAND FREE ENERGY PREDICTED BY IDOCK:   -5.93 KCAL/MOL
REMARK 924 INTRA-LIGAND FREE ENERGY PREDICTED BY IDOCK:   -0.64 KCAL/MOL
REMARK 927      BINDING AFFINITY PREDICTED BY RF-SCORE:    0.00 PKD
ROOT
HETATM    1  C   UNL     1      -5.740  11.863  67.099  1.00  0.00    -0.139 C  
HETATM    2  C   UNL     1      -7.193  11.500  66.920  1.00  0.00    -0.137 C  
ENDROOT
BRANCH   2   3
HETATM    3  O   UNL     1      -7.392  10.144  67.333  1.00  0.00    -0.088 OA 
BRANCH   3   4
HETATM    4  C   UNL     1      -8.757   9.980  67.713  1.00  0.00    -0.125 C  
BRANCH   4   5
HETATM    5  C   UNL     1      -9.171  10.940  68.809  1.00  0.00    -0.183 C  
BRANCH   5   6
HETATM    6  N   UNL     1     -10.413  10.651  69.506  1.00  0.00    -0.223 NA 
HETATM    7  C   UNL     1     -11.627  11.322  69.302  1.00  0.00    -0.322 A  
HETATM    8  N   UNL     1     -12.515  10.908  70.186  1.00  0.00    -0.308 NA 
HETATM    9  C   UNL     1     -10.586   9.758  70.559  1.00  0.00    -0.312 A  
HETATM   10  C   UNL     1      -9.768   8.825  71.234  1.00  0.00    -0.335 A  
HETATM   11  C   UNL     1     -11.906   9.947  70.947  1.00  0.00    -0.356 A  
HETATM   12  C   UNL     1     -10.293   8.087  72.293  1.00  0.00    -0.336 A  
HETATM   13  C   UNL     1     -12.429   9.198  72.021  1.00  0.00    -0.452 A  
HETATM   14  C   UNL     1     -11.616   8.267  72.684  1.00  0.00    -0.419 A  
BRANCH   7  15
HETATM   15  N   UNL     1     -11.825  12.345  68.407  1.00  0.00    -0.332 NA 
HETATM   16  N   UNL     1     -10.142  14.883  67.019  1.00  0.00    -0.242 NA 
HETATM   17  C   UNL     1     -10.787  12.593  66.097  1.00  0.00    -0.301 C  
HETATM   18  C   UNL     1     -10.230  14.274  68.356  1.00  0.00    -0.245 C  
HETATM   19  C   UNL     1     -11.901  12.006  66.976  1.00  0.00    -0.176 C  
HETATM   20  C   UNL     1      -8.741  15.127  66.678  1.00  0.00    -0.272 C  
HETATM   21  C   UNL     1     -11.631  13.762  68.731  1.00  0.00    -0.328 C  
HETATM   22  C   UNL     1     -10.836  14.121  65.974  1.00  0.00    -0.297 C  
ENDBRANCH   7  15
ENDBRANCH   5   6
ENDBRANCH   4   5
ENDBRANCH   3   4
ENDBRANCH   2   3
TORSDOF 5
ENDMDL
MODEL       75
REMARK 921   NORMALIZED FREE ENERGY PREDICTED BY IDOCK:   -4.58 KCAL/MOL
REMARK 922        TOTAL FREE ENERGY PREDICTED BY IDOCK:   -6.55 KCAL/MOL
REMARK 923 INTER-LIGAND FREE ENERGY PREDICTED BY IDOCK:   -5.72 KCAL/MOL
REMARK 924 INTRA-LIGAND FREE ENERGY PREDICTED BY IDOCK:   -0.83 KCAL/MOL
REMARK 927      BINDING AFFINITY PREDICTED BY RF-SCORE:    0.00 PKD
ROOT
HETATM    1  C   UNL     1     -10.772   4.273  72.455  1.00  0.00    -0.129 C  
HETATM    2  C   UNL     1     -11.337   5.607  72.875  1.00  0.00    -0.273 C  
ENDROOT
BRANCH   2   3
HETATM    3  O   UNL     1     -10.295   6.587  72.847  1.00  0.00    -0.192 OA 
BRANCH   3   4
HETATM    4  C   UNL     1     -10.873   7.872  73.070  1.00  0.00    -0.342 C  
BRANCH   4   5
HETATM    5  C   UNL     1     -11.998   8.176  72.103  1.00  0.00    -0.359 C  
BRANCH   5   6
HETATM    6  N   UNL     1     -11.678   9.016  70.961  1.00  0.00    -0.288 NA 
HETATM    7  C   UNL     1     -10.906   8.618  69.859  1.00  0.00    -0.208 A  
HETATM    8  N   UNL     1     -10.696   9.655  69.070  1.00  0.00    -0.220 NA 
HETATM    9  C   UNL     1     -11.973  10.367  70.814  1.00  0.00    -0.363 A  
HETATM   10  C   UNL     1     -12.685  11.330  71.564  1.00  0.00    -0.481 A  
HETATM   11  C   UNL     1     -11.348  10.722  69.625  1.00  0.00    -0.294 A  
HETATM   12  C   UNL     1     -12.763  12.643  71.102  1.00  0.00    -0.347 A  
HETATM   13  C   UNL     1     -11.430  12.053  69.167  1.00  0.00    -0.357 A  
HETATM   14  C   UNL     1     -12.145  13.004  69.910  1.00  0.00    -0.347 A  
BRANCH   7  15
HETATM   15  N   UNL     1     -10.347   7.375  69.692  1.00  0.00    -0.217 NA 
HETATM   16  N   UNL     1      -9.707   5.170  67.257  1.00  0.00    -0.145 NA 
HETATM   17  C   UNL     1      -8.182   6.812  68.479  1.00  0.00    -0.120 C  
HETATM   18  C   UNL     1     -10.815   6.075  67.605  1.00  0.00    -0.295 C  
HETATM   19  C   UNL     1      -8.880   7.261  69.770  1.00  0.00    -0.142 C  
HETATM   20  C   UNL     1      -9.419   5.270  65.826  1.00  0.00    -0.117 C  
HETATM   21  C   UNL     1     -11.058   6.230  69.115  1.00  0.00    -0.390 C  
HETATM   22  C   UNL     1      -8.503   5.368  68.073  1.00  0.00    -0.097 C  
ENDBRANCH   7  15
ENDBRANCH   5   6
ENDBRANCH   4   5
ENDBRANCH   3   4
ENDBRANCH   2   3
TORSDOF 5
ENDMDL
MODEL       76
REMARK 921   NORMALIZED FREE ENERGY PREDICTED BY IDOCK:   -4.55 KCAL/MOL
REMARK 922        TOTAL FREE ENERGY PREDICTED BY IDOCK:   -6.51 KCAL/MOL
REMARK 923 INTER-LIGAND FREE ENERGY PREDICTED BY IDOCK:   -5.79 KCAL/MOL
REMARK 924 INTRA-LIGAND FREE ENERGY PREDICTED BY IDOCK:   -0.72 KCAL/MOL
REMARK 927      BINDING AFFINITY PREDICTED BY RF-SCORE:    0.00 PKD
ROOT
HETATM    1  C   UNL     1      -8.584  11.179  62.576  1.00  0.00    -0.273 C  
HETATM    2  C   UNL     1      -9.600  10.111  62.896  1.00  0.00    -0.174 C  
ENDROOT
BRANCH   2   3
HETATM    3  O   UNL     1     -10.493  10.600  63.902  1.00  0.00    -0.280 OA 
BRANCH   3   4
HETATM    4  C   UNL     1     -10.601  12.016  63.765  1.00  0.00    -0.430 C  
BRANCH   4   5
HETATM    5  C   UNL     1     -11.617  12.613  64.716  1.00  0.00    -0.331 C  
BRANCH   5   6
HETATM    6  N   UNL     1     -11.104  13.416  65.813  1.00  0.00    -0.282 NA 
HETATM    7  C   UNL     1     -10.825  12.936  67.101  1.00  0.00    -0.256 A  
HETATM    8  N   UNL     1     -10.503  13.946  67.889  1.00  0.00    -0.239 NA 
HETATM    9  C   UNL     1     -10.914  14.794  65.816  1.00  0.00    -0.334 A  
HETATM   10  C   UNL     1     -11.034  15.830  64.864  1.00  0.00    -0.443 A  
HETATM   11  C   UNL     1     -10.537  15.079  67.123  1.00  0.00    -0.295 A  
HETATM   12  C   UNL     1     -10.769  17.146  65.239  1.00  0.00    -0.067 A  
HETATM   13  C   UNL     1     -10.273  16.413  67.494  1.00  0.00    -0.273 A  
HETATM   14  C   UNL     1     -10.385  17.439  66.543  1.00  0.00    -0.312 A  
BRANCH   7  15
HETATM   15  N   UNL     1     -10.986  11.636  67.514  1.00  0.00    -0.242 NA 
HETATM   16  N   UNL     1      -9.426   9.338  69.380  1.00  0.00    -0.162 NA 
HETATM   17  C   UNL     1     -11.444  10.818  69.879  1.00  0.00    -0.398 C  
HETATM   18  C   UNL     1      -9.023  10.365  68.406  1.00  0.00    -0.137 C  
HETATM   19  C   UNL     1     -11.994  11.362  68.553  1.00  0.00    -0.225 C  
HETATM   20  C   UNL     1      -8.537   9.383  70.540  1.00  0.00    -0.223 C  
HETATM   21  C   UNL     1     -10.017  10.569  67.250  1.00  0.00    -0.186 C  
HETATM   22  C   UNL     1     -10.840   9.413  69.768  1.00  0.00    -0.232 C  
ENDBRANCH   7  15
ENDBRANCH   5   6
ENDBRANCH   4   5
ENDBRANCH   3   4
ENDBRANCH   2   3
TORSDOF 5
ENDMDL
MODEL       77
REMARK 921   NORMALIZED FREE ENERGY PREDICTED BY IDOCK:   -4.54 KCAL/MOL
REMARK 922        TOTAL FREE ENERGY PREDICTED BY IDOCK:   -6.49 KCAL/MOL
REMARK 923 INTER-LIGAND FREE ENERGY PREDICTED BY IDOCK:   -5.80 KCAL/MOL
REMARK 924 INTRA-LIGAND FREE ENERGY PREDICTED BY IDOCK:   -0.69 KCAL/MOL
REMARK 927      BINDING AFFINITY PREDICTED BY RF-SCORE:    0.00 PKD
ROOT
HETATM    1  C   UNL     1     -13.033  15.510  71.637  1.00  0.00    -0.540 C  
HETATM    2  C   UNL     1     -11.546  15.419  71.875  1.00  0.00    -0.442 C  
ENDROOT
BRANCH   2   3
HETATM    3  O   UNL     1     -10.873  15.346  70.614  1.00  0.00    -0.319 OA 
BRANCH   3   4
HETATM    4  C   UNL     1     -11.459  16.301  69.731  1.00  0.00    -0.202 C  
BRANCH   4   5
HETATM    5  C   UNL     1     -10.439  16.937  68.809  1.00  0.00    -0.343 C  
BRANCH   5   6
HETATM    6  N   UNL     1      -9.420  16.066  68.249  1.00  0.00    -0.204 NA 
HETATM    7  C   UNL     1      -9.661  15.019  67.347  1.00  0.00    -0.205 A  
HETATM    8  N   UNL     1      -8.544  14.345  67.144  1.00  0.00    -0.213 NA 
HETATM    9  C   UNL     1      -8.072  16.038  68.591  1.00  0.00    -0.187 A  
HETATM   10  C   UNL     1      -7.230  16.797  69.434  1.00  0.00    -0.105 A  
HETATM   11  C   UNL     1      -7.565  14.958  67.879  1.00  0.00    -0.136 A  
HETATM   12  C   UNL     1      -5.882  16.460  69.547  1.00  0.00    -0.170 A  
HETATM   13  C   UNL     1      -6.201  14.623  68.001  1.00  0.00    -0.165 A  
HETATM   14  C   UNL     1      -5.367  15.384  68.833  1.00  0.00    -0.099 A  
BRANCH   7  15
HETATM   15  N   UNL     1     -10.893  14.669  66.852  1.00  0.00    -0.299 NA 
HETATM   16  N   UNL     1     -12.251  13.311  64.112  1.00  0.00    -0.550 NA 
HETATM   17  C   UNL     1     -11.763  12.318  66.411  1.00  0.00    -0.431 C  
HETATM   18  C   UNL     1     -11.178  14.277  64.397  1.00  0.00    -0.249 C  
HETATM   19  C   UNL     1     -11.543  13.467  67.405  1.00  0.00    -0.356 C  
HETATM   20  C   UNL     1     -11.798  12.353  63.103  1.00  0.00    -0.246 C  
HETATM   21  C   UNL     1     -11.450  15.192  65.602  1.00  0.00    -0.192 C  
HETATM   22  C   UNL     1     -12.777  12.641  65.307  1.00  0.00    -0.153 C  
ENDBRANCH   7  15
ENDBRANCH   5   6
ENDBRANCH   4   5
ENDBRANCH   3   4
ENDBRANCH   2   3
TORSDOF 5
ENDMDL
MODEL       78
REMARK 921   NORMALIZED FREE ENERGY PREDICTED BY IDOCK:   -4.53 KCAL/MOL
REMARK 922        TOTAL FREE ENERGY PREDICTED BY IDOCK:   -6.49 KCAL/MOL
REMARK 923 INTER-LIGAND FREE ENERGY PREDICTED BY IDOCK:   -6.30 KCAL/MOL
REMARK 924 INTRA-LIGAND FREE ENERGY PREDICTED BY IDOCK:   -0.20 KCAL/MOL
REMARK 927      BINDING AFFINITY PREDICTED BY RF-SCORE:    0.00 PKD
ROOT
HETATM    1  C   UNL     1     -12.422  12.161  63.704  1.00  0.00    -0.658 C  
HETATM    2  C   UNL     1     -11.875  13.185  64.668  1.00  0.00    -0.370 C  
ENDROOT
BRANCH   2   3
HETATM    3  O   UNL     1     -11.442  12.522  65.861  1.00  0.00    -0.334 OA 
BRANCH   3   4
HETATM    4  C   UNL     1     -11.173  13.508  66.856  1.00  0.00    -0.311 C  
BRANCH   4   5
HETATM    5  C   UNL     1     -10.356  12.960  68.007  1.00  0.00    -0.227 C  
BRANCH   5   6
HETATM    6  N   UNL     1     -11.085  12.531  69.189  1.00  0.00    -0.227 NA 
HETATM    7  C   UNL     1     -11.125  11.218  69.680  1.00  0.00    -0.206 A  
HETATM    8  N   UNL     1     -11.979  11.147  70.683  1.00  0.00    -0.362 NA 
HETATM    9  C   UNL     1     -11.947  13.305  69.959  1.00  0.00    -0.329 A  
HETATM   10  C   UNL     1     -12.348  14.659  69.970  1.00  0.00    -0.365 A  
HETATM   11  C   UNL     1     -12.477  12.407  70.877  1.00  0.00    -0.274 A  
HETATM   12  C   UNL     1     -13.278  15.096  70.912  1.00  0.00    -0.488 A  
HETATM   13  C   UNL     1     -13.419  12.856  71.825  1.00  0.00    -0.369 A  
HETATM   14  C   UNL     1     -13.808  14.204  71.838  1.00  0.00    -0.539 A  
BRANCH   7  15
HETATM   15  N   UNL     1     -10.475  10.145  69.122  1.00  0.00    -0.207 NA 
HETATM   16  N   UNL     1      -9.298   9.133  66.157  1.00  0.00    -0.208 NA 
HETATM   17  C   UNL     1      -8.104  10.090  68.199  1.00  0.00    -0.108 C  
HETATM   18  C   UNL     1     -10.498   9.835  66.638  1.00  0.00    -0.163 C  
HETATM   19  C   UNL     1      -9.039   9.979  69.411  1.00  0.00    -0.215 C  
HETATM   20  C   UNL     1      -8.772   9.810  64.971  1.00  0.00    -0.174 C  
HETATM   21  C   UNL     1     -11.009   9.356  68.007  1.00  0.00    -0.059 C  
HETATM   22  C   UNL     1      -8.266   8.951  67.185  1.00  0.00    -0.103 C  
ENDBRANCH   7  15
ENDBRANCH   5   6
ENDBRANCH   4   5
ENDBRANCH   3   4
ENDBRANCH   2   3
TORSDOF 5
ENDMDL
MODEL       79
REMARK 921   NORMALIZED FREE ENERGY PREDICTED BY IDOCK:   -4.53 KCAL/MOL
REMARK 922        TOTAL FREE ENERGY PREDICTED BY IDOCK:   -6.48 KCAL/MOL
REMARK 923 INTER-LIGAND FREE ENERGY PREDICTED BY IDOCK:   -5.86 KCAL/MOL
REMARK 924 INTRA-LIGAND FREE ENERGY PREDICTED BY IDOCK:   -0.63 KCAL/MOL
REMARK 927      BINDING AFFINITY PREDICTED BY RF-SCORE:    0.00 PKD
ROOT
HETATM    1  C   UNL     1     -12.312  14.793  72.033  1.00  0.00    -0.416 C  
HETATM    2  C   UNL     1     -13.253  13.682  72.425  1.00  0.00    -0.484 C  
ENDROOT
BRANCH   2   3
HETATM    3  O   UNL     1     -13.351  12.747  71.345  1.00  0.00    -0.231 OA 
BRANCH   3   4
HETATM    4  C   UNL     1     -13.201  11.429  71.869  1.00  0.00    -0.380 C  
BRANCH   4   5
HETATM    5  C   UNL     1     -13.254  10.368  70.790  1.00  0.00    -0.196 C  
BRANCH   5   6
HETATM    6  N   UNL     1     -12.013  10.072  70.094  1.00  0.00    -0.181 NA 
HETATM    7  C   UNL     1     -11.187   8.969  70.355  1.00  0.00    -0.241 A  
HETATM    8  N   UNL     1     -10.079   9.069  69.644  1.00  0.00    -0.190 NA 
HETATM    9  C   UNL     1     -11.378  10.872  69.150  1.00  0.00    -0.283 A  
HETATM   10  C   UNL     1     -11.675  12.088  68.497  1.00  0.00    -0.387 A  
HETATM   11  C   UNL     1     -10.183  10.209  68.895  1.00  0.00    -0.199 A  
HETATM   12  C   UNL     1     -10.763  12.624  67.588  1.00  0.00    -0.239 A  
HETATM   13  C   UNL     1      -9.266  10.759  67.976  1.00  0.00    -0.150 A  
HETATM   14  C   UNL     1      -9.568  11.963  67.323  1.00  0.00    -0.181 A  
BRANCH   7  15
HETATM   15  N   UNL     1     -11.432   8.001  71.298  1.00  0.00    -0.264 NA 
HETATM   16  N   UNL     1     -10.228   5.042  72.293  1.00  0.00    -0.195 NA 
HETATM   17  C   UNL     1      -9.965   7.379  73.282  1.00  0.00    -0.341 C  
HETATM   18  C   UNL     1     -10.471   5.709  71.004  1.00  0.00    -0.250 C  
HETATM   19  C   UNL     1     -11.054   8.286  72.694  1.00  0.00    -0.330 C  
HETATM   20  C   UNL     1      -8.910   4.408  72.279  1.00  0.00    -0.113 C  
HETATM   21  C   UNL     1     -11.723   6.601  70.976  1.00  0.00    -0.360 C  
HETATM   22  C   UNL     1     -10.402   5.920  73.456  1.00  0.00    -0.243 C  
ENDBRANCH   7  15
ENDBRANCH   5   6
ENDBRANCH   4   5
ENDBRANCH   3   4
ENDBRANCH   2   3
TORSDOF 5
ENDMDL
MODEL       80
REMARK 921   NORMALIZED FREE ENERGY PREDICTED BY IDOCK:   -4.52 KCAL/MOL
REMARK 922        TOTAL FREE ENERGY PREDICTED BY IDOCK:   -6.47 KCAL/MOL
REMARK 923 INTER-LIGAND FREE ENERGY PREDICTED BY IDOCK:   -6.92 KCAL/MOL
REMARK 924 INTRA-LIGAND FREE ENERGY PREDICTED BY IDOCK:    0.45 KCAL/MOL
REMARK 927      BINDING AFFINITY PREDICTED BY RF-SCORE:    0.00 PKD
ROOT
HETATM    1  C   UNL     1      -8.265   5.752  65.960  1.00  0.00    -0.114 C  
HETATM    2  C   UNL     1      -7.784   7.182  65.945  1.00  0.00    -0.101 C  
ENDROOT
BRANCH   2   3
HETATM    3  O   UNL     1      -8.835   8.025  65.462  1.00  0.00    -0.148 OA 
BRANCH   3   4
HETATM    4  C   UNL     1      -9.665   8.394  66.562  1.00  0.00    -0.260 C  
BRANCH   4   5
HETATM    5  C   UNL     1      -9.314   9.757  67.119  1.00  0.00    -0.142 C  
BRANCH   5   6
HETATM    6  N   UNL     1     -10.282  10.823  66.918  1.00  0.00    -0.218 NA 
HETATM    7  C   UNL     1     -11.014  11.450  67.937  1.00  0.00    -0.240 A  
HETATM    8  N   UNL     1     -11.896  12.274  67.403  1.00  0.00    -0.536 NA 
HETATM    9  C   UNL     1     -10.731  11.317  65.698  1.00  0.00    -0.217 A  
HETATM   10  C   UNL     1     -10.415  11.089  64.340  1.00  0.00    -0.422 A  
HETATM   11  C   UNL     1     -11.730  12.218  66.046  1.00  0.00    -0.388 A  
HETATM   12  C   UNL     1     -11.107  11.778  63.345  1.00  0.00    -0.448 A  
HETATM   13  C   UNL     1     -12.427  12.908  65.034  1.00  0.00    -0.553 A  
HETATM   14  C   UNL     1     -12.104  12.686  63.687  1.00  0.00    -0.632 A  
BRANCH   7  15
HETATM   15  N   UNL     1     -10.917  11.158  69.275  1.00  0.00    -0.237 NA 
HETATM   16  N   UNL     1     -12.757   9.834  71.737  1.00  0.00    -0.400 NA 
HETATM   17  C   UNL     1     -10.857   8.850  70.346  1.00  0.00    -0.269 C  
HETATM   18  C   UNL     1     -12.996  10.746  70.607  1.00  0.00    -0.232 C  
HETATM   19  C   UNL     1     -10.096  10.001  69.673  1.00  0.00    -0.236 C  
HETATM   20  C   UNL     1     -13.827   8.839  71.803  1.00  0.00    -0.423 C  
HETATM   21  C   UNL     1     -11.825  11.692  70.295  1.00  0.00    -0.326 C  
HETATM   22  C   UNL     1     -11.429   9.210  71.724  1.00  0.00    -0.381 C  
ENDBRANCH   7  15
ENDBRANCH   5   6
ENDBRANCH   4   5
ENDBRANCH   3   4
ENDBRANCH   2   3
TORSDOF 5
ENDMDL
MODEL       81
REMARK 921   NORMALIZED FREE ENERGY PREDICTED BY IDOCK:   -4.51 KCAL/MOL
REMARK 922        TOTAL FREE ENERGY PREDICTED BY IDOCK:   -6.46 KCAL/MOL
REMARK 923 INTER-LIGAND FREE ENERGY PREDICTED BY IDOCK:   -6.93 KCAL/MOL
REMARK 924 INTRA-LIGAND FREE ENERGY PREDICTED BY IDOCK:    0.47 KCAL/MOL
REMARK 927      BINDING AFFINITY PREDICTED BY RF-SCORE:    0.00 PKD
ROOT
HETATM    1  C   UNL     1     -12.915  14.981  73.393  1.00  0.00    -0.622 C  
HETATM    2  C   UNL     1     -12.121  16.127  72.817  1.00  0.00    -0.553 C  
ENDROOT
BRANCH   2   3
HETATM    3  O   UNL     1     -12.163  16.055  71.388  1.00  0.00    -0.432 OA 
BRANCH   3   4
HETATM    4  C   UNL     1     -11.622  14.800  70.980  1.00  0.00    -0.265 C  
BRANCH   4   5
HETATM    5  C   UNL     1     -12.462  14.127  69.914  1.00  0.00    -0.260 C  
BRANCH   5   6
HETATM    6  N   UNL     1     -11.830  13.892  68.627  1.00  0.00    -0.356 NA 
HETATM    7  C   UNL     1     -11.591  12.629  68.065  1.00  0.00    -0.343 A  
HETATM    8  N   UNL     1     -10.885  12.764  66.959  1.00  0.00    -0.253 NA 
HETATM    9  C   UNL     1     -11.257  14.848  67.795  1.00  0.00    -0.321 A  
HETATM   10  C   UNL     1     -11.146  16.256  67.805  1.00  0.00    -0.227 A  
HETATM   11  C   UNL     1     -10.686  14.104  66.770  1.00  0.00    -0.286 A  
HETATM   12  C   UNL     1     -10.462  16.902  66.777  1.00  0.00    -0.260 A  
HETATM   13  C   UNL     1      -9.994  14.765  65.734  1.00  0.00    -0.375 A  
HETATM   14  C   UNL     1      -9.893  16.164  65.744  1.00  0.00    -0.354 A  
BRANCH   7  15
HETATM   15  N   UNL     1     -11.926  11.429  68.644  1.00  0.00    -0.517 NA 
HETATM   16  N   UNL     1     -10.534   9.005  70.483  1.00  0.00    -0.209 NA 
HETATM   17  C   UNL     1     -12.099  10.914  71.130  1.00  0.00    -0.386 C  
HETATM   18  C   UNL     1     -10.121   9.843  69.346  1.00  0.00    -0.212 C  
HETATM   19  C   UNL     1     -12.762  11.457  69.857  1.00  0.00     0.088 C  
HETATM   20  C   UNL     1      -9.458   8.951  71.472  1.00  0.00    -0.277 C  
HETATM   21  C   UNL     1     -11.249  10.163  68.350  1.00  0.00    -0.177 C  
HETATM   22  C   UNL     1     -11.811   9.408  71.084  1.00  0.00    -0.338 C  
ENDBRANCH   7  15
ENDBRANCH   5   6
ENDBRANCH   4   5
ENDBRANCH   3   4
ENDBRANCH   2   3
TORSDOF 5
ENDMDL
MODEL       82
REMARK 921   NORMALIZED FREE ENERGY PREDICTED BY IDOCK:   -4.50 KCAL/MOL
REMARK 922        TOTAL FREE ENERGY PREDICTED BY IDOCK:   -6.45 KCAL/MOL
REMARK 923 INTER-LIGAND FREE ENERGY PREDICTED BY IDOCK:   -5.69 KCAL/MOL
REMARK 924 INTRA-LIGAND FREE ENERGY PREDICTED BY IDOCK:   -0.75 KCAL/MOL
REMARK 927      BINDING AFFINITY PREDICTED BY RF-SCORE:    0.00 PKD
ROOT
HETATM    1  C   UNL     1     -12.690  11.767  63.281  1.00  0.00    -0.314 C  
HETATM    2  C   UNL     1     -11.991  12.695  64.243  1.00  0.00    -0.408 C  
ENDROOT
BRANCH   2   3
HETATM    3  O   UNL     1     -12.569  12.546  65.543  1.00  0.00    -0.642 OA 
BRANCH   3   4
HETATM    4  C   UNL     1     -12.519  13.805  66.211  1.00  0.00    -0.391 C  
BRANCH   4   5
HETATM    5  C   UNL     1     -11.918  13.701  67.597  1.00  0.00    -0.351 C  
BRANCH   5   6
HETATM    6  N   UNL     1     -10.491  13.442  67.681  1.00  0.00    -0.238 NA 
HETATM    7  C   UNL     1      -9.914  12.237  68.109  1.00  0.00    -0.210 A  
HETATM    8  N   UNL     1      -8.605  12.379  68.194  1.00  0.00    -0.180 NA 
HETATM    9  C   UNL     1      -9.466  14.358  67.469  1.00  0.00    -0.207 A  
HETATM   10  C   UNL     1      -9.389  15.706  67.054  1.00  0.00    -0.241 A  
HETATM   11  C   UNL     1      -8.313  13.655  67.795  1.00  0.00    -0.181 A  
HETATM   12  C   UNL     1      -8.147  16.331  66.967  1.00  0.00    -0.244 A  
HETATM   13  C   UNL     1      -7.060  14.296  67.706  1.00  0.00    -0.190 A  
HETATM   14  C   UNL     1      -6.987  15.632  67.286  1.00  0.00    -0.224 A  
BRANCH   7  15
HETATM   15  N   UNL     1     -10.612  11.122  68.504  1.00  0.00    -0.181 NA 
HETATM   16  N   UNL     1     -10.107   7.863  69.072  1.00  0.00    -0.195 NA 
HETATM   17  C   UNL     1     -10.346   9.830  70.680  1.00  0.00    -0.330 C  
HETATM   18  C   UNL     1      -9.663   8.846  68.072  1.00  0.00    -0.156 C  
HETATM   19  C   UNL     1     -10.982  11.006  69.925  1.00  0.00    -0.150 C  
HETATM   20  C   UNL     1      -8.968   7.058  69.513  1.00  0.00    -0.143 C  
HETATM   21  C   UNL     1     -10.720   9.900  67.702  1.00  0.00    -0.281 C  
HETATM   22  C   UNL     1     -10.831   8.455  70.204  1.00  0.00    -0.236 C  
ENDBRANCH   7  15
ENDBRANCH   5   6
ENDBRANCH   4   5
ENDBRANCH   3   4
ENDBRANCH   2   3
TORSDOF 5
ENDMDL
MODEL       83
REMARK 921   NORMALIZED FREE ENERGY PREDICTED BY IDOCK:   -4.49 KCAL/MOL
REMARK 922        TOTAL FREE ENERGY PREDICTED BY IDOCK:   -6.44 KCAL/MOL
REMARK 923 INTER-LIGAND FREE ENERGY PREDICTED BY IDOCK:   -6.02 KCAL/MOL
REMARK 924 INTRA-LIGAND FREE ENERGY PREDICTED BY IDOCK:   -0.42 KCAL/MOL
REMARK 927      BINDING AFFINITY PREDICTED BY RF-SCORE:    0.00 PKD
ROOT
HETATM    1  C   UNL     1      -5.629  10.343  69.568  1.00  0.00    -0.038 C  
HETATM    2  C   UNL     1      -6.301  11.405  68.734  1.00  0.00    -0.053 C  
ENDROOT
BRANCH   2   3
HETATM    3  O   UNL     1      -7.692  11.456  69.070  1.00  0.00    -0.125 OA 
BRANCH   3   4
HETATM    4  C   UNL     1      -8.307  12.489  68.303  1.00  0.00    -0.167 C  
BRANCH   4   5
HETATM    5  C   UNL     1      -9.648  12.070  67.738  1.00  0.00    -0.193 C  
BRANCH   5   6
HETATM    6  N   UNL     1     -10.780  12.073  68.650  1.00  0.00    -0.230 NA 
HETATM    7  C   UNL     1     -11.714  13.112  68.771  1.00  0.00    -0.324 A  
HETATM    8  N   UNL     1     -12.529  12.858  69.778  1.00  0.00    -0.015 NA 
HETATM    9  C   UNL     1     -11.064  11.122  69.624  1.00  0.00    -0.232 A  
HETATM   10  C   UNL     1     -10.507   9.886  70.019  1.00  0.00    -0.331 A  
HETATM   11  C   UNL     1     -12.160  11.647  70.298  1.00  0.00    -0.358 A  
HETATM   12  C   UNL     1     -11.064   9.188  71.089  1.00  0.00    -0.393 A  
HETATM   13  C   UNL     1     -12.716  10.936  71.381  1.00  0.00    -0.539 A  
HETATM   14  C   UNL     1     -12.164   9.704  71.764  1.00  0.00    -0.464 A  
BRANCH   7  15
HETATM   15  N   UNL     1     -11.703  14.275  68.041  1.00  0.00    -0.334 NA 
HETATM   16  N   UNL     1      -9.527  16.518  66.845  1.00  0.00    -0.230 NA 
HETATM   17  C   UNL     1     -10.776  14.612  65.696  1.00  0.00    -0.340 C  
HETATM   18  C   UNL     1      -9.684  15.753  68.092  1.00  0.00    -0.211 C  
HETATM   19  C   UNL     1     -11.946  14.183  66.591  1.00  0.00    -0.444 C  
HETATM   20  C   UNL     1      -8.132  16.469  66.408  1.00  0.00    -0.327 C  
HETATM   21  C   UNL     1     -11.143  15.540  68.527  1.00  0.00    -0.307 C  
HETATM   22  C   UNL     1     -10.449  16.109  65.779  1.00  0.00    -0.367 C  
ENDBRANCH   7  15
ENDBRANCH   5   6
ENDBRANCH   4   5
ENDBRANCH   3   4
ENDBRANCH   2   3
TORSDOF 5
ENDMDL
MODEL       84
REMARK 921   NORMALIZED FREE ENERGY PREDICTED BY IDOCK:   -4.48 KCAL/MOL
REMARK 922        TOTAL FREE ENERGY PREDICTED BY IDOCK:   -6.42 KCAL/MOL
REMARK 923 INTER-LIGAND FREE ENERGY PREDICTED BY IDOCK:   -5.81 KCAL/MOL
REMARK 924 INTRA-LIGAND FREE ENERGY PREDICTED BY IDOCK:   -0.62 KCAL/MOL
REMARK 927      BINDING AFFINITY PREDICTED BY RF-SCORE:    0.00 PKD
ROOT
HETATM    1  C   UNL     1      -8.355  17.464  66.484  1.00  0.00    -0.308 C  
HETATM    2  C   UNL     1      -8.804  16.631  67.659  1.00  0.00    -0.201 C  
ENDROOT
BRANCH   2   3
HETATM    3  O   UNL     1      -9.524  15.491  67.177  1.00  0.00    -0.209 OA 
BRANCH   3   4
HETATM    4  C   UNL     1      -9.667  14.559  68.247  1.00  0.00    -0.218 C  
BRANCH   4   5
HETATM    5  C   UNL     1     -10.764  13.547  67.989  1.00  0.00    -0.251 C  
BRANCH   5   6
HETATM    6  N   UNL     1     -11.208  12.751  69.122  1.00  0.00    -0.254 NA 
HETATM    7  C   UNL     1     -10.917  11.393  69.316  1.00  0.00    -0.229 A  
HETATM    8  N   UNL     1     -11.580  10.945  70.365  1.00  0.00    -0.324 NA 
HETATM    9  C   UNL     1     -12.078  13.153  70.130  1.00  0.00    -0.321 A  
HETATM   10  C   UNL     1     -12.729  14.358  70.478  1.00  0.00    -0.401 A  
HETATM   11  C   UNL     1     -12.278  12.002  70.882  1.00  0.00    -0.225 A  
HETATM   12  C   UNL     1     -13.574  14.390  71.586  1.00  0.00    -0.463 A  
HETATM   13  C   UNL     1     -13.136  12.043  72.000  1.00  0.00    -0.456 A  
HETATM   14  C   UNL     1     -13.774  13.243  72.347  1.00  0.00    -0.678 A  
BRANCH   7  15
HETATM   15  N   UNL     1     -10.162  10.617  68.471  1.00  0.00    -0.167 NA 
HETATM   16  N   UNL     1      -8.087   7.994  68.586  1.00  0.00    -0.123 NA 
HETATM   17  C   UNL     1     -10.535   8.169  67.885  1.00  0.00    -0.259 C  
HETATM   18  C   UNL     1      -8.325   9.194  69.403  1.00  0.00    -0.124 C  
HETATM   19  C   UNL     1     -10.863   9.644  67.616  1.00  0.00    -0.212 C  
HETATM   20  C   UNL     1      -7.951   6.825  69.455  1.00  0.00    -0.115 C  
HETATM   21  C   UNL     1      -8.711  10.446  68.597  1.00  0.00    -0.138 C  
HETATM   22  C   UNL     1      -9.091   7.783  67.537  1.00  0.00    -0.129 C  
ENDBRANCH   7  15
ENDBRANCH   5   6
ENDBRANCH   4   5
ENDBRANCH   3   4
ENDBRANCH   2   3
TORSDOF 5
ENDMDL
MODEL       85
REMARK 921   NORMALIZED FREE ENERGY PREDICTED BY IDOCK:   -4.47 KCAL/MOL
REMARK 922        TOTAL FREE ENERGY PREDICTED BY IDOCK:   -6.41 KCAL/MOL
REMARK 923 INTER-LIGAND FREE ENERGY PREDICTED BY IDOCK:   -6.00 KCAL/MOL
REMARK 924 INTRA-LIGAND FREE ENERGY PREDICTED BY IDOCK:   -0.40 KCAL/MOL
REMARK 927      BINDING AFFINITY PREDICTED BY RF-SCORE:    0.00 PKD
ROOT
HETATM    1  C   UNL     1     -12.638  13.043  71.153  1.00  0.00    -0.388 C  
HETATM    2  C   UNL     1     -13.467  12.080  71.967  1.00  0.00    -0.261 C  
ENDROOT
BRANCH   2   3
HETATM    3  O   UNL     1     -12.847  10.790  71.942  1.00  0.00    -0.436 OA 
BRANCH   3   4
HETATM    4  C   UNL     1     -12.591  10.435  70.584  1.00  0.00    -0.348 C  
BRANCH   4   5
HETATM    5  C   UNL     1     -11.297   9.667  70.421  1.00  0.00    -0.277 C  
BRANCH   5   6
HETATM    6  N   UNL     1     -10.898   9.323  69.066  1.00  0.00    -0.164 NA 
HETATM    7  C   UNL     1     -10.378   8.082  68.670  1.00  0.00    -0.200 A  
HETATM    8  N   UNL     1      -9.995   8.147  67.408  1.00  0.00    -0.188 NA 
HETATM    9  C   UNL     1     -10.852  10.179  67.972  1.00  0.00    -0.270 A  
HETATM   10  C   UNL     1     -11.209  11.524  67.728  1.00  0.00    -0.343 A  
HETATM   11  C   UNL     1     -10.290   9.407  66.963  1.00  0.00    -0.252 A  
HETATM   12  C   UNL     1     -10.999  12.076  66.466  1.00  0.00    -0.337 A  
HETATM   13  C   UNL     1     -10.078   9.974  65.689  1.00  0.00    -0.321 A  
HETATM   14  C   UNL     1     -10.442  11.308  65.450  1.00  0.00    -0.326 A  
BRANCH   7  15
HETATM   15  N   UNL     1     -10.176   7.007  69.499  1.00  0.00    -0.193 NA 
HETATM   16  N   UNL     1      -9.476   6.353  72.706  1.00  0.00    -0.144 NA 
HETATM   17  C   UNL     1     -11.670   6.233  71.408  1.00  0.00    -0.316 C  
HETATM   18  C   UNL     1      -9.037   7.337  71.704  1.00  0.00    -0.135 C  
HETATM   19  C   UNL     1     -11.352   6.218  69.907  1.00  0.00    -0.434 C  
HETATM   20  C   UNL     1      -9.742   7.026  73.977  1.00  0.00    -0.296 C  
HETATM   21  C   UNL     1      -8.948   6.789  70.270  1.00  0.00    -0.152 C  
HETATM   22  C   UNL     1     -10.614   5.533  72.272  1.00  0.00    -0.224 C  
ENDBRANCH   7  15
ENDBRANCH   5   6
ENDBRANCH   4   5
ENDBRANCH   3   4
ENDBRANCH   2   3
TORSDOF 5
ENDMDL
MODEL       86
REMARK 921   NORMALIZED FREE ENERGY PREDICTED BY IDOCK:   -4.46 KCAL/MOL
REMARK 922        TOTAL FREE ENERGY PREDICTED BY IDOCK:   -6.40 KCAL/MOL
REMARK 923 INTER-LIGAND FREE ENERGY PREDICTED BY IDOCK:   -5.62 KCAL/MOL
REMARK 924 INTRA-LIGAND FREE ENERGY PREDICTED BY IDOCK:   -0.78 KCAL/MOL
REMARK 927      BINDING AFFINITY PREDICTED BY RF-SCORE:    0.00 PKD
ROOT
HETATM    1  C   UNL     1     -12.499  12.049  63.476  1.00  0.00    -0.654 C  
HETATM    2  C   UNL     1     -11.609  13.152  63.992  1.00  0.00    -0.428 C  
ENDROOT
BRANCH   2   3
HETATM    3  O   UNL     1     -12.123  13.623  65.242  1.00  0.00    -0.363 OA 
BRANCH   3   4
HETATM    4  C   UNL     1     -11.554  14.903  65.514  1.00  0.00    -0.263 C  
BRANCH   4   5
HETATM    5  C   UNL     1     -11.095  15.037  66.951  1.00  0.00    -0.331 C  
BRANCH   5   6
HETATM    6  N   UNL     1      -9.691  14.779  67.224  1.00  0.00    -0.227 NA 
HETATM    7  C   UNL     1      -8.712  15.766  67.412  1.00  0.00    -0.183 A  
HETATM    8  N   UNL     1      -7.524  15.198  67.504  1.00  0.00    -0.181 NA 
HETATM    9  C   UNL     1      -9.060  13.540  67.228  1.00  0.00    -0.225 A  
HETATM   10  C   UNL     1      -9.474  12.197  67.083  1.00  0.00    -0.190 A  
HETATM   11  C   UNL     1      -7.717  13.846  67.410  1.00  0.00    -0.148 A  
HETATM   12  C   UNL     1      -8.528  11.175  67.127  1.00  0.00    -0.137 A  
HETATM   13  C   UNL     1      -6.766  12.806  67.451  1.00  0.00    -0.138 A  
HETATM   14  C   UNL     1      -7.183  11.473  67.315  1.00  0.00    -0.132 A  
BRANCH   7  15
HETATM   15  N   UNL     1      -8.936  17.120  67.377  1.00  0.00    -0.218 NA 
HETATM   16  N   UNL     1      -7.503  19.972  68.384  1.00  0.00    -0.271 NA 
HETATM   17  C   UNL     1      -7.610  18.867  66.086  1.00  0.00    -0.286 C  
HETATM   18  C   UNL     1      -7.693  18.625  68.945  1.00  0.00    -0.240 C  
HETATM   19  C   UNL     1      -8.734  17.821  66.097  1.00  0.00    -0.092 C  
HETATM   20  C   UNL     1      -6.126  20.410  68.609  1.00  0.00    -0.315 C  
HETATM   21  C   UNL     1      -9.031  17.964  68.572  1.00  0.00    -0.286 C  
HETATM   22  C   UNL     1      -7.892  20.086  66.973  1.00  0.00    -0.310 C  
ENDBRANCH   7  15
ENDBRANCH   5   6
ENDBRANCH   4   5
ENDBRANCH   3   4
ENDBRANCH   2   3
TORSDOF 5
ENDMDL
MODEL       87
REMARK 921   NORMALIZED FREE ENERGY PREDICTED BY IDOCK:   -4.44 KCAL/MOL
REMARK 922        TOTAL FREE ENERGY PREDICTED BY IDOCK:   -6.37 KCAL/MOL
REMARK 923 INTER-LIGAND FREE ENERGY PREDICTED BY IDOCK:   -5.74 KCAL/MOL
REMARK 924 INTRA-LIGAND FREE ENERGY PREDICTED BY IDOCK:   -0.64 KCAL/MOL
REMARK 927      BINDING AFFINITY PREDICTED BY RF-SCORE:    0.00 PKD
ROOT
HETATM    1  C   UNL     1     -12.734   8.784  72.389  1.00  0.00    -0.433 C  
HETATM    2  C   UNL     1     -11.312   8.569  71.936  1.00  0.00    -0.329 C  
ENDROOT
BRANCH   2   3
HETATM    3  O   UNL     1     -10.976   9.560  70.958  1.00  0.00    -0.298 OA 
BRANCH   3   4
HETATM    4  C   UNL     1     -12.038  10.510  70.892  1.00  0.00    -0.383 C  
BRANCH   4   5
HETATM    5  C   UNL     1     -12.316  10.969  69.476  1.00  0.00    -0.197 C  
BRANCH   5   6
HETATM    6  N   UNL     1     -11.562  12.113  68.992  1.00  0.00    -0.296 NA 
HETATM    7  C   UNL     1     -10.512  12.052  68.063  1.00  0.00    -0.207 A  
HETATM    8  N   UNL     1      -9.958  13.244  67.944  1.00  0.00    -0.227 NA 
HETATM    9  C   UNL     1     -11.664  13.425  69.440  1.00  0.00    -0.325 A  
HETATM   10  C   UNL     1     -12.488  14.116  70.356  1.00  0.00    -0.424 A  
HETATM   11  C   UNL     1     -10.653  14.094  68.760  1.00  0.00    -0.253 A  
HETATM   12  C   UNL     1     -12.287  15.478  70.574  1.00  0.00    -0.461 A  
HETATM   13  C   UNL     1     -10.455  15.471  68.988  1.00  0.00    -0.231 A  
HETATM   14  C   UNL     1     -11.281  16.155  69.892  1.00  0.00    -0.349 A  
BRANCH   7  15
HETATM   15  N   UNL     1     -10.049  10.905  67.467  1.00  0.00    -0.180 NA 
HETATM   16  N   UNL     1      -9.142   9.784  64.447  1.00  0.00    -0.243 NA 
HETATM   17  C   UNL     1      -7.746  10.519  66.453  1.00  0.00    -0.135 C  
HETATM   18  C   UNL     1     -10.208  10.646  64.982  1.00  0.00    -0.310 C  
HETATM   19  C   UNL     1      -8.644  10.525  67.699  1.00  0.00    -0.118 C  
HETATM   20  C   UNL     1      -8.566  10.398  63.250  1.00  0.00    -0.190 C  
HETATM   21  C   UNL     1     -10.733  10.223  66.365  1.00  0.00    -0.033 C  
HETATM   22  C   UNL     1      -8.112   9.434  65.433  1.00  0.00    -0.118 C  
ENDBRANCH   7  15
ENDBRANCH   5   6
ENDBRANCH   4   5
ENDBRANCH   3   4
ENDBRANCH   2   3
TORSDOF 5
ENDMDL
MODEL       88
REMARK 921   NORMALIZED FREE ENERGY PREDICTED BY IDOCK:   -4.43 KCAL/MOL
REMARK 922        TOTAL FREE ENERGY PREDICTED BY IDOCK:   -6.36 KCAL/MOL
REMARK 923 INTER-LIGAND FREE ENERGY PREDICTED BY IDOCK:   -5.97 KCAL/MOL
REMARK 924 INTRA-LIGAND FREE ENERGY PREDICTED BY IDOCK:   -0.38 KCAL/MOL
REMARK 927      BINDING AFFINITY PREDICTED BY RF-SCORE:    0.00 PKD
ROOT
HETATM    1  C   UNL     1     -12.585  12.948  70.814  1.00  0.00    -0.314 C  
HETATM    2  C   UNL     1     -12.805  11.611  71.475  1.00  0.00    -0.364 C  
ENDROOT
BRANCH   2   3
HETATM    3  O   UNL     1     -12.464  10.570  70.553  1.00  0.00    -0.316 OA 
BRANCH   3   4
HETATM    4  C   UNL     1     -11.984  11.169  69.350  1.00  0.00    -0.349 C  
BRANCH   4   5
HETATM    5  C   UNL     1     -10.537  10.821  69.068  1.00  0.00    -0.219 C  
BRANCH   5   6
HETATM    6  N   UNL     1     -10.289   9.747  68.121  1.00  0.00    -0.191 NA 
HETATM    7  C   UNL     1     -10.016   9.923  66.756  1.00  0.00    -0.214 A  
HETATM    8  N   UNL     1      -9.974   8.747  66.159  1.00  0.00    -0.249 NA 
HETATM    9  C   UNL     1     -10.391   8.382  68.367  1.00  0.00    -0.200 A  
HETATM   10  C   UNL     1     -10.650   7.578  69.500  1.00  0.00    -0.239 A  
HETATM   11  C   UNL     1     -10.184   7.798  67.123  1.00  0.00    -0.295 A  
HETATM   12  C   UNL     1     -10.694   6.191  69.366  1.00  0.00    -0.385 A  
HETATM   13  C   UNL     1     -10.232   6.395  66.997  1.00  0.00    -0.264 A  
HETATM   14  C   UNL     1     -10.482   5.600  68.125  1.00  0.00    -0.260 A  
BRANCH   7  15
HETATM   15  N   UNL     1      -9.935  11.135  66.116  1.00  0.00    -0.221 NA 
HETATM   16  N   UNL     1     -11.247  14.208  66.292  1.00  0.00    -0.322 NA 
HETATM   17  C   UNL     1      -8.981  13.305  67.041  1.00  0.00    -0.230 C  
HETATM   18  C   UNL     1     -11.747  12.832  66.437  1.00  0.00    -0.403 C  
HETATM   19  C   UNL     1      -8.736  11.959  66.345  1.00  0.00    -0.118 C  
HETATM   20  C   UNL     1     -11.777  15.042  67.370  1.00  0.00    -0.239 C  
HETATM   21  C   UNL     1     -11.081  11.811  65.500  1.00  0.00    -0.280 C  
HETATM   22  C   UNL     1      -9.785  14.300  66.196  1.00  0.00    -0.303 C  
ENDBRANCH   7  15
ENDBRANCH   5   6
ENDBRANCH   4   5
ENDBRANCH   3   4
ENDBRANCH   2   3
TORSDOF 5
ENDMDL
MODEL       89
REMARK 921   NORMALIZED FREE ENERGY PREDICTED BY IDOCK:   -4.41 KCAL/MOL
REMARK 922        TOTAL FREE ENERGY PREDICTED BY IDOCK:   -6.33 KCAL/MOL
REMARK 923 INTER-LIGAND FREE ENERGY PREDICTED BY IDOCK:   -5.84 KCAL/MOL
REMARK 924 INTRA-LIGAND FREE ENERGY PREDICTED BY IDOCK:   -0.49 KCAL/MOL
REMARK 927      BINDING AFFINITY PREDICTED BY RF-SCORE:    0.00 PKD
ROOT
HETATM    1  C   UNL     1     -11.754  15.960  69.831  1.00  0.00    -0.327 C  
HETATM    2  C   UNL     1     -11.349  15.657  68.410  1.00  0.00    -0.364 C  
ENDROOT
BRANCH   2   3
HETATM    3  O   UNL     1     -12.143  14.573  67.917  1.00  0.00    -0.325 OA 
BRANCH   3   4
HETATM    4  C   UNL     1     -12.103  13.511  68.868  1.00  0.00    -0.279 C  
BRANCH   4   5
HETATM    5  C   UNL     1     -10.729  12.881  68.974  1.00  0.00    -0.092 C  
BRANCH   5   6
HETATM    6  N   UNL     1     -10.491  11.681  68.190  1.00  0.00    -0.188 NA 
HETATM    7  C   UNL     1     -10.289  10.398  68.721  1.00  0.00    -0.196 A  
HETATM    8  N   UNL     1      -9.968   9.564  67.750  1.00  0.00    -0.165 NA 
HETATM    9  C   UNL     1     -10.307  11.611  66.813  1.00  0.00    -0.222 A  
HETATM   10  C   UNL     1     -10.358  12.530  65.741  1.00  0.00    -0.288 A  
HETATM   11  C   UNL     1      -9.989  10.278  66.582  1.00  0.00    -0.216 A  
HETATM   12  C   UNL     1     -10.093  12.093  64.444  1.00  0.00    -0.300 A  
HETATM   13  C   UNL     1      -9.719   9.845  65.268  1.00  0.00    -0.383 A  
HETATM   14  C   UNL     1      -9.780  10.759  64.205  1.00  0.00    -0.357 A  
BRANCH   7  15
HETATM   15  N   UNL     1     -10.296  10.085  70.058  1.00  0.00    -0.267 NA 
HETATM   16  N   UNL     1     -11.613   7.823  72.142  1.00  0.00    -0.299 NA 
HETATM   17  C   UNL     1      -9.266   8.039  71.165  1.00  0.00    -0.174 C  
HETATM   18  C   UNL     1     -12.077   8.582  70.970  1.00  0.00    -0.205 C  
HETATM   19  C   UNL     1      -9.087   9.466  70.629  1.00  0.00    -0.233 C  
HETATM   20  C   UNL     1     -12.024   6.425  72.019  1.00  0.00    -0.326 C  
HETATM   21  C   UNL     1     -11.512  10.009  70.872  1.00  0.00    -0.371 C  
HETATM   22  C   UNL     1     -10.173   7.950  72.398  1.00  0.00    -0.264 C  
ENDBRANCH   7  15
ENDBRANCH   5   6
ENDBRANCH   4   5
ENDBRANCH   3   4
ENDBRANCH   2   3
TORSDOF 5
ENDMDL
MODEL       90
REMARK 921   NORMALIZED FREE ENERGY PREDICTED BY IDOCK:   -4.40 KCAL/MOL
REMARK 922        TOTAL FREE ENERGY PREDICTED BY IDOCK:   -6.32 KCAL/MOL
REMARK 923 INTER-LIGAND FREE ENERGY PREDICTED BY IDOCK:   -6.42 KCAL/MOL
REMARK 924 INTRA-LIGAND FREE ENERGY PREDICTED BY IDOCK:    0.10 KCAL/MOL
REMARK 927      BINDING AFFINITY PREDICTED BY RF-SCORE:    0.00 PKD
ROOT
HETATM    1  C   UNL     1      -6.104  14.027  68.666  1.00  0.00    -0.088 C  
HETATM    2  C   UNL     1      -7.285  13.091  68.736  1.00  0.00    -0.082 C  
ENDROOT
BRANCH   2   3
HETATM    3  O   UNL     1      -6.875  11.788  68.308  1.00  0.00    -0.062 OA 
BRANCH   3   4
HETATM    4  C   UNL     1      -7.470  11.518  67.039  1.00  0.00    -0.151 C  
BRANCH   4   5
HETATM    5  C   UNL     1      -8.735  10.694  67.157  1.00  0.00    -0.130 C  
BRANCH   5   6
HETATM    6  N   UNL     1      -9.994  11.377  66.911  1.00  0.00    -0.203 NA 
HETATM    7  C   UNL     1     -10.953  11.676  67.890  1.00  0.00    -0.225 A  
HETATM    8  N   UNL     1     -12.030  12.175  67.314  1.00  0.00    -0.578 NA 
HETATM    9  C   UNL     1     -10.512  11.743  65.674  1.00  0.00    -0.265 A  
HETATM   10  C   UNL     1     -10.059  11.694  64.337  1.00  0.00    -0.322 A  
HETATM   11  C   UNL     1     -11.776  12.238  65.970  1.00  0.00    -0.388 A  
HETATM   12  C   UNL     1     -10.885  12.151  63.311  1.00  0.00    -0.381 A  
HETATM   13  C   UNL     1     -12.606  12.696  64.927  1.00  0.00    -0.525 A  
HETATM   14  C   UNL     1     -12.149  12.654  63.601  1.00  0.00    -0.632 A  
BRANCH   7  15
HETATM   15  N   UNL     1     -10.842  11.376  69.225  1.00  0.00    -0.219 NA 
HETATM   16  N   UNL     1     -12.595   9.903  71.665  1.00  0.00    -0.394 NA 
HETATM   17  C   UNL     1     -10.628   9.066  70.271  1.00  0.00    -0.250 C  
HETATM   18  C   UNL     1     -12.892  10.809  70.545  1.00  0.00    -0.256 C  
HETATM   19  C   UNL     1      -9.945  10.273  69.613  1.00  0.00    -0.207 C  
HETATM   20  C   UNL     1     -13.596   8.837  71.716  1.00  0.00    -0.410 C  
HETATM   21  C   UNL     1     -11.786  11.836  70.247  1.00  0.00    -0.295 C  
HETATM   22  C   UNL     1     -11.228   9.370  71.650  1.00  0.00    -0.361 C  
ENDBRANCH   7  15
ENDBRANCH   5   6
ENDBRANCH   4   5
ENDBRANCH   3   4
ENDBRANCH   2   3
TORSDOF 5
ENDMDL
MODEL       91
REMARK 921   NORMALIZED FREE ENERGY PREDICTED BY IDOCK:   -4.40 KCAL/MOL
REMARK 922        TOTAL FREE ENERGY PREDICTED BY IDOCK:   -6.32 KCAL/MOL
REMARK 923 INTER-LIGAND FREE ENERGY PREDICTED BY IDOCK:   -5.54 KCAL/MOL
REMARK 924 INTRA-LIGAND FREE ENERGY PREDICTED BY IDOCK:   -0.78 KCAL/MOL
REMARK 927      BINDING AFFINITY PREDICTED BY RF-SCORE:    0.00 PKD
ROOT
HETATM    1  C   UNL     1     -12.442  11.908  63.133  1.00  0.00    -0.363 C  
HETATM    2  C   UNL     1     -11.914  12.886  64.152  1.00  0.00    -0.423 C  
ENDROOT
BRANCH   2   3
HETATM    3  O   UNL     1     -12.680  12.769  65.356  1.00  0.00    -0.621 OA 
BRANCH   3   4
HETATM    4  C   UNL     1     -12.813  14.065  65.938  1.00  0.00    -0.311 C  
BRANCH   4   5
HETATM    5  C   UNL     1     -12.016  14.208  67.218  1.00  0.00    -0.414 C  
BRANCH   5   6
HETATM    6  N   UNL     1     -10.600  14.509  67.085  1.00  0.00    -0.271 NA 
HETATM    7  C   UNL     1      -9.569  13.559  67.092  1.00  0.00    -0.241 A  
HETATM    8  N   UNL     1      -8.402  14.173  67.087  1.00  0.00    -0.194 NA 
HETATM    9  C   UNL     1     -10.020  15.773  67.046  1.00  0.00    -0.239 A  
HETATM   10  C   UNL     1     -10.500  17.102  67.029  1.00  0.00    -0.282 A  
HETATM   11  C   UNL     1      -8.655  15.517  67.043  1.00  0.00    -0.233 A  
HETATM   12  C   UNL     1      -9.594  18.161  67.004  1.00  0.00    -0.287 A  
HETATM   13  C   UNL     1      -7.746  16.595  67.021  1.00  0.00    -0.235 A  
HETATM   14  C   UNL     1      -8.226  17.913  66.996  1.00  0.00    -0.241 A  
BRANCH   7  15
HETATM   15  N   UNL     1      -9.745  12.202  67.217  1.00  0.00    -0.189 NA 
HETATM   16  N   UNL     1      -7.957   9.376  67.096  1.00  0.00    -0.102 NA 
HETATM   17  C   UNL     1      -8.869  10.702  69.077  1.00  0.00    -0.154 C  
HETATM   18  C   UNL     1      -7.995  10.640  66.343  1.00  0.00    -0.142 C  
HETATM   19  C   UNL     1      -9.960  11.655  68.568  1.00  0.00    -0.194 C  
HETATM   20  C   UNL     1      -6.570   9.020  67.394  1.00  0.00    -0.065 C  
HETATM   21  C   UNL     1      -9.402  11.235  66.170  1.00  0.00    -0.211 C  
HETATM   22  C   UNL     1      -8.793   9.380  68.302  1.00  0.00    -0.128 C  
ENDBRANCH   7  15
ENDBRANCH   5   6
ENDBRANCH   4   5
ENDBRANCH   3   4
ENDBRANCH   2   3
TORSDOF 5
ENDMDL
MODEL       92
REMARK 921   NORMALIZED FREE ENERGY PREDICTED BY IDOCK:   -4.40 KCAL/MOL
REMARK 922        TOTAL FREE ENERGY PREDICTED BY IDOCK:   -6.32 KCAL/MOL
REMARK 923 INTER-LIGAND FREE ENERGY PREDICTED BY IDOCK:   -5.62 KCAL/MOL
REMARK 924 INTRA-LIGAND FREE ENERGY PREDICTED BY IDOCK:   -0.70 KCAL/MOL
REMARK 927      BINDING AFFINITY PREDICTED BY RF-SCORE:    0.00 PKD
ROOT
HETATM    1  C   UNL     1      -5.883  12.435  67.857  1.00  0.00    -0.086 C  
HETATM    2  C   UNL     1      -7.133  13.279  67.849  1.00  0.00    -0.133 C  
ENDROOT
BRANCH   2   3
HETATM    3  O   UNL     1      -7.379  13.765  69.173  1.00  0.00    -0.082 OA 
BRANCH   3   4
HETATM    4  C   UNL     1      -7.587  15.175  69.109  1.00  0.00    -0.188 C  
BRANCH   4   5
HETATM    5  C   UNL     1      -7.870  15.654  67.700  1.00  0.00    -0.154 C  
BRANCH   5   6
HETATM    6  N   UNL     1      -8.462  16.974  67.558  1.00  0.00    -0.198 NA 
HETATM    7  C   UNL     1      -9.782  17.226  67.159  1.00  0.00    -0.259 A  
HETATM    8  N   UNL     1      -9.955  18.525  67.002  1.00  0.00    -0.327 NA 
HETATM    9  C   UNL     1      -7.806  18.195  67.675  1.00  0.00    -0.224 A  
HETATM   10  C   UNL     1      -6.501  18.609  68.022  1.00  0.00    -0.219 A  
HETATM   11  C   UNL     1      -8.772  19.131  67.326  1.00  0.00    -0.286 A  
HETATM   12  C   UNL     1      -6.184  19.966  68.017  1.00  0.00    -0.268 A  
HETATM   13  C   UNL     1      -8.441  20.501  67.321  1.00  0.00    -0.365 A  
HETATM   14  C   UNL     1      -7.147  20.909  67.674  1.00  0.00    -0.339 A  
BRANCH   7  15
HETATM   15  N   UNL     1     -10.714  16.265  66.852  1.00  0.00    -0.267 NA 
HETATM   16  N   UNL     1     -10.860  13.136  65.675  1.00  0.00    -0.275 NA 
HETATM   17  C   UNL     1     -11.091  14.050  68.046  1.00  0.00    -0.282 C  
HETATM   18  C   UNL     1     -10.076  14.345  65.378  1.00  0.00    -0.359 C  
HETATM   19  C   UNL     1     -11.369  15.557  67.966  1.00  0.00    -0.330 C  
HETATM   20  C   UNL     1      -9.974  11.973  65.725  1.00  0.00    -0.241 C  
HETATM   21  C   UNL     1     -10.858  15.662  65.524  1.00  0.00    -0.346 C  
HETATM   22  C   UNL     1     -11.687  13.248  66.883  1.00  0.00    -0.388 C  
ENDBRANCH   7  15
ENDBRANCH   5   6
ENDBRANCH   4   5
ENDBRANCH   3   4
ENDBRANCH   2   3
TORSDOF 5
ENDMDL
MODEL       93
REMARK 921   NORMALIZED FREE ENERGY PREDICTED BY IDOCK:   -4.39 KCAL/MOL
REMARK 922        TOTAL FREE ENERGY PREDICTED BY IDOCK:   -6.30 KCAL/MOL
REMARK 923 INTER-LIGAND FREE ENERGY PREDICTED BY IDOCK:   -5.84 KCAL/MOL
REMARK 924 INTRA-LIGAND FREE ENERGY PREDICTED BY IDOCK:   -0.46 KCAL/MOL
REMARK 927      BINDING AFFINITY PREDICTED BY RF-SCORE:    0.00 PKD
ROOT
HETATM    1  C   UNL     1      -7.410   8.265  66.809  1.00  0.00    -0.083 C  
HETATM    2  C   UNL     1      -8.128   9.403  66.128  1.00  0.00    -0.111 C  
ENDROOT
BRANCH   2   3
HETATM    3  O   UNL     1      -9.277   9.763  66.903  1.00  0.00    -0.143 OA 
BRANCH   3   4
HETATM    4  C   UNL     1      -8.995  10.976  67.597  1.00  0.00    -0.142 C  
BRANCH   4   5
HETATM    5  C   UNL     1      -9.908  12.109  67.178  1.00  0.00    -0.197 C  
BRANCH   5   6
HETATM    6  N   UNL     1     -10.670  12.766  68.227  1.00  0.00    -0.231 NA 
HETATM    7  C   UNL     1     -10.659  14.144  68.488  1.00  0.00    -0.252 A  
HETATM    8  N   UNL     1     -11.350  14.391  69.584  1.00  0.00    -0.263 NA 
HETATM    9  C   UNL     1     -11.435  12.148  69.209  1.00  0.00    -0.302 A  
HETATM   10  C   UNL     1     -11.815  10.819  69.504  1.00  0.00    -0.380 A  
HETATM   11  C   UNL     1     -11.842  13.194  70.028  1.00  0.00    -0.290 A  
HETATM   12  C   UNL     1     -12.606  10.560  70.622  1.00  0.00    -0.457 A  
HETATM   13  C   UNL     1     -12.640  12.922  71.158  1.00  0.00    -0.373 A  
HETATM   14  C   UNL     1     -13.022  11.603  71.443  1.00  0.00    -0.426 A  
BRANCH   7  15
HETATM   15  N   UNL     1      -9.935  15.077  67.786  1.00  0.00    -0.228 NA 
HETATM   16  N   UNL     1      -9.666  18.399  67.484  1.00  0.00    -0.290 NA 
HETATM   17  C   UNL     1      -8.210  16.702  68.714  1.00  0.00    -0.249 C  
HETATM   18  C   UNL     1     -10.766  17.433  67.632  1.00  0.00    -0.310 C  
HETATM   19  C   UNL     1      -8.532  15.300  68.178  1.00  0.00    -0.151 C  
HETATM   20  C   UNL     1      -9.883  19.536  68.378  1.00  0.00    -0.428 C  
HETATM   21  C   UNL     1     -10.536  16.092  66.916  1.00  0.00    -0.306 C  
HETATM   22  C   UNL     1      -8.333  17.810  67.661  1.00  0.00    -0.228 C  
ENDBRANCH   7  15
ENDBRANCH   5   6
ENDBRANCH   4   5
ENDBRANCH   3   4
ENDBRANCH   2   3
TORSDOF 5
ENDMDL
MODEL       94
REMARK 921   NORMALIZED FREE ENERGY PREDICTED BY IDOCK:   -4.38 KCAL/MOL
REMARK 922        TOTAL FREE ENERGY PREDICTED BY IDOCK:   -6.30 KCAL/MOL
REMARK 923 INTER-LIGAND FREE ENERGY PREDICTED BY IDOCK:   -5.86 KCAL/MOL
REMARK 924 INTRA-LIGAND FREE ENERGY PREDICTED BY IDOCK:   -0.44 KCAL/MOL
REMARK 927      BINDING AFFINITY PREDICTED BY RF-SCORE:    0.00 PKD
ROOT
HETATM    1  C   UNL     1     -12.754  14.112  65.128  1.00  0.00    -0.387 C  
HETATM    2  C   UNL     1     -11.882  12.964  65.571  1.00  0.00    -0.411 C  
ENDROOT
BRANCH   2   3
HETATM    3  O   UNL     1     -11.335  13.261  66.861  1.00  0.00    -0.295 OA 
BRANCH   3   4
HETATM    4  C   UNL     1     -11.696  12.214  67.760  1.00  0.00    -0.320 C  
BRANCH   4   5
HETATM    5  C   UNL     1     -10.489  11.537  68.373  1.00  0.00    -0.207 C  
BRANCH   5   6
HETATM    6  N   UNL     1     -10.735  10.357  69.186  1.00  0.00    -0.218 NA 
HETATM    7  C   UNL     1     -10.189   9.087  68.950  1.00  0.00    -0.208 A  
HETATM    8  N   UNL     1     -10.718   8.216  69.788  1.00  0.00    -0.245 NA 
HETATM    9  C   UNL     1     -11.628  10.251  70.247  1.00  0.00    -0.316 A  
HETATM   10  C   UNL     1     -12.479  11.140  70.941  1.00  0.00    -0.509 A  
HETATM   11  C   UNL     1     -11.582   8.906  70.593  1.00  0.00    -0.215 A  
HETATM   12  C   UNL     1     -13.273  10.662  71.982  1.00  0.00    -0.473 A  
HETATM   13  C   UNL     1     -12.391   8.431  71.646  1.00  0.00    -0.359 A  
HETATM   14  C   UNL     1     -13.228   9.319  72.338  1.00  0.00    -0.501 A  
BRANCH   7  15
HETATM   15  N   UNL     1      -9.334   8.772  67.922  1.00  0.00    -0.141 NA 
HETATM   16  N   UNL     1      -8.687   9.687  64.768  1.00  0.00    -0.179 NA 
HETATM   17  C   UNL     1      -7.487  10.231  66.954  1.00  0.00    -0.101 C  
HETATM   18  C   UNL     1      -9.893   9.472  65.584  1.00  0.00    -0.272 C  
HETATM   19  C   UNL     1      -7.935   9.225  68.023  1.00  0.00    -0.100 C  
HETATM   20  C   UNL     1      -8.821  10.929  64.008  1.00  0.00    -0.048 C  
HETATM   21  C   UNL     1      -9.777   8.322  66.599  1.00  0.00    -0.251 C  
HETATM   22  C   UNL     1      -7.437   9.646  65.537  1.00  0.00    -0.106 C  
ENDBRANCH   7  15
ENDBRANCH   5   6
ENDBRANCH   4   5
ENDBRANCH   3   4
ENDBRANCH   2   3
TORSDOF 5
ENDMDL
MODEL       95
REMARK 921   NORMALIZED FREE ENERGY PREDICTED BY IDOCK:   -4.36 KCAL/MOL
REMARK 922        TOTAL FREE ENERGY PREDICTED BY IDOCK:   -6.27 KCAL/MOL
REMARK 923 INTER-LIGAND FREE ENERGY PREDICTED BY IDOCK:   -5.64 KCAL/MOL
REMARK 924 INTRA-LIGAND FREE ENERGY PREDICTED BY IDOCK:   -0.63 KCAL/MOL
REMARK 927      BINDING AFFINITY PREDICTED BY RF-SCORE:    0.00 PKD
ROOT
HETATM    1  C   UNL     1     -12.989  14.688  73.111  1.00  0.00    -0.605 C  
HETATM    2  C   UNL     1     -12.645  15.898  72.279  1.00  0.00    -0.454 C  
ENDROOT
BRANCH   2   3
HETATM    3  O   UNL     1     -12.852  15.589  70.896  1.00  0.00    -0.448 OA 
BRANCH   3   4
HETATM    4  C   UNL     1     -12.224  14.340  70.610  1.00  0.00    -0.357 C  
BRANCH   4   5
HETATM    5  C   UNL     1     -12.148  14.058  69.125  1.00  0.00    -0.337 C  
BRANCH   5   6
HETATM    6  N   UNL     1     -10.823  13.897  68.549  1.00  0.00    -0.251 NA 
HETATM    7  C   UNL     1     -10.211  12.667  68.267  1.00  0.00    -0.239 A  
HETATM    8  N   UNL     1      -8.966  12.872  67.880  1.00  0.00    -0.185 NA 
HETATM    9  C   UNL     1      -9.901  14.906  68.293  1.00  0.00    -0.218 A  
HETATM   10  C   UNL     1      -9.899  16.316  68.383  1.00  0.00    -0.229 A  
HETATM   11  C   UNL     1      -8.764  14.226  67.875  1.00  0.00    -0.178 A  
HETATM   12  C   UNL     1      -8.748  17.027  68.045  1.00  0.00    -0.218 A  
HETATM   13  C   UNL     1      -7.604  14.952  67.538  1.00  0.00    -0.218 A  
HETATM   14  C   UNL     1      -7.608  16.352  67.620  1.00  0.00    -0.161 A  
BRANCH   7  15
HETATM   15  N   UNL     1     -10.776  11.434  68.483  1.00  0.00    -0.190 NA 
HETATM   16  N   UNL     1     -10.118   8.197  67.948  1.00  0.00    -0.186 NA 
HETATM   17  C   UNL     1      -9.948   9.618  70.061  1.00  0.00    -0.288 C  
HETATM   18  C   UNL     1      -9.954   9.451  67.196  1.00  0.00    -0.204 C  
HETATM   19  C   UNL     1     -10.766  10.900  69.856  1.00  0.00    -0.075 C  
HETATM   20  C   UNL     1      -8.898   7.396  67.846  1.00  0.00    -0.132 C  
HETATM   21  C   UNL     1     -11.078  10.476  67.416  1.00  0.00    -0.252 C  
HETATM   22  C   UNL     1     -10.529   8.393  69.343  1.00  0.00    -0.217 C  
ENDBRANCH   7  15
ENDBRANCH   5   6
ENDBRANCH   4   5
ENDBRANCH   3   4
ENDBRANCH   2   3
TORSDOF 5
ENDMDL
MODEL       96
REMARK 921   NORMALIZED FREE ENERGY PREDICTED BY IDOCK:   -4.33 KCAL/MOL
REMARK 922        TOTAL FREE ENERGY PREDICTED BY IDOCK:   -6.23 KCAL/MOL
REMARK 923 INTER-LIGAND FREE ENERGY PREDICTED BY IDOCK:   -5.91 KCAL/MOL
REMARK 924 INTRA-LIGAND FREE ENERGY PREDICTED BY IDOCK:   -0.32 KCAL/MOL
REMARK 927      BINDING AFFINITY PREDICTED BY RF-SCORE:    0.00 PKD
ROOT
HETATM    1  C   UNL     1     -12.479  14.184  70.393  1.00  0.00    -0.424 C  
HETATM    2  C   UNL     1     -11.998  13.604  69.086  1.00  0.00    -0.351 C  
ENDROOT
BRANCH   2   3
HETATM    3  O   UNL     1     -11.895  14.652  68.117  1.00  0.00    -0.325 OA 
BRANCH   3   4
HETATM    4  C   UNL     1     -12.078  14.090  66.819  1.00  0.00    -0.447 C  
BRANCH   4   5
HETATM    5  C   UNL     1     -10.861  14.266  65.936  1.00  0.00    -0.300 C  
BRANCH   5   6
HETATM    6  N   UNL     1      -9.562  14.240  66.588  1.00  0.00    -0.278 NA 
HETATM    7  C   UNL     1      -8.695  15.337  66.702  1.00  0.00    -0.291 A  
HETATM    8  N   UNL     1      -7.551  14.943  67.227  1.00  0.00    -0.203 NA 
HETATM    9  C   UNL     1      -8.911  13.122  67.099  1.00  0.00    -0.228 A  
HETATM   10  C   UNL     1      -9.231  11.756  67.260  1.00  0.00    -0.173 A  
HETATM   11  C   UNL     1      -7.668  13.605  67.489  1.00  0.00    -0.173 A  
HETATM   12  C   UNL     1      -8.293  10.889  67.818  1.00  0.00    -0.117 A  
HETATM   13  C   UNL     1      -6.724  12.721  68.051  1.00  0.00    -0.100 A  
HETATM   14  C   UNL     1      -7.048  11.366  68.216  1.00  0.00    -0.078 A  
BRANCH   7  15
HETATM   15  N   UNL     1      -8.949  16.599  66.223  1.00  0.00    -0.315 NA 
HETATM   16  N   UNL     1     -10.248  19.507  67.251  1.00  0.00    -0.398 NA 
HETATM   17  C   UNL     1      -7.826  18.769  66.933  1.00  0.00    -0.252 C  
HETATM   18  C   UNL     1     -10.568  18.081  67.426  1.00  0.00    -0.365 C  
HETATM   19  C   UNL     1      -7.807  17.514  66.049  1.00  0.00    -0.178 C  
HETATM   20  C   UNL     1     -10.343  20.195  68.537  1.00  0.00    -0.216 C  
HETATM   21  C   UNL     1     -10.281  17.209  66.192  1.00  0.00    -0.334 C  
HETATM   22  C   UNL     1      -8.958  19.748  66.594  1.00  0.00    -0.368 C  
ENDBRANCH   7  15
ENDBRANCH   5   6
ENDBRANCH   4   5
ENDBRANCH   3   4
ENDBRANCH   2   3
TORSDOF 5
ENDMDL
MODEL       97
REMARK 921   NORMALIZED FREE ENERGY PREDICTED BY IDOCK:   -4.32 KCAL/MOL
REMARK 922        TOTAL FREE ENERGY PREDICTED BY IDOCK:   -6.21 KCAL/MOL
REMARK 923 INTER-LIGAND FREE ENERGY PREDICTED BY IDOCK:   -6.01 KCAL/MOL
REMARK 924 INTRA-LIGAND FREE ENERGY PREDICTED BY IDOCK:   -0.21 KCAL/MOL
REMARK 927      BINDING AFFINITY PREDICTED BY RF-SCORE:    0.00 PKD
ROOT
HETATM    1  C   UNL     1      -5.715  13.336  68.452  1.00  0.00    -0.084 C  
HETATM    2  C   UNL     1      -6.361  14.629  68.022  1.00  0.00    -0.156 C  
ENDROOT
BRANCH   2   3
HETATM    3  O   UNL     1      -7.551  14.335  67.281  1.00  0.00    -0.183 OA 
BRANCH   3   4
HETATM    4  C   UNL     1      -7.990  13.023  67.629  1.00  0.00    -0.169 C  
BRANCH   4   5
HETATM    5  C   UNL     1      -9.383  13.017  68.221  1.00  0.00    -0.199 C  
BRANCH   5   6
HETATM    6  N   UNL     1     -10.497  13.115  67.292  1.00  0.00    -0.242 NA 
HETATM    7  C   UNL     1     -11.453  12.113  67.071  1.00  0.00    -0.350 A  
HETATM    8  N   UNL     1     -12.241  12.467  66.074  1.00  0.00    -0.624 NA 
HETATM    9  C   UNL     1     -10.738  14.147  66.391  1.00  0.00    -0.288 A  
HETATM   10  C   UNL     1     -10.143  15.396  66.106  1.00  0.00    -0.325 A  
HETATM   11  C   UNL     1     -11.833  13.705  65.658  1.00  0.00    -0.364 A  
HETATM   12  C   UNL     1     -10.662  16.190  65.085  1.00  0.00    -0.391 A  
HETATM   13  C   UNL     1     -12.350  14.514  64.626  1.00  0.00    -0.419 A  
HETATM   14  C   UNL     1     -11.761  15.757  64.351  1.00  0.00    -0.201 A  
BRANCH   7  15
HETATM   15  N   UNL     1     -11.485  10.896  67.707  1.00  0.00    -0.513 NA 
HETATM   16  N   UNL     1      -9.398   8.714  69.149  1.00  0.00    -0.152 NA 
HETATM   17  C   UNL     1     -10.997  10.427  70.160  1.00  0.00    -0.365 C  
HETATM   18  C   UNL     1      -9.377   9.568  67.951  1.00  0.00    -0.132 C  
HETATM   19  C   UNL     1     -12.007  10.849  69.084  1.00  0.00    -0.288 C  
HETATM   20  C   UNL     1      -8.121   8.821  69.854  1.00  0.00    -0.109 C  
HETATM   21  C   UNL     1     -10.739   9.718  67.253  1.00  0.00    -0.227 C  
HETATM   22  C   UNL     1     -10.538   8.968  70.038  1.00  0.00    -0.228 C  
ENDBRANCH   7  15
ENDBRANCH   5   6
ENDBRANCH   4   5
ENDBRANCH   3   4
ENDBRANCH   2   3
TORSDOF 5
ENDMDL
MODEL       98
REMARK 921   NORMALIZED FREE ENERGY PREDICTED BY IDOCK:   -4.31 KCAL/MOL
REMARK 922        TOTAL FREE ENERGY PREDICTED BY IDOCK:   -6.20 KCAL/MOL
REMARK 923 INTER-LIGAND FREE ENERGY PREDICTED BY IDOCK:   -5.53 KCAL/MOL
REMARK 924 INTRA-LIGAND FREE ENERGY PREDICTED BY IDOCK:   -0.67 KCAL/MOL
REMARK 927      BINDING AFFINITY PREDICTED BY RF-SCORE:    0.00 PKD
ROOT
HETATM    1  C   UNL     1      -6.610   8.472  66.539  1.00  0.00    -0.059 C  
HETATM    2  C   UNL     1      -7.180   7.083  66.690  1.00  0.00    -0.083 C  
ENDROOT
BRANCH   2   3
HETATM    3  O   UNL     1      -8.557   7.096  66.300  1.00  0.00    -0.127 OA 
BRANCH   3   4
HETATM    4  C   UNL     1      -9.027   8.443  66.338  1.00  0.00    -0.171 C  
BRANCH   4   5
HETATM    5  C   UNL     1     -10.437   8.548  66.882  1.00  0.00    -0.275 C  
BRANCH   5   6
HETATM    6  N   UNL     1     -10.656   9.486  67.971  1.00  0.00    -0.233 NA 
HETATM    7  C   UNL     1     -10.616   9.162  69.335  1.00  0.00    -0.223 A  
HETATM    8  N   UNL     1     -10.990  10.208  70.048  1.00  0.00    -0.286 NA 
HETATM    9  C   UNL     1     -11.052  10.814  67.855  1.00  0.00    -0.308 A  
HETATM   10  C   UNL     1     -11.284  11.707  66.785  1.00  0.00    -0.371 A  
HETATM   11  C   UNL     1     -11.244  11.225  69.168  1.00  0.00    -0.273 A  
HETATM   12  C   UNL     1     -11.704  13.009  67.052  1.00  0.00    -0.441 A  
HETATM   13  C   UNL     1     -11.671  12.543  69.429  1.00  0.00    -0.383 A  
HETATM   14  C   UNL     1     -11.892  13.429  68.365  1.00  0.00    -0.401 A  
BRANCH   7  15
HETATM   15  N   UNL     1     -10.354   7.914  69.844  1.00  0.00    -0.218 NA 
HETATM   16  N   UNL     1      -9.723   6.437  72.780  1.00  0.00    -0.158 NA 
HETATM   17  C   UNL     1     -11.848   6.531  71.371  1.00  0.00    -0.384 C  
HETATM   18  C   UNL     1      -9.332   7.692  72.119  1.00  0.00    -0.145 C  
HETATM   19  C   UNL     1     -11.473   6.961  69.946  1.00  0.00    -0.242 C  
HETATM   20  C   UNL     1     -10.092   6.705  74.169  1.00  0.00    -0.364 C  
HETATM   21  C   UNL     1      -9.142   7.577  70.597  1.00  0.00    -0.155 C  
HETATM   22  C   UNL     1     -10.769   5.693  72.068  1.00  0.00    -0.235 C  
ENDBRANCH   7  15
ENDBRANCH   5   6
ENDBRANCH   4   5
ENDBRANCH   3   4
ENDBRANCH   2   3
TORSDOF 5
ENDMDL
MODEL       99
REMARK 921   NORMALIZED FREE ENERGY PREDICTED BY IDOCK:   -4.31 KCAL/MOL
REMARK 922        TOTAL FREE ENERGY PREDICTED BY IDOCK:   -6.20 KCAL/MOL
REMARK 923 INTER-LIGAND FREE ENERGY PREDICTED BY IDOCK:   -5.42 KCAL/MOL
REMARK 924 INTRA-LIGAND FREE ENERGY PREDICTED BY IDOCK:   -0.78 KCAL/MOL
REMARK 927      BINDING AFFINITY PREDICTED BY RF-SCORE:    0.00 PKD
ROOT
HETATM    1  C   UNL     1     -12.617   9.567  71.939  1.00  0.00    -0.479 C  
HETATM    2  C   UNL     1     -12.785  10.626  70.878  1.00  0.00    -0.404 C  
ENDROOT
BRANCH   2   3
HETATM    3  O   UNL     1     -12.626  11.917  71.475  1.00  0.00    -0.291 OA 
BRANCH   3   4
HETATM    4  C   UNL     1     -12.318  12.858  70.448  1.00  0.00    -0.258 C  
BRANCH   4   5
HETATM    5  C   UNL     1     -11.996  12.189  69.128  1.00  0.00    -0.255 C  
BRANCH   5   6
HETATM    6  N   UNL     1     -10.616  12.248  68.677  1.00  0.00    -0.232 NA 
HETATM    7  C   UNL     1     -10.059  13.291  67.922  1.00  0.00    -0.235 A  
HETATM    8  N   UNL     1      -8.829  12.972  67.567  1.00  0.00    -0.184 NA 
HETATM    9  C   UNL     1      -9.655  11.252  68.809  1.00  0.00    -0.151 A  
HETATM   10  C   UNL     1      -9.597   9.983  69.428  1.00  0.00    -0.237 A  
HETATM   11  C   UNL     1      -8.560  11.744  68.109  1.00  0.00    -0.160 A  
HETATM   12  C   UNL     1      -8.431   9.225  69.339  1.00  0.00    -0.137 A  
HETATM   13  C   UNL     1      -7.385  10.969  68.022  1.00  0.00    -0.088 A  
HETATM   14  C   UNL     1      -7.329   9.714  68.645  1.00  0.00    -0.074 A  
BRANCH   7  15
HETATM   15  N   UNL     1     -10.732  14.413  67.505  1.00  0.00    -0.268 NA 
HETATM   16  N   UNL     1     -10.165  17.657  66.913  1.00  0.00    -0.323 NA 
HETATM   17  C   UNL     1     -10.411  15.678  65.320  1.00  0.00    -0.439 C  
HETATM   18  C   UNL     1      -9.752  16.677  67.929  1.00  0.00    -0.244 C  
HETATM   19  C   UNL     1     -11.078  14.521  66.077  1.00  0.00    -0.329 C  
HETATM   20  C   UNL     1      -9.006  18.439  66.482  1.00  0.00    -0.286 C  
HETATM   21  C   UNL     1     -10.833  15.645  68.293  1.00  0.00    -0.298 C  
HETATM   22  C   UNL     1     -10.880  17.066  65.776  1.00  0.00    -0.046 C  
ENDBRANCH   7  15
ENDBRANCH   5   6
ENDBRANCH   4   5
ENDBRANCH   3   4
ENDBRANCH   2   3
TORSDOF 5
ENDMDL
MODEL      100
REMARK 921   NORMALIZED FREE ENERGY PREDICTED BY IDOCK:   -4.29 KCAL/MOL
REMARK 922        TOTAL FREE ENERGY PREDICTED BY IDOCK:   -6.18 KCAL/MOL
REMARK 923 INTER-LIGAND FREE ENERGY PREDICTED BY IDOCK:   -5.61 KCAL/MOL
REMARK 924 INTRA-LIGAND FREE ENERGY PREDICTED BY IDOCK:   -0.57 KCAL/MOL
REMARK 927      BINDING AFFINITY PREDICTED BY RF-SCORE:    0.00 PKD
ROOT
HETATM    1  C   UNL     1     -12.901  10.571  70.899  1.00  0.00    -0.485 C  
HETATM    2  C   UNL     1     -11.698  11.170  70.213  1.00  0.00    -0.341 C  
ENDROOT
BRANCH   2   3
HETATM    3  O   UNL     1     -10.716  10.148  70.013  1.00  0.00    -0.268 OA 
BRANCH   3   4
HETATM    4  C   UNL     1     -10.743   9.754  68.642  1.00  0.00    -0.216 C  
BRANCH   4   5
HETATM    5  C   UNL     1      -9.775  10.550  67.792  1.00  0.00    -0.160 C  
BRANCH   5   6
HETATM    6  N   UNL     1     -10.070  10.649  66.372  1.00  0.00    -0.218 NA 
HETATM    7  C   UNL     1      -9.473   9.873  65.369  1.00  0.00    -0.257 A  
HETATM    8  N   UNL     1      -9.863  10.306  64.185  1.00  0.00    -0.304 NA 
HETATM    9  C   UNL     1     -10.890  11.590  65.759  1.00  0.00    -0.262 A  
HETATM   10  C   UNL     1     -11.732  12.635  66.201  1.00  0.00    -0.461 A  
HETATM   11  C   UNL     1     -10.735  11.338  64.401  1.00  0.00    -0.339 A  
HETATM   12  C   UNL     1     -12.414  13.413  65.267  1.00  0.00    -0.532 A  
HETATM   13  C   UNL     1     -11.427  12.132  63.464  1.00  0.00    -0.544 A  
HETATM   14  C   UNL     1     -12.268  13.163  63.907  1.00  0.00    -0.503 A  
BRANCH   7  15
HETATM   15  N   UNL     1      -8.528   8.898  65.579  1.00  0.00    -0.149 NA 
HETATM   16  N   UNL     1      -6.154   8.079  67.790  1.00  0.00    -0.046 NA 
HETATM   17  C   UNL     1      -8.504   7.151  67.429  1.00  0.00    -0.122 C  
HETATM   18  C   UNL     1      -6.642   9.320  67.170  1.00  0.00    -0.068 C  
HETATM   19  C   UNL     1      -8.990   7.576  66.036  1.00  0.00    -0.127 C  
HETATM   20  C   UNL     1      -5.968   8.284  69.226  1.00  0.00    -0.038 C  
HETATM   21  C   UNL     1      -7.093   9.166  65.707  1.00  0.00    -0.085 C  
HETATM   22  C   UNL     1      -6.992   6.907  67.508  1.00  0.00    -0.083 C  
ENDBRANCH   7  15
ENDBRANCH   5   6
ENDBRANCH   4   5
ENDBRANCH   3   4
ENDBRANCH   2   3
TORSDOF 5
ENDMDL
MODEL      101
REMARK 921   NORMALIZED FREE ENERGY PREDICTED BY IDOCK:   -4.28 KCAL/MOL
REMARK 922        TOTAL FREE ENERGY PREDICTED BY IDOCK:   -6.17 KCAL/MOL
REMARK 923 INTER-LIGAND FREE ENERGY PREDICTED BY IDOCK:   -5.81 KCAL/MOL
REMARK 924 INTRA-LIGAND FREE ENERGY PREDICTED BY IDOCK:   -0.36 KCAL/MOL
REMARK 927      BINDING AFFINITY PREDICTED BY RF-SCORE:    0.00 PKD
ROOT
HETATM    1  C   UNL     1      -6.616  10.211  68.674  1.00  0.00    -0.053 C  
HETATM    2  C   UNL     1      -7.352  10.724  67.462  1.00  0.00    -0.092 C  
ENDROOT
BRANCH   2   3
HETATM    3  O   UNL     1      -8.706  10.261  67.506  1.00  0.00    -0.125 OA 
BRANCH   3   4
HETATM    4  C   UNL     1      -9.536  11.222  66.854  1.00  0.00    -0.177 C  
BRANCH   4   5
HETATM    5  C   UNL     1     -10.972  11.163  67.330  1.00  0.00    -0.290 C  
BRANCH   5   6
HETATM    6  N   UNL     1     -11.327  11.997  68.467  1.00  0.00    -0.247 NA 
HETATM    7  C   UNL     1     -11.813  11.522  69.694  1.00  0.00    -0.354 A  
HETATM    8  N   UNL     1     -12.161  12.542  70.455  1.00  0.00    -0.345 NA 
HETATM    9  C   UNL     1     -11.358  13.387  68.499  1.00  0.00    -0.289 A  
HETATM   10  C   UNL     1     -11.020  14.424  67.602  1.00  0.00    -0.294 A  
HETATM   11  C   UNL     1     -11.878  13.683  69.753  1.00  0.00    -0.327 A  
HETATM   12  C   UNL     1     -11.206  15.752  67.981  1.00  0.00    -0.338 A  
HETATM   13  C   UNL     1     -12.065  15.029  70.128  1.00  0.00    -0.378 A  
HETATM   14  C   UNL     1     -11.720  16.056  69.237  1.00  0.00    -0.302 A  
BRANCH   7  15
HETATM   15  N   UNL     1     -12.017  10.201  70.006  1.00  0.00    -0.184 NA 
HETATM   16  N   UNL     1     -10.716   7.807  71.949  1.00  0.00    -0.218 NA 
HETATM   17  C   UNL     1     -12.802   9.249  72.232  1.00  0.00    -0.459 C  
HETATM   18  C   UNL     1     -10.189   8.888  71.102  1.00  0.00    -0.266 C  
HETATM   19  C   UNL     1     -13.161   9.864  70.872  1.00  0.00    -0.274 C  
HETATM   20  C   UNL     1     -10.005   7.790  73.227  1.00  0.00    -0.307 C  
HETATM   21  C   UNL     1     -11.007   9.153  69.827  1.00  0.00    -0.181 C  
HETATM   22  C   UNL     1     -12.172   7.854  72.133  1.00  0.00    -0.310 C  
ENDBRANCH   7  15
ENDBRANCH   5   6
ENDBRANCH   4   5
ENDBRANCH   3   4
ENDBRANCH   2   3
TORSDOF 5
ENDMDL
MODEL      102
REMARK 921   NORMALIZED FREE ENERGY PREDICTED BY IDOCK:   -4.28 KCAL/MOL
REMARK 922        TOTAL FREE ENERGY PREDICTED BY IDOCK:   -6.16 KCAL/MOL
REMARK 923 INTER-LIGAND FREE ENERGY PREDICTED BY IDOCK:   -5.92 KCAL/MOL
REMARK 924 INTRA-LIGAND FREE ENERGY PREDICTED BY IDOCK:   -0.24 KCAL/MOL
REMARK 927      BINDING AFFINITY PREDICTED BY RF-SCORE:    0.00 PKD
ROOT
HETATM    1  C   UNL     1      -9.132   6.377  68.605  1.00  0.00    -0.127 C  
HETATM    2  C   UNL     1      -9.768   7.022  67.399  1.00  0.00    -0.141 C  
ENDROOT
BRANCH   2   3
HETATM    3  O   UNL     1      -9.517   8.431  67.435  1.00  0.00    -0.140 OA 
BRANCH   3   4
HETATM    4  C   UNL     1      -8.514   8.690  68.417  1.00  0.00    -0.131 C  
BRANCH   4   5
HETATM    5  C   UNL     1      -8.663  10.058  69.048  1.00  0.00    -0.158 C  
BRANCH   5   6
HETATM    6  N   UNL     1     -10.008  10.480  69.402  1.00  0.00    -0.219 NA 
HETATM    7  C   UNL     1     -10.662  11.608  68.883  1.00  0.00    -0.207 A  
HETATM    8  N   UNL     1     -11.811  11.779  69.510  1.00  0.00    -0.324 NA 
HETATM    9  C   UNL     1     -10.823   9.922  70.381  1.00  0.00    -0.319 A  
HETATM   10  C   UNL     1     -10.737   8.814  71.253  1.00  0.00    -0.339 A  
HETATM   11  C   UNL     1     -11.933  10.757  70.412  1.00  0.00    -0.357 A  
HETATM   12  C   UNL     1     -11.775   8.557  72.146  1.00  0.00    -0.448 A  
HETATM   13  C   UNL     1     -12.978  10.491  71.320  1.00  0.00    -0.532 A  
HETATM   14  C   UNL     1     -12.892   9.385  72.179  1.00  0.00    -0.480 A  
BRANCH   7  15
HETATM   15  N   UNL     1     -10.132  12.474  67.959  1.00  0.00    -0.214 NA 
HETATM   16  N   UNL     1     -10.373  15.682  67.037  1.00  0.00    -0.283 NA 
HETATM   17  C   UNL     1      -8.603  14.458  68.410  1.00  0.00    -0.174 C  
HETATM   18  C   UNL     1     -11.307  14.628  67.462  1.00  0.00    -0.348 C  
HETATM   19  C   UNL     1      -8.753  12.950  68.169  1.00  0.00    -0.190 C  
HETATM   20  C   UNL     1     -10.692  16.932  67.727  1.00  0.00    -0.315 C  
HETATM   21  C   UNL     1     -10.933  13.216  66.981  1.00  0.00    -0.269 C  
HETATM   22  C   UNL     1      -8.959  15.317  67.190  1.00  0.00    -0.209 C  
ENDBRANCH   7  15
ENDBRANCH   5   6
ENDBRANCH   4   5
ENDBRANCH   3   4
ENDBRANCH   2   3
TORSDOF 5
ENDMDL
MODEL      103
REMARK 921   NORMALIZED FREE ENERGY PREDICTED BY IDOCK:   -4.27 KCAL/MOL
REMARK 922        TOTAL FREE ENERGY PREDICTED BY IDOCK:   -6.15 KCAL/MOL
REMARK 923 INTER-LIGAND FREE ENERGY PREDICTED BY IDOCK:   -5.76 KCAL/MOL
REMARK 924 INTRA-LIGAND FREE ENERGY PREDICTED BY IDOCK:   -0.40 KCAL/MOL
REMARK 927      BINDING AFFINITY PREDICTED BY RF-SCORE:    0.00 PKD
ROOT
HETATM    1  C   UNL     1     -13.206  10.016  71.880  1.00  0.00    -0.557 C  
HETATM    2  C   UNL     1     -11.835   9.480  71.551  1.00  0.00    -0.405 C  
ENDROOT
BRANCH   2   3
HETATM    3  O   UNL     1     -11.170  10.399  70.677  1.00  0.00    -0.319 OA 
BRANCH   3   4
HETATM    4  C   UNL     1     -12.150  11.044  69.866  1.00  0.00    -0.361 C  
BRANCH   4   5
HETATM    5  C   UNL     1     -11.643  11.337  68.469  1.00  0.00    -0.315 C  
BRANCH   5   6
HETATM    6  N   UNL     1     -10.749  12.472  68.315  1.00  0.00    -0.220 NA 
HETATM    7  C   UNL     1      -9.466  12.417  67.752  1.00  0.00    -0.199 A  
HETATM    8  N   UNL     1      -8.874  13.589  67.887  1.00  0.00    -0.179 NA 
HETATM    9  C   UNL     1     -10.955  13.762  68.794  1.00  0.00    -0.264 A  
HETATM   10  C   UNL     1     -12.006  14.437  69.453  1.00  0.00    -0.370 A  
HETATM   11  C   UNL     1      -9.768  14.423  68.502  1.00  0.00    -0.225 A  
HETATM   12  C   UNL     1     -11.850  15.775  69.810  1.00  0.00    -0.352 A  
HETATM   13  C   UNL     1      -9.618  15.776  68.868  1.00  0.00    -0.229 A  
HETATM   14  C   UNL     1     -10.667  16.445  69.516  1.00  0.00    -0.325 A  
BRANCH   7  15
HETATM   15  N   UNL     1      -8.867  11.285  67.256  1.00  0.00    -0.148 NA 
HETATM   16  N   UNL     1      -9.063   7.957  67.547  1.00  0.00    -0.133 NA 
HETATM   17  C   UNL     1      -9.910   9.536  65.729  1.00  0.00    -0.363 C  
HETATM   18  C   UNL     1      -9.139   9.108  68.461  1.00  0.00    -0.132 C  
HETATM   19  C   UNL     1      -9.188  10.883  65.875  1.00  0.00    -0.191 C  
HETATM   20  C   UNL     1     -10.135   7.011  67.855  1.00  0.00    -0.169 C  
HETATM   21  C   UNL     1      -8.209  10.276  68.091  1.00  0.00    -0.114 C  
HETATM   22  C   UNL     1      -9.051   8.328  66.127  1.00  0.00    -0.189 C  
ENDBRANCH   7  15
ENDBRANCH   5   6
ENDBRANCH   4   5
ENDBRANCH   3   4
ENDBRANCH   2   3
TORSDOF 5
ENDMDL
MODEL      104
REMARK 921   NORMALIZED FREE ENERGY PREDICTED BY IDOCK:   -4.27 KCAL/MOL
REMARK 922        TOTAL FREE ENERGY PREDICTED BY IDOCK:   -6.15 KCAL/MOL
REMARK 923 INTER-LIGAND FREE ENERGY PREDICTED BY IDOCK:   -5.69 KCAL/MOL
REMARK 924 INTRA-LIGAND FREE ENERGY PREDICTED BY IDOCK:   -0.46 KCAL/MOL
REMARK 927      BINDING AFFINITY PREDICTED BY RF-SCORE:    0.00 PKD
ROOT
HETATM    1  C   UNL     1      -7.221   7.976  70.550  1.00  0.00    -0.052 C  
HETATM    2  C   UNL     1      -7.518   9.135  69.631  1.00  0.00    -0.078 C  
ENDROOT
BRANCH   2   3
HETATM    3  O   UNL     1      -7.944   8.628  68.361  1.00  0.00    -0.110 OA 
BRANCH   3   4
HETATM    4  C   UNL     1      -9.090   9.364  67.939  1.00  0.00    -0.129 C  
BRANCH   4   5
HETATM    5  C   UNL     1      -9.455  10.471  68.907  1.00  0.00    -0.193 C  
BRANCH   5   6
HETATM    6  N   UNL     1     -10.791  10.435  69.478  1.00  0.00    -0.238 NA 
HETATM    7  C   UNL     1     -11.853  11.267  69.095  1.00  0.00    -0.355 A  
HETATM    8  N   UNL     1     -12.881  11.069  69.899  1.00  0.00    -0.062 NA 
HETATM    9  C   UNL     1     -11.212   9.670  70.560  1.00  0.00    -0.297 A  
HETATM   10  C   UNL     1     -10.628   8.681  71.383  1.00  0.00    -0.334 A  
HETATM   11  C   UNL     1     -12.516  10.092  70.785  1.00  0.00    -0.326 A  
HETATM   12  C   UNL     1     -11.370   8.123  72.423  1.00  0.00    -0.456 A  
HETATM   13  C   UNL     1     -13.258   9.524  71.841  1.00  0.00    -0.524 A  
HETATM   14  C   UNL     1     -12.678   8.536  72.650  1.00  0.00    -0.241 A  
BRANCH   7  15
HETATM   15  N   UNL     1     -11.792  12.231  68.119  1.00  0.00    -0.394 NA 
HETATM   16  N   UNL     1      -9.753  14.664  67.059  1.00  0.00    -0.237 NA 
HETATM   17  C   UNL     1     -10.189  12.322  66.144  1.00  0.00    -0.263 C  
HETATM   18  C   UNL     1     -10.194  14.143  68.362  1.00  0.00    -0.247 C  
HETATM   19  C   UNL     1     -11.505  11.801  66.739  1.00  0.00    -0.281 C  
HETATM   20  C   UNL     1      -8.306  14.877  67.077  1.00  0.00    -0.216 C  
HETATM   21  C   UNL     1     -11.656  13.665  68.394  1.00  0.00    -0.342 C  
HETATM   22  C   UNL     1     -10.171  13.839  65.919  1.00  0.00    -0.313 C  
ENDBRANCH   7  15
ENDBRANCH   5   6
ENDBRANCH   4   5
ENDBRANCH   3   4
ENDBRANCH   2   3
TORSDOF 5
ENDMDL
MODEL      105
REMARK 921   NORMALIZED FREE ENERGY PREDICTED BY IDOCK:   -4.26 KCAL/MOL
REMARK 922        TOTAL FREE ENERGY PREDICTED BY IDOCK:   -6.13 KCAL/MOL
REMARK 923 INTER-LIGAND FREE ENERGY PREDICTED BY IDOCK:   -5.68 KCAL/MOL
REMARK 924 INTRA-LIGAND FREE ENERGY PREDICTED BY IDOCK:   -0.46 KCAL/MOL
REMARK 927      BINDING AFFINITY PREDICTED BY RF-SCORE:    0.00 PKD
ROOT
HETATM    1  C   UNL     1      -5.631  11.235  68.089  1.00  0.00    -0.042 C  
HETATM    2  C   UNL     1      -6.309  12.322  67.293  1.00  0.00    -0.150 C  
ENDROOT
BRANCH   2   3
HETATM    3  O   UNL     1      -7.337  12.918  68.091  1.00  0.00    -0.097 OA 
BRANCH   3   4
HETATM    4  C   UNL     1      -7.374  14.317  67.815  1.00  0.00    -0.174 C  
BRANCH   4   5
HETATM    5  C   UNL     1      -8.469  14.684  66.836  1.00  0.00    -0.173 C  
BRANCH   5   6
HETATM    6  N   UNL     1      -9.011  16.030  66.925  1.00  0.00    -0.211 NA 
HETATM    7  C   UNL     1     -10.319  16.349  67.318  1.00  0.00    -0.287 A  
HETATM    8  N   UNL     1     -10.524  17.643  67.160  1.00  0.00    -0.338 NA 
HETATM    9  C   UNL     1      -8.381  17.206  66.532  1.00  0.00    -0.274 A  
HETATM   10  C   UNL     1      -7.101  17.548  66.039  1.00  0.00    -0.299 A  
HETATM   11  C   UNL     1      -9.354  18.183  66.699  1.00  0.00    -0.297 A  
HETATM   12  C   UNL     1      -6.816  18.876  65.724  1.00  0.00    -0.307 A  
HETATM   13  C   UNL     1      -9.058  19.522  66.375  1.00  0.00    -0.417 A  
HETATM   14  C   UNL     1      -7.784  19.859  65.894  1.00  0.00    -0.327 A  
BRANCH   7  15
HETATM   15  N   UNL     1     -11.278  15.438  67.686  1.00  0.00    -0.324 NA 
HETATM   16  N   UNL     1     -11.963  12.178  67.359  1.00  0.00    -0.570 NA 
HETATM   17  C   UNL     1     -11.021  13.508  69.324  1.00  0.00    -0.169 C  
HETATM   18  C   UNL     1     -11.426  13.241  66.495  1.00  0.00    -0.337 C  
HETATM   19  C   UNL     1     -11.310  14.997  69.091  1.00  0.00    -0.296 C  
HETATM   20  C   UNL     1     -11.158  10.966  67.210  1.00  0.00    -0.283 C  
HETATM   21  C   UNL     1     -12.044  14.629  66.733  1.00  0.00    -0.200 C  
HETATM   22  C   UNL     1     -12.103  12.574  68.766  1.00  0.00    -0.110 C  
ENDBRANCH   7  15
ENDBRANCH   5   6
ENDBRANCH   4   5
ENDBRANCH   3   4
ENDBRANCH   2   3
TORSDOF 5
ENDMDL
MODEL      106
REMARK 921   NORMALIZED FREE ENERGY PREDICTED BY IDOCK:   -4.26 KCAL/MOL
REMARK 922        TOTAL FREE ENERGY PREDICTED BY IDOCK:   -6.13 KCAL/MOL
REMARK 923 INTER-LIGAND FREE ENERGY PREDICTED BY IDOCK:   -5.90 KCAL/MOL
REMARK 924 INTRA-LIGAND FREE ENERGY PREDICTED BY IDOCK:   -0.23 KCAL/MOL
REMARK 927      BINDING AFFINITY PREDICTED BY RF-SCORE:    0.00 PKD
ROOT
HETATM    1  C   UNL     1     -12.972  10.108  71.774  1.00  0.00    -0.567 C  
HETATM    2  C   UNL     1     -12.309  11.118  70.870  1.00  0.00    -0.399 C  
ENDROOT
BRANCH   2   3
HETATM    3  O   UNL     1     -12.835  10.979  69.546  1.00  0.00    -0.188 OA 
BRANCH   3   4
HETATM    4  C   UNL     1     -11.898  11.534  68.625  1.00  0.00    -0.318 C  
BRANCH   4   5
HETATM    5  C   UNL     1     -10.642  10.698  68.503  1.00  0.00    -0.200 C  
BRANCH   5   6
HETATM    6  N   UNL     1     -10.303  10.204  67.179  1.00  0.00    -0.224 NA 
HETATM    7  C   UNL     1      -9.774   8.934  66.903  1.00  0.00    -0.202 A  
HETATM    8  N   UNL     1      -9.456   8.856  65.625  1.00  0.00    -0.206 NA 
HETATM    9  C   UNL     1     -10.330  10.926  65.990  1.00  0.00    -0.245 A  
HETATM   10  C   UNL     1     -10.729  12.227  65.611  1.00  0.00    -0.302 A  
HETATM   11  C   UNL     1      -9.801  10.050  65.051  1.00  0.00    -0.304 A  
HETATM   12  C   UNL     1     -10.594  12.630  64.283  1.00  0.00    -0.408 A  
HETATM   13  C   UNL     1      -9.665  10.467  63.711  1.00  0.00    -0.351 A  
HETATM   14  C   UNL     1     -10.070  11.756  63.336  1.00  0.00    -0.470 A  
BRANCH   7  15
HETATM   15  N   UNL     1      -9.507   7.968  67.841  1.00  0.00    -0.144 NA 
HETATM   16  N   UNL     1      -9.136   7.657  71.153  1.00  0.00    -0.145 NA 
HETATM   17  C   UNL     1     -11.090   7.070  69.620  1.00  0.00    -0.254 C  
HETATM   18  C   UNL     1      -8.739   8.636  70.128  1.00  0.00    -0.143 C  
HETATM   19  C   UNL     1     -10.579   7.013  68.174  1.00  0.00    -0.204 C  
HETATM   20  C   UNL     1      -9.674   8.355  72.320  1.00  0.00    -0.316 C  
HETATM   21  C   UNL     1      -8.372   8.020  68.768  1.00  0.00    -0.127 C  
HETATM   22  C   UNL     1     -10.054   6.624  70.660  1.00  0.00    -0.184 C  
ENDBRANCH   7  15
ENDBRANCH   5   6
ENDBRANCH   4   5
ENDBRANCH   3   4
ENDBRANCH   2   3
TORSDOF 5
ENDMDL
MODEL      107
REMARK 921   NORMALIZED FREE ENERGY PREDICTED BY IDOCK:   -4.26 KCAL/MOL
REMARK 922        TOTAL FREE ENERGY PREDICTED BY IDOCK:   -6.13 KCAL/MOL
REMARK 923 INTER-LIGAND FREE ENERGY PREDICTED BY IDOCK:   -5.46 KCAL/MOL
REMARK 924 INTRA-LIGAND FREE ENERGY PREDICTED BY IDOCK:   -0.67 KCAL/MOL
REMARK 927      BINDING AFFINITY PREDICTED BY RF-SCORE:    0.00 PKD
ROOT
HETATM    1  C   UNL     1     -12.666  13.884  65.433  1.00  0.00    -0.525 C  
HETATM    2  C   UNL     1     -11.931  12.570  65.530  1.00  0.00    -0.442 C  
ENDROOT
BRANCH   2   3
HETATM    3  O   UNL     1     -12.145  12.009  66.829  1.00  0.00    -0.613 OA 
BRANCH   3   4
HETATM    4  C   UNL     1     -10.923  12.079  67.562  1.00  0.00    -0.253 C  
BRANCH   4   5
HETATM    5  C   UNL     1     -10.030  10.882  67.312  1.00  0.00    -0.186 C  
BRANCH   5   6
HETATM    6  N   UNL     1      -9.077  10.539  68.356  1.00  0.00    -0.142 NA 
HETATM    7  C   UNL     1      -9.347   9.705  69.451  1.00  0.00    -0.193 A  
HETATM    8  N   UNL     1      -8.316   9.710  70.275  1.00  0.00    -0.192 NA 
HETATM    9  C   UNL     1      -7.797  11.058  68.515  1.00  0.00    -0.129 A  
HETATM   10  C   UNL     1      -6.968  11.939  67.785  1.00  0.00    -0.102 A  
HETATM   11  C   UNL     1      -7.359  10.514  69.716  1.00  0.00    -0.134 A  
HETATM   12  C   UNL     1      -5.702  12.259  68.272  1.00  0.00    -0.057 A  
HETATM   13  C   UNL     1      -6.078  10.845  70.203  1.00  0.00    -0.132 A  
HETATM   14  C   UNL     1      -5.255  11.713  69.471  1.00  0.00    -0.057 A  
BRANCH   7  15
HETATM   15  N   UNL     1     -10.546   9.082  69.694  1.00  0.00    -0.223 NA 
HETATM   16  N   UNL     1     -11.761   6.446  71.360  1.00  0.00    -0.317 NA 
HETATM   17  C   UNL     1     -11.783   8.937  71.914  1.00  0.00    -0.439 C  
HETATM   18  C   UNL     1     -10.571   6.726  70.542  1.00  0.00    -0.225 C  
HETATM   19  C   UNL     1     -11.482   9.726  70.632  1.00  0.00    -0.324 C  
HETATM   20  C   UNL     1     -11.369   5.721  72.568  1.00  0.00    -0.307 C  
HETATM   21  C   UNL     1     -10.821   7.681  69.362  1.00  0.00    -0.127 C  
HETATM   22  C   UNL     1     -12.560   7.637  71.671  1.00  0.00    -0.339 C  
ENDBRANCH   7  15
ENDBRANCH   5   6
ENDBRANCH   4   5
ENDBRANCH   3   4
ENDBRANCH   2   3
TORSDOF 5
ENDMDL
MODEL      108
REMARK 921   NORMALIZED FREE ENERGY PREDICTED BY IDOCK:   -4.25 KCAL/MOL
REMARK 922        TOTAL FREE ENERGY PREDICTED BY IDOCK:   -6.12 KCAL/MOL
REMARK 923 INTER-LIGAND FREE ENERGY PREDICTED BY IDOCK:   -5.60 KCAL/MOL
REMARK 924 INTRA-LIGAND FREE ENERGY PREDICTED BY IDOCK:   -0.52 KCAL/MOL
REMARK 927      BINDING AFFINITY PREDICTED BY RF-SCORE:    0.00 PKD
ROOT
HETATM    1  C   UNL     1      -6.683   9.998  64.620  1.00  0.00    -0.128 C  
HETATM    2  C   UNL     1      -7.833   9.054  64.376  1.00  0.00    -0.125 C  
ENDROOT
BRANCH   2   3
HETATM    3  O   UNL     1      -8.850   9.735  63.633  1.00  0.00    -0.206 OA 
BRANCH   3   4
HETATM    4  C   UNL     1      -9.192  10.935  64.326  1.00  0.00    -0.197 C  
BRANCH   4   5
HETATM    5  C   UNL     1     -10.583  10.882  64.922  1.00  0.00    -0.234 C  
BRANCH   5   6
HETATM    6  N   UNL     1     -10.682  10.905  66.372  1.00  0.00    -0.229 NA 
HETATM    7  C   UNL     1     -10.814  12.063  67.152  1.00  0.00    -0.253 A  
HETATM    8  N   UNL     1     -10.741  11.745  68.431  1.00  0.00    -0.209 NA 
HETATM    9  C   UNL     1     -10.548   9.820  67.231  1.00  0.00    -0.255 A  
HETATM   10  C   UNL     1     -10.377   8.426  67.075  1.00  0.00    -0.385 A  
HETATM   11  C   UNL     1     -10.595  10.385  68.499  1.00  0.00    -0.209 A  
HETATM   12  C   UNL     1     -10.260   7.615  68.203  1.00  0.00    -0.236 A  
HETATM   13  C   UNL     1     -10.473   9.558  69.634  1.00  0.00    -0.239 A  
HETATM   14  C   UNL     1     -10.312   8.174  69.475  1.00  0.00    -0.222 A  
BRANCH   7  15
HETATM   15  N   UNL     1     -10.878  13.344  66.662  1.00  0.00    -0.281 NA 
HETATM   16  N   UNL     1     -10.982  16.499  67.773  1.00  0.00    -0.298 NA 
HETATM   17  C   UNL     1      -9.069  15.131  66.782  1.00  0.00    -0.282 C  
HETATM   18  C   UNL     1     -11.581  15.215  68.170  1.00  0.00    -0.341 C  
HETATM   19  C   UNL     1      -9.662  13.915  66.057  1.00  0.00    -0.250 C  
HETATM   20  C   UNL     1     -10.473  17.193  68.956  1.00  0.00    -0.321 C  
HETATM   21  C   UNL     1     -11.945  14.293  66.994  1.00  0.00    -0.433 C  
HETATM   22  C   UNL     1      -9.960  16.378  66.726  1.00  0.00    -0.272 C  
ENDBRANCH   7  15
ENDBRANCH   5   6
ENDBRANCH   4   5
ENDBRANCH   3   4
ENDBRANCH   2   3
TORSDOF 5
ENDMDL
MODEL      109
REMARK 921   NORMALIZED FREE ENERGY PREDICTED BY IDOCK:   -4.25 KCAL/MOL
REMARK 922        TOTAL FREE ENERGY PREDICTED BY IDOCK:   -6.12 KCAL/MOL
REMARK 923 INTER-LIGAND FREE ENERGY PREDICTED BY IDOCK:   -5.24 KCAL/MOL
REMARK 924 INTRA-LIGAND FREE ENERGY PREDICTED BY IDOCK:   -0.88 KCAL/MOL
REMARK 927      BINDING AFFINITY PREDICTED BY RF-SCORE:    0.00 PKD
ROOT
HETATM    1  C   UNL     1      -7.294  10.160  65.505  1.00  0.00    -0.143 C  
HETATM    2  C   UNL     1      -8.357  11.044  66.110  1.00  0.00    -0.163 C  
ENDROOT
BRANCH   2   3
HETATM    3  O   UNL     1      -7.772  11.835  67.150  1.00  0.00    -0.148 OA 
BRANCH   3   4
HETATM    4  C   UNL     1      -8.816  12.317  67.995  1.00  0.00    -0.182 C  
BRANCH   4   5
HETATM    5  C   UNL     1     -10.137  11.625  67.734  1.00  0.00    -0.187 C  
BRANCH   5   6
HETATM    6  N   UNL     1     -10.733  10.899  68.844  1.00  0.00    -0.201 NA 
HETATM    7  C   UNL     1     -10.650   9.512  69.037  1.00  0.00    -0.219 A  
HETATM    8  N   UNL     1     -11.409   9.162  70.058  1.00  0.00    -0.155 NA 
HETATM    9  C   UNL     1     -11.571  11.421  69.823  1.00  0.00    -0.332 A  
HETATM   10  C   UNL     1     -12.052  12.707  70.158  1.00  0.00    -0.368 A  
HETATM   11  C   UNL     1     -11.964  10.309  70.558  1.00  0.00    -0.323 A  
HETATM   12  C   UNL     1     -12.922  12.858  71.236  1.00  0.00    -0.317 A  
HETATM   13  C   UNL     1     -12.847  10.472  71.646  1.00  0.00    -0.581 A  
HETATM   14  C   UNL     1     -13.315  11.751  71.980  1.00  0.00    -0.417 A  
BRANCH   7  15
HETATM   15  N   UNL     1      -9.987   8.636  68.213  1.00  0.00    -0.174 NA 
HETATM   16  N   UNL     1      -8.794   5.510  68.242  1.00  0.00    -0.105 NA 
HETATM   17  C   UNL     1     -10.901   6.493  67.189  1.00  0.00    -0.472 C  
HETATM   18  C   UNL     1      -8.849   6.633  69.191  1.00  0.00    -0.129 C  
HETATM   19  C   UNL     1     -10.743   8.018  67.110  1.00  0.00    -0.215 C  
HETATM   20  C   UNL     1      -9.169   4.270  68.923  1.00  0.00    -0.145 C  
HETATM   21  C   UNL     1      -8.699   8.020  68.544  1.00  0.00    -0.131 C  
HETATM   22  C   UNL     1      -9.583   5.726  67.023  1.00  0.00    -0.135 C  
ENDBRANCH   7  15
ENDBRANCH   5   6
ENDBRANCH   4   5
ENDBRANCH   3   4
ENDBRANCH   2   3
TORSDOF 5
ENDMDL
MODEL      110
REMARK 921   NORMALIZED FREE ENERGY PREDICTED BY IDOCK:   -4.23 KCAL/MOL
REMARK 922        TOTAL FREE ENERGY PREDICTED BY IDOCK:   -6.10 KCAL/MOL
REMARK 923 INTER-LIGAND FREE ENERGY PREDICTED BY IDOCK:   -5.69 KCAL/MOL
REMARK 924 INTRA-LIGAND FREE ENERGY PREDICTED BY IDOCK:   -0.41 KCAL/MOL
REMARK 927      BINDING AFFINITY PREDICTED BY RF-SCORE:    0.00 PKD
ROOT
HETATM    1  C   UNL     1     -13.014  12.253  64.071  1.00  0.00    -0.296 C  
HETATM    2  C   UNL     1     -11.909  13.130  63.538  1.00  0.00    -0.476 C  
ENDROOT
BRANCH   2   3
HETATM    3  O   UNL     1     -12.014  14.429  64.130  1.00  0.00    -0.422 OA 
BRANCH   3   4
HETATM    4  C   UNL     1     -10.831  14.682  64.885  1.00  0.00    -0.419 C  
BRANCH   4   5
HETATM    5  C   UNL     1     -11.132  15.115  66.305  1.00  0.00    -0.309 C  
BRANCH   5   6
HETATM    6  N   UNL     1     -10.214  16.062  66.916  1.00  0.00    -0.274 NA 
HETATM    7  C   UNL     1      -9.309  15.758  67.943  1.00  0.00    -0.200 A  
HETATM    8  N   UNL     1      -8.724  16.866  68.359  1.00  0.00    -0.235 NA 
HETATM    9  C   UNL     1     -10.152  17.431  66.679  1.00  0.00    -0.317 A  
HETATM   10  C   UNL     1     -10.799  18.332  65.804  1.00  0.00     0.005 A  
HETATM   11  C   UNL     1      -9.212  17.889  67.593  1.00  0.00    -0.258 A  
HETATM   12  C   UNL     1     -10.487  19.689  65.858  1.00  0.00    -0.591 A  
HETATM   13  C   UNL     1      -8.904  19.264  67.642  1.00  0.00    -0.342 A  
HETATM   14  C   UNL     1      -9.542  20.155  66.766  1.00  0.00    -0.559 A  
BRANCH   7  15
HETATM   15  N   UNL     1      -9.149  14.521  68.518  1.00  0.00    -0.187 NA 
HETATM   16  N   UNL     1     -10.725  11.575  68.712  1.00  0.00    -0.204 NA 
HETATM   17  C   UNL     1      -8.714  12.315  67.326  1.00  0.00    -0.188 C  
HETATM   18  C   UNL     1     -11.119  12.992  68.737  1.00  0.00    -0.270 C  
HETATM   19  C   UNL     1      -8.152  13.609  67.930  1.00  0.00    -0.164 C  
HETATM   20  C   UNL     1     -11.625  10.828  67.834  1.00  0.00    -0.128 C  
HETATM   21  C   UNL     1     -10.115  13.919  69.442  1.00  0.00     0.337 C  
HETATM   22  C   UNL     1      -9.315  11.358  68.364  1.00  0.00    -0.194 C  
ENDBRANCH   7  15
ENDBRANCH   5   6
ENDBRANCH   4   5
ENDBRANCH   3   4
ENDBRANCH   2   3
TORSDOF 5
ENDMDL
MODEL      111
REMARK 921   NORMALIZED FREE ENERGY PREDICTED BY IDOCK:   -4.22 KCAL/MOL
REMARK 922        TOTAL FREE ENERGY PREDICTED BY IDOCK:   -6.09 KCAL/MOL
REMARK 923 INTER-LIGAND FREE ENERGY PREDICTED BY IDOCK:   -5.15 KCAL/MOL
REMARK 924 INTRA-LIGAND FREE ENERGY PREDICTED BY IDOCK:   -0.93 KCAL/MOL
REMARK 927      BINDING AFFINITY PREDICTED BY RF-SCORE:    0.00 PKD
ROOT
HETATM    1  C   UNL     1     -12.905  10.857  71.396  1.00  0.00    -0.554 C  
HETATM    2  C   UNL     1     -12.110  11.570  70.330  1.00  0.00    -0.382 C  
ENDROOT
BRANCH   2   3
HETATM    3  O   UNL     1     -12.489  11.064  69.046  1.00  0.00    -0.449 OA 
BRANCH   3   4
HETATM    4  C   UNL     1     -11.384  11.213  68.155  1.00  0.00    -0.309 C  
BRANCH   4   5
HETATM    5  C   UNL     1     -10.057  10.938  68.829  1.00  0.00    -0.194 C  
BRANCH   5   6
HETATM    6  N   UNL     1      -9.418   9.666  68.536  1.00  0.00    -0.141 NA 
HETATM    7  C   UNL     1      -9.564   8.497  69.297  1.00  0.00    -0.170 A  
HETATM    8  N   UNL     1      -8.749   7.566  68.838  1.00  0.00    -0.132 NA 
HETATM    9  C   UNL     1      -8.478   9.418  67.541  1.00  0.00    -0.122 A  
HETATM   10  C   UNL     1      -7.901  10.165  66.491  1.00  0.00    -0.112 A  
HETATM   11  C   UNL     1      -8.093   8.101  67.762  1.00  0.00    -0.127 A  
HETATM   12  C   UNL     1      -6.943   9.575  65.669  1.00  0.00    -0.092 A  
HETATM   13  C   UNL     1      -7.121   7.512  66.928  1.00  0.00    -0.084 A  
HETATM   14  C   UNL     1      -6.556   8.255  65.881  1.00  0.00    -0.053 A  
BRANCH   7  15
HETATM   15  N   UNL     1     -10.338   8.378  70.425  1.00  0.00    -0.201 NA 
HETATM   16  N   UNL     1     -11.435   6.021  72.532  1.00  0.00    -0.298 NA 
HETATM   17  C   UNL     1      -9.563   7.740  72.764  1.00  0.00    -0.281 C  
HETATM   18  C   UNL     1     -11.245   6.138  71.078  1.00  0.00    -0.296 C  
HETATM   19  C   UNL     1      -9.767   8.833  71.706  1.00  0.00    -0.310 C  
HETATM   20  C   UNL     1     -10.921   4.732  72.994  1.00  0.00    -0.272 C  
HETATM   21  C   UNL     1     -11.536   7.538  70.509  1.00  0.00    -0.237 C  
HETATM   22  C   UNL     1     -10.871   7.141  73.295  1.00  0.00    -0.338 C  
ENDBRANCH   7  15
ENDBRANCH   5   6
ENDBRANCH   4   5
ENDBRANCH   3   4
ENDBRANCH   2   3
TORSDOF 5
ENDMDL
MODEL      112
REMARK 921   NORMALIZED FREE ENERGY PREDICTED BY IDOCK:   -4.21 KCAL/MOL
REMARK 922        TOTAL FREE ENERGY PREDICTED BY IDOCK:   -6.08 KCAL/MOL
REMARK 923 INTER-LIGAND FREE ENERGY PREDICTED BY IDOCK:   -5.54 KCAL/MOL
REMARK 924 INTRA-LIGAND FREE ENERGY PREDICTED BY IDOCK:   -0.53 KCAL/MOL
REMARK 927      BINDING AFFINITY PREDICTED BY RF-SCORE:    0.00 PKD
ROOT
HETATM    1  C   UNL     1     -12.742  11.041  71.480  1.00  0.00    -0.521 C  
HETATM    2  C   UNL     1     -12.282   9.646  71.137  1.00  0.00    -0.350 C  
ENDROOT
BRANCH   2   3
HETATM    3  O   UNL     1     -10.906   9.690  70.743  1.00  0.00    -0.282 OA 
BRANCH   3   4
HETATM    4  C   UNL     1     -10.765  10.642  69.690  1.00  0.00    -0.244 C  
BRANCH   4   5
HETATM    5  C   UNL     1     -11.271  10.115  68.364  1.00  0.00    -0.177 C  
BRANCH   5   6
HETATM    6  N   UNL     1     -10.454   9.117  67.694  1.00  0.00    -0.255 NA 
HETATM    7  C   UNL     1      -9.636   9.360  66.581  1.00  0.00    -0.192 A  
HETATM    8  N   UNL     1      -9.139   8.219  66.141  1.00  0.00    -0.183 NA 
HETATM    9  C   UNL     1     -10.428   7.752  67.958  1.00  0.00    -0.185 A  
HETATM   10  C   UNL     1     -11.028   6.898  68.910  1.00  0.00    -0.217 A  
HETATM   11  C   UNL     1      -9.596   7.233  66.973  1.00  0.00    -0.166 A  
HETATM   12  C   UNL     1     -10.779   5.527  68.861  1.00  0.00    -0.207 A  
HETATM   13  C   UNL     1      -9.352   5.846  66.930  1.00  0.00    -0.136 A  
HETATM   14  C   UNL     1      -9.943   5.002  67.882  1.00  0.00    -0.193 A  
BRANCH   7  15
HETATM   15  N   UNL     1      -9.479  10.577  65.964  1.00  0.00    -0.175 NA 
HETATM   16  N   UNL     1     -11.265  13.303  65.205  1.00  0.00    -0.297 NA 
HETATM   17  C   UNL     1      -9.558  12.875  67.053  1.00  0.00    -0.231 C  
HETATM   18  C   UNL     1     -11.494  11.849  65.199  1.00  0.00    -0.243 C  
HETATM   19  C   UNL     1      -8.742  11.628  66.688  1.00  0.00    -0.187 C  
HETATM   20  C   UNL     1     -12.414  13.981  65.803  1.00  0.00    -0.494 C  
HETATM   21  C   UNL     1     -10.264  11.013  64.807  1.00  0.00    -0.319 C  
HETATM   22  C   UNL     1     -10.002  13.701  65.839  1.00  0.00    -0.291 C  
ENDBRANCH   7  15
ENDBRANCH   5   6
ENDBRANCH   4   5
ENDBRANCH   3   4
ENDBRANCH   2   3
TORSDOF 5
ENDMDL
MODEL      113
REMARK 921   NORMALIZED FREE ENERGY PREDICTED BY IDOCK:   -4.21 KCAL/MOL
REMARK 922        TOTAL FREE ENERGY PREDICTED BY IDOCK:   -6.07 KCAL/MOL
REMARK 923 INTER-LIGAND FREE ENERGY PREDICTED BY IDOCK:   -5.44 KCAL/MOL
REMARK 924 INTRA-LIGAND FREE ENERGY PREDICTED BY IDOCK:   -0.63 KCAL/MOL
REMARK 927      BINDING AFFINITY PREDICTED BY RF-SCORE:    0.00 PKD
ROOT
HETATM    1  C   UNL     1      -9.234   9.036  64.929  1.00  0.00    -0.056 C  
HETATM    2  C   UNL     1      -9.369  10.030  66.056  1.00  0.00    -0.174 C  
ENDROOT
BRANCH   2   3
HETATM    3  O   UNL     1      -8.489   9.654  67.121  1.00  0.00    -0.129 OA 
BRANCH   3   4
HETATM    4  C   UNL     1      -9.027  10.142  68.349  1.00  0.00    -0.123 C  
BRANCH   4   5
HETATM    5  C   UNL     1     -10.540  10.088  68.379  1.00  0.00    -0.220 C  
BRANCH   5   6
HETATM    6  N   UNL     1     -11.191  10.488  69.616  1.00  0.00    -0.262 NA 
HETATM    7  C   UNL     1     -11.501   9.626  70.678  1.00  0.00    -0.306 A  
HETATM    8  N   UNL     1     -12.205  10.279  71.585  1.00  0.00    -0.349 NA 
HETATM    9  C   UNL     1     -11.716  11.741  69.910  1.00  0.00    -0.323 A  
HETATM   10  C   UNL     1     -11.751  12.997  69.263  1.00  0.00    -0.375 A  
HETATM   11  C   UNL     1     -12.332  11.568  71.143  1.00  0.00    -0.277 A  
HETATM   12  C   UNL     1     -12.405  14.067  69.870  1.00  0.00    -0.367 A  
HETATM   13  C   UNL     1     -12.994  12.656  71.749  1.00  0.00    -0.417 A  
HETATM   14  C   UNL     1     -13.019  13.903  71.107  1.00  0.00    -0.388 A  
BRANCH   7  15
HETATM   15  N   UNL     1     -11.228   8.281  70.712  1.00  0.00    -0.263 NA 
HETATM   16  N   UNL     1      -9.964   5.985  72.793  1.00  0.00    -0.174 NA 
HETATM   17  C   UNL     1     -12.374   6.513  72.139  1.00  0.00    -0.244 C  
HETATM   18  C   UNL     1      -9.653   7.378  72.436  1.00  0.00    -0.153 C  
HETATM   19  C   UNL     1     -12.360   7.349  70.852  1.00  0.00    -0.201 C  
HETATM   20  C   UNL     1      -9.918   5.825  74.246  1.00  0.00    -0.245 C  
HETATM   21  C   UNL     1      -9.894   7.724  70.957  1.00  0.00    -0.174 C  
HETATM   22  C   UNL     1     -11.228   5.497  72.229  1.00  0.00    -0.220 C  
ENDBRANCH   7  15
ENDBRANCH   5   6
ENDBRANCH   4   5
ENDBRANCH   3   4
ENDBRANCH   2   3
TORSDOF 5
ENDMDL
MODEL      114
REMARK 921   NORMALIZED FREE ENERGY PREDICTED BY IDOCK:   -4.18 KCAL/MOL
REMARK 922        TOTAL FREE ENERGY PREDICTED BY IDOCK:   -6.04 KCAL/MOL
REMARK 923 INTER-LIGAND FREE ENERGY PREDICTED BY IDOCK:   -5.44 KCAL/MOL
REMARK 924 INTRA-LIGAND FREE ENERGY PREDICTED BY IDOCK:   -0.59 KCAL/MOL
REMARK 927      BINDING AFFINITY PREDICTED BY RF-SCORE:    0.00 PKD
ROOT
HETATM    1  C   UNL     1     -12.710  10.770  71.241  1.00  0.00    -0.546 C  
HETATM    2  C   UNL     1     -11.713  11.293  70.237  1.00  0.00    -0.324 C  
ENDROOT
BRANCH   2   3
HETATM    3  O   UNL     1     -12.264  11.169  68.921  1.00  0.00    -0.522 OA 
BRANCH   3   4
HETATM    4  C   UNL     1     -11.257  10.653  68.053  1.00  0.00    -0.307 C  
BRANCH   4   5
HETATM    5  C   UNL     1     -10.767  11.684  67.058  1.00  0.00    -0.253 C  
BRANCH   5   6
HETATM    6  N   UNL     1      -9.399  12.151  67.211  1.00  0.00    -0.178 NA 
HETATM    7  C   UNL     1      -9.025  13.477  67.470  1.00  0.00    -0.210 A  
HETATM    8  N   UNL     1      -7.710  13.584  67.416  1.00  0.00    -0.161 NA 
HETATM    9  C   UNL     1      -8.240  11.407  67.015  1.00  0.00    -0.160 A  
HETATM   10  C   UNL     1      -7.947  10.057  66.720  1.00  0.00    -0.114 A  
HETATM   11  C   UNL     1      -7.216  12.334  67.157  1.00  0.00    -0.100 A  
HETATM   12  C   UNL     1      -6.621   9.655  66.573  1.00  0.00    -0.071 A  
HETATM   13  C   UNL     1      -5.877  11.920  67.005  1.00  0.00    -0.153 A  
HETATM   14  C   UNL     1      -5.590  10.577  66.719  1.00  0.00    -0.051 A  
BRANCH   7  15
HETATM   15  N   UNL     1      -9.894  14.529  67.627  1.00  0.00    -0.221 NA 
HETATM   16  N   UNL     1      -9.883  17.723  68.625  1.00  0.00    -0.344 NA 
HETATM   17  C   UNL     1      -9.947  16.694  66.291  1.00  0.00    -0.336 C  
HETATM   18  C   UNL     1      -9.244  16.472  69.065  1.00  0.00    -0.237 C  
HETATM   19  C   UNL     1     -10.365  15.222  66.415  1.00  0.00    -0.289 C  
HETATM   20  C   UNL     1      -8.897  18.803  68.613  1.00  0.00    -0.325 C  
HETATM   21  C   UNL     1     -10.120  15.219  68.900  1.00  0.00    -0.225 C  
HETATM   22  C   UNL     1     -10.587  17.609  67.342  1.00  0.00    -0.318 C  
ENDBRANCH   7  15
ENDBRANCH   5   6
ENDBRANCH   4   5
ENDBRANCH   3   4
ENDBRANCH   2   3
TORSDOF 5
ENDMDL
MODEL      115
REMARK 921   NORMALIZED FREE ENERGY PREDICTED BY IDOCK:   -4.18 KCAL/MOL
REMARK 922        TOTAL FREE ENERGY PREDICTED BY IDOCK:   -6.03 KCAL/MOL
REMARK 923 INTER-LIGAND FREE ENERGY PREDICTED BY IDOCK:   -5.25 KCAL/MOL
REMARK 924 INTRA-LIGAND FREE ENERGY PREDICTED BY IDOCK:   -0.78 KCAL/MOL
REMARK 927      BINDING AFFINITY PREDICTED BY RF-SCORE:    0.00 PKD
ROOT
HETATM    1  C   UNL     1      -9.807  11.916  67.179  1.00  0.00    -0.206 C  
HETATM    2  C   UNL     1     -10.835  10.819  67.056  1.00  0.00    -0.252 C  
ENDROOT
BRANCH   2   3
HETATM    3  O   UNL     1     -10.511   9.767  67.971  1.00  0.00    -0.198 OA 
BRANCH   3   4
HETATM    4  C   UNL     1      -9.747  10.317  69.043  1.00  0.00    -0.205 C  
BRANCH   4   5
HETATM    5  C   UNL     1      -9.465   9.303  70.132  1.00  0.00    -0.226 C  
BRANCH   5   6
HETATM    6  N   UNL     1     -10.507   8.328  70.413  1.00  0.00    -0.210 NA 
HETATM    7  C   UNL     1     -10.506   6.998  69.970  1.00  0.00    -0.215 A  
HETATM    8  N   UNL     1     -11.654   6.427  70.283  1.00  0.00    -0.412 NA 
HETATM    9  C   UNL     1     -11.717   8.568  71.056  1.00  0.00    -0.275 A  
HETATM   10  C   UNL     1     -12.317   9.676  71.695  1.00  0.00    -0.489 A  
HETATM   11  C   UNL     1     -12.396   7.360  70.956  1.00  0.00    -0.268 A  
HETATM   12  C   UNL     1     -13.597   9.552  72.232  1.00  0.00    -0.494 A  
HETATM   13  C   UNL     1     -13.691   7.244  71.501  1.00  0.00    -0.451 A  
HETATM   14  C   UNL     1     -14.280   8.344  72.142  1.00  0.00    -0.486 A  
BRANCH   7  15
HETATM   15  N   UNL     1      -9.519   6.416  69.214  1.00  0.00    -0.136 NA 
HETATM   16  N   UNL     1      -8.071   3.432  68.764  1.00  0.00    -0.061 NA 
HETATM   17  C   UNL     1      -9.809   4.682  67.374  1.00  0.00    -0.207 C  
HETATM   18  C   UNL     1      -8.555   4.214  69.913  1.00  0.00    -0.068 C  
HETATM   19  C   UNL     1      -9.799   6.159  67.790  1.00  0.00    -0.123 C  
HETATM   20  C   UNL     1      -8.512   2.043  68.891  1.00  0.00    -0.059 C  
HETATM   21  C   UNL     1      -8.352   5.733  69.780  1.00  0.00    -0.112 C  
HETATM   22  C   UNL     1      -8.435   4.005  67.462  1.00  0.00    -0.099 C  
ENDBRANCH   7  15
ENDBRANCH   5   6
ENDBRANCH   4   5
ENDBRANCH   3   4
ENDBRANCH   2   3
TORSDOF 5
ENDMDL
MODEL      116
REMARK 921   NORMALIZED FREE ENERGY PREDICTED BY IDOCK:   -4.17 KCAL/MOL
REMARK 922        TOTAL FREE ENERGY PREDICTED BY IDOCK:   -6.03 KCAL/MOL
REMARK 923 INTER-LIGAND FREE ENERGY PREDICTED BY IDOCK:   -5.54 KCAL/MOL
REMARK 924 INTRA-LIGAND FREE ENERGY PREDICTED BY IDOCK:   -0.49 KCAL/MOL
REMARK 927      BINDING AFFINITY PREDICTED BY RF-SCORE:    0.00 PKD
ROOT
HETATM    1  C   UNL     1     -12.278  12.219  63.515  1.00  0.00    -0.669 C  
HETATM    2  C   UNL     1     -12.126  13.516  64.269  1.00  0.00    -0.431 C  
ENDROOT
BRANCH   2   3
HETATM    3  O   UNL     1     -11.671  13.235  65.597  1.00  0.00    -0.329 OA 
BRANCH   3   4
HETATM    4  C   UNL     1     -10.655  12.235  65.527  1.00  0.00    -0.269 C  
BRANCH   4   5
HETATM    5  C   UNL     1     -10.234  11.743  66.896  1.00  0.00    -0.209 C  
BRANCH   5   6
HETATM    6  N   UNL     1      -9.369  12.615  67.674  1.00  0.00    -0.184 NA 
HETATM    7  C   UNL     1      -9.812  13.635  68.529  1.00  0.00    -0.196 A  
HETATM    8  N   UNL     1      -8.775  14.319  68.974  1.00  0.00    -0.017 NA 
HETATM    9  C   UNL     1      -7.981  12.670  67.621  1.00  0.00    -0.169 A  
HETATM   10  C   UNL     1      -6.968  11.945  66.955  1.00  0.00    -0.116 A  
HETATM   11  C   UNL     1      -7.654  13.739  68.446  1.00  0.00    -0.135 A  
HETATM   12  C   UNL     1      -5.633  12.303  67.132  1.00  0.00    -0.085 A  
HETATM   13  C   UNL     1      -6.301  14.096  68.618  1.00  0.00    -0.089 A  
HETATM   14  C   UNL     1      -5.298  13.368  67.961  1.00  0.00    -0.110 A  
BRANCH   7  15
HETATM   15  N   UNL     1     -11.127  13.955  68.764  1.00  0.00    -0.255 NA 
HETATM   16  N   UNL     1     -13.357  13.913  71.259  1.00  0.00    -0.284 NA 
HETATM   17  C   UNL     1     -12.014  15.829  70.240  1.00  0.00    -0.383 C  
HETATM   18  C   UNL     1     -12.290  13.022  70.775  1.00  0.00    -0.310 C  
HETATM   19  C   UNL     1     -11.482  15.381  68.872  1.00  0.00    -0.342 C  
HETATM   20  C   UNL     1     -13.278  14.032  72.714  1.00  0.00    -0.481 C  
HETATM   21  C   UNL     1     -12.127  12.998  69.246  1.00  0.00    -0.200 C  
HETATM   22  C   UNL     1     -13.377  15.225  70.601  1.00  0.00    -0.275 C  
ENDBRANCH   7  15
ENDBRANCH   5   6
ENDBRANCH   4   5
ENDBRANCH   3   4
ENDBRANCH   2   3
TORSDOF 5
ENDMDL
MODEL      117
REMARK 921   NORMALIZED FREE ENERGY PREDICTED BY IDOCK:   -4.16 KCAL/MOL
REMARK 922        TOTAL FREE ENERGY PREDICTED BY IDOCK:   -6.00 KCAL/MOL
REMARK 923 INTER-LIGAND FREE ENERGY PREDICTED BY IDOCK:   -5.33 KCAL/MOL
REMARK 924 INTRA-LIGAND FREE ENERGY PREDICTED BY IDOCK:   -0.67 KCAL/MOL
REMARK 927      BINDING AFFINITY PREDICTED BY RF-SCORE:    0.00 PKD
ROOT
HETATM    1  C   UNL     1      -5.518  14.513  69.183  1.00  0.00    -0.084 C  
HETATM    2  C   UNL     1      -6.124  15.099  67.932  1.00  0.00    -0.154 C  
ENDROOT
BRANCH   2   3
HETATM    3  O   UNL     1      -6.896  14.092  67.269  1.00  0.00    -0.226 OA 
BRANCH   3   4
HETATM    4  C   UNL     1      -7.292  13.116  68.231  1.00  0.00    -0.116 C  
BRANCH   4   5
HETATM    5  C   UNL     1      -8.774  12.811  68.169  1.00  0.00    -0.193 C  
BRANCH   5   6
HETATM    6  N   UNL     1      -9.383  12.762  66.850  1.00  0.00    -0.228 NA 
HETATM    7  C   UNL     1     -10.306  13.694  66.353  1.00  0.00    -0.286 A  
HETATM    8  N   UNL     1     -10.761  13.285  65.184  1.00  0.00    -0.309 NA 
HETATM    9  C   UNL     1      -9.253  11.742  65.912  1.00  0.00    -0.170 A  
HETATM   10  C   UNL     1      -8.509  10.545  65.822  1.00  0.00    -0.177 A  
HETATM   11  C   UNL     1     -10.122  12.110  64.892  1.00  0.00    -0.254 A  
HETATM   12  C   UNL     1      -8.647   9.730  64.700  1.00  0.00    -0.199 A  
HETATM   13  C   UNL     1     -10.257  11.279  63.761  1.00  0.00    -0.431 A  
HETATM   14  C   UNL     1      -9.511  10.094  63.672  1.00  0.00    -0.320 A  
BRANCH   7  15
HETATM   15  N   UNL     1     -10.763  14.795  67.034  1.00  0.00    -0.294 NA 
HETATM   16  N   UNL     1     -11.729  15.670  70.117  1.00  0.00    -0.333 NA 
HETATM   17  C   UNL     1      -9.550  16.091  68.857  1.00  0.00    -0.236 C  
HETATM   18  C   UNL     1     -11.908  14.501  69.241  1.00  0.00    -0.323 C  
HETATM   19  C   UNL     1      -9.796  15.857  67.360  1.00  0.00    -0.234 C  
HETATM   20  C   UNL     1     -11.388  15.226  71.468  1.00  0.00    -0.371 C  
HETATM   21  C   UNL     1     -12.043  14.840  67.747  1.00  0.00    -0.106 C  
HETATM   22  C   UNL     1     -10.767  16.652  69.603  1.00  0.00    -0.286 C  
ENDBRANCH   7  15
ENDBRANCH   5   6
ENDBRANCH   4   5
ENDBRANCH   3   4
ENDBRANCH   2   3
TORSDOF 5
ENDMDL
MODEL      118
REMARK 921   NORMALIZED FREE ENERGY PREDICTED BY IDOCK:   -4.15 KCAL/MOL
REMARK 922        TOTAL FREE ENERGY PREDICTED BY IDOCK:   -5.99 KCAL/MOL
REMARK 923 INTER-LIGAND FREE ENERGY PREDICTED BY IDOCK:   -5.16 KCAL/MOL
REMARK 924 INTRA-LIGAND FREE ENERGY PREDICTED BY IDOCK:   -0.83 KCAL/MOL
REMARK 927      BINDING AFFINITY PREDICTED BY RF-SCORE:    0.00 PKD
ROOT
HETATM    1  C   UNL     1      -6.685   7.961  67.938  1.00  0.00    -0.068 C  
HETATM    2  C   UNL     1      -6.909   8.677  66.630  1.00  0.00    -0.069 C  
ENDROOT
BRANCH   2   3
HETATM    3  O   UNL     1      -8.117   8.194  66.032  1.00  0.00    -0.101 OA 
BRANCH   3   4
HETATM    4  C   UNL     1      -8.733   7.275  66.932  1.00  0.00    -0.126 C  
BRANCH   4   5
HETATM    5  C   UNL     1     -10.187   7.608  67.193  1.00  0.00    -0.290 C  
BRANCH   5   6
HETATM    6  N   UNL     1     -10.489   8.329  68.418  1.00  0.00    -0.193 NA 
HETATM    7  C   UNL     1     -10.397   9.720  68.579  1.00  0.00    -0.202 A  
HETATM    8  N   UNL     1     -10.610  10.033  69.843  1.00  0.00    -0.263 NA 
HETATM    9  C   UNL     1     -10.802   7.773  69.654  1.00  0.00    -0.184 A  
HETATM   10  C   UNL     1     -11.018   6.466  70.145  1.00  0.00    -0.395 A  
HETATM   11  C   UNL     1     -10.872   8.866  70.508  1.00  0.00    -0.236 A  
HETATM   12  C   UNL     1     -11.306   6.275  71.495  1.00  0.00    -0.352 A  
HETATM   13  C   UNL     1     -11.163   8.664  71.873  1.00  0.00    -0.413 A  
HETATM   14  C   UNL     1     -11.384   7.366  72.355  1.00  0.00    -0.341 A  
BRANCH   7  15
HETATM   15  N   UNL     1     -10.017  10.606  67.601  1.00  0.00    -0.166 NA 
HETATM   16  N   UNL     1     -11.092  13.425  66.154  1.00  0.00    -0.287 NA 
HETATM   17  C   UNL     1      -9.289  13.024  67.915  1.00  0.00    -0.212 C  
HETATM   18  C   UNL     1     -11.706  12.173  66.623  1.00  0.00    -0.313 C  
HETATM   19  C   UNL     1      -8.914  11.535  67.902  1.00  0.00    -0.159 C  
HETATM   20  C   UNL     1     -11.900  14.564  66.590  1.00  0.00    -0.366 C  
HETATM   21  C   UNL     1     -10.832  10.923  66.425  1.00  0.00    -0.145 C  
HETATM   22  C   UNL     1      -9.683  13.574  66.538  1.00  0.00    -0.283 C  
ENDBRANCH   7  15
ENDBRANCH   5   6
ENDBRANCH   4   5
ENDBRANCH   3   4
ENDBRANCH   2   3
TORSDOF 5
ENDMDL
MODEL      119
REMARK 921   NORMALIZED FREE ENERGY PREDICTED BY IDOCK:   -4.12 KCAL/MOL
REMARK 922        TOTAL FREE ENERGY PREDICTED BY IDOCK:   -5.95 KCAL/MOL
REMARK 923 INTER-LIGAND FREE ENERGY PREDICTED BY IDOCK:   -5.23 KCAL/MOL
REMARK 924 INTRA-LIGAND FREE ENERGY PREDICTED BY IDOCK:   -0.72 KCAL/MOL
REMARK 927      BINDING AFFINITY PREDICTED BY RF-SCORE:    0.00 PKD
ROOT
HETATM    1  C   UNL     1     -10.865   9.304  71.251  1.00  0.00    -0.417 C  
HETATM    2  C   UNL     1     -10.823   8.180  70.245  1.00  0.00    -0.244 C  
ENDROOT
BRANCH   2   3
HETATM    3  O   UNL     1     -10.708   8.732  68.929  1.00  0.00    -0.187 OA 
BRANCH   3   4
HETATM    4  C   UNL     1     -10.912  10.142  69.009  1.00  0.00    -0.226 C  
BRANCH   4   5
HETATM    5  C   UNL     1      -9.949  10.915  68.132  1.00  0.00    -0.174 C  
BRANCH   5   6
HETATM    6  N   UNL     1     -10.136  10.811  66.694  1.00  0.00    -0.210 NA 
HETATM    7  C   UNL     1      -9.415   9.956  65.848  1.00  0.00    -0.215 A  
HETATM    8  N   UNL     1      -9.735  10.205  64.592  1.00  0.00    -0.314 NA 
HETATM    9  C   UNL     1     -10.960  11.605  65.904  1.00  0.00    -0.280 A  
HETATM   10  C   UNL     1     -11.896  12.636  66.142  1.00  0.00    -0.477 A  
HETATM   11  C   UNL     1     -10.683  11.192  64.606  1.00  0.00    -0.280 A  
HETATM   12  C   UNL     1     -12.548  13.238  65.066  1.00  0.00    -0.483 A  
HETATM   13  C   UNL     1     -11.345  11.808  63.525  1.00  0.00    -0.496 A  
HETATM   14  C   UNL     1     -12.280  12.825  63.766  1.00  0.00    -0.572 A  
BRANCH   7  15
HETATM   15  N   UNL     1      -8.433   9.085  66.252  1.00  0.00    -0.122 NA 
HETATM   16  N   UNL     1      -6.994   6.227  65.272  1.00  0.00    -0.055 NA 
HETATM   17  C   UNL     1      -6.200   8.647  65.114  1.00  0.00    -0.060 C  
HETATM   18  C   UNL     1      -8.362   6.769  65.305  1.00  0.00    -0.105 C  
HETATM   19  C   UNL     1      -7.030   9.500  66.084  1.00  0.00    -0.091 C  
HETATM   20  C   UNL     1      -6.747   5.588  63.980  1.00  0.00    -0.042 C  
HETATM   21  C   UNL     1      -8.663   7.662  66.520  1.00  0.00    -0.149 C  
HETATM   22  C   UNL     1      -5.958   7.214  65.603  1.00  0.00    -0.037 C  
ENDBRANCH   7  15
ENDBRANCH   5   6
ENDBRANCH   4   5
ENDBRANCH   3   4
ENDBRANCH   2   3
TORSDOF 5
ENDMDL
MODEL      120
REMARK 921   NORMALIZED FREE ENERGY PREDICTED BY IDOCK:   -4.11 KCAL/MOL
REMARK 922        TOTAL FREE ENERGY PREDICTED BY IDOCK:   -5.94 KCAL/MOL
REMARK 923 INTER-LIGAND FREE ENERGY PREDICTED BY IDOCK:   -5.32 KCAL/MOL
REMARK 924 INTRA-LIGAND FREE ENERGY PREDICTED BY IDOCK:   -0.62 KCAL/MOL
REMARK 927      BINDING AFFINITY PREDICTED BY RF-SCORE:    0.00 PKD
ROOT
HETATM    1  C   UNL     1      -5.903  16.052  69.685  1.00  0.00    -0.155 C  
HETATM    2  C   UNL     1      -7.354  15.642  69.653  1.00  0.00    -0.144 C  
ENDROOT
BRANCH   2   3
HETATM    3  O   UNL     1      -7.578  14.796  68.520  1.00  0.00    -0.108 OA 
BRANCH   3   4
HETATM    4  C   UNL     1      -6.817  15.297  67.422  1.00  0.00    -0.154 C  
BRANCH   4   5
HETATM    5  C   UNL     1      -7.672  16.043  66.419  1.00  0.00    -0.014 C  
BRANCH   5   6
HETATM    6  N   UNL     1      -8.065  17.399  66.766  1.00  0.00    -0.233 NA 
HETATM    7  C   UNL     1      -9.387  17.834  66.946  1.00  0.00    -0.269 A  
HETATM    8  N   UNL     1      -9.402  19.142  67.119  1.00  0.00    -0.304 NA 
HETATM    9  C   UNL     1      -7.230  18.507  66.863  1.00  0.00    -0.209 A  
HETATM   10  C   UNL     1      -5.839  18.732  66.770  1.00  0.00    -0.173 A  
HETATM   11  C   UNL     1      -8.101  19.567  67.087  1.00  0.00    -0.271 A  
HETATM   12  C   UNL     1      -5.338  20.026  66.909  1.00  0.00    -0.169 A  
HETATM   13  C   UNL     1      -7.586  20.872  67.224  1.00  0.00    -0.312 A  
HETATM   14  C   UNL     1      -6.203  21.090  67.140  1.00  0.00    -0.383 A  
BRANCH   7  15
HETATM   15  N   UNL     1     -10.503  17.042  66.830  1.00  0.00    -0.299 NA 
HETATM   16  N   UNL     1     -11.398  14.052  65.622  1.00  0.00    -0.309 NA 
HETATM   17  C   UNL     1     -10.952  14.833  68.011  1.00  0.00    -0.276 C  
HETATM   18  C   UNL     1     -10.518  15.150  65.191  1.00  0.00    -0.410 C  
HETATM   19  C   UNL     1     -10.999  16.367  68.042  1.00  0.00    -0.327 C  
HETATM   20  C   UNL     1     -10.718  12.771  65.434  1.00  0.00    -0.284 C  
HETATM   21  C   UNL     1     -11.030  16.555  65.552  1.00  0.00    -0.092 C  
HETATM   22  C   UNL     1     -11.909  14.205  66.989  1.00  0.00    -0.429 C  
ENDBRANCH   7  15
ENDBRANCH   5   6
ENDBRANCH   4   5
ENDBRANCH   3   4
ENDBRANCH   2   3
TORSDOF 5
ENDMDL
MODEL      121
REMARK 921   NORMALIZED FREE ENERGY PREDICTED BY IDOCK:   -4.10 KCAL/MOL
REMARK 922        TOTAL FREE ENERGY PREDICTED BY IDOCK:   -5.93 KCAL/MOL
REMARK 923 INTER-LIGAND FREE ENERGY PREDICTED BY IDOCK:   -5.36 KCAL/MOL
REMARK 924 INTRA-LIGAND FREE ENERGY PREDICTED BY IDOCK:   -0.57 KCAL/MOL
REMARK 927      BINDING AFFINITY PREDICTED BY RF-SCORE:    0.00 PKD
ROOT
HETATM    1  C   UNL     1      -6.564  10.260  70.163  1.00  0.00    -0.138 C  
HETATM    2  C   UNL     1      -7.090   9.299  69.125  1.00  0.00    -0.062 C  
ENDROOT
BRANCH   2   3
HETATM    3  O   UNL     1      -8.038   9.978  68.295  1.00  0.00    -0.102 OA 
BRANCH   3   4
HETATM    4  C   UNL     1      -8.849   9.004  67.641  1.00  0.00    -0.124 C  
BRANCH   4   5
HETATM    5  C   UNL     1     -10.236   8.908  68.242  1.00  0.00    -0.201 C  
BRANCH   5   6
HETATM    6  N   UNL     1     -10.769  10.106  68.868  1.00  0.00    -0.213 NA 
HETATM    7  C   UNL     1     -11.145  10.212  70.215  1.00  0.00    -0.317 A  
HETATM    8  N   UNL     1     -11.711  11.385  70.425  1.00  0.00    -0.312 NA 
HETATM    9  C   UNL     1     -11.104  11.297  68.233  1.00  0.00    -0.240 A  
HETATM   10  C   UNL     1     -10.996  11.803  66.918  1.00  0.00    -0.333 A  
HETATM   11  C   UNL     1     -11.681  12.064  69.237  1.00  0.00    -0.330 A  
HETATM   12  C   UNL     1     -11.469  13.082  66.631  1.00  0.00    -0.382 A  
HETATM   13  C   UNL     1     -12.159  13.356  68.936  1.00  0.00    -0.289 A  
HETATM   14  C   UNL     1     -12.043  13.858  67.632  1.00  0.00    -0.342 A  
BRANCH   7  15
HETATM   15  N   UNL     1     -11.058   9.203  71.143  1.00  0.00    -0.293 NA 
HETATM   16  N   UNL     1     -10.750   5.873  71.272  1.00  0.00    -0.255 NA 
HETATM   17  C   UNL     1      -9.039   7.733  71.633  1.00  0.00    -0.163 C  
HETATM   18  C   UNL     1     -11.497   6.838  70.450  1.00  0.00    -0.365 C  
HETATM   19  C   UNL     1      -9.790   9.049  71.878  1.00  0.00    -0.213 C  
HETATM   20  C   UNL     1     -10.138   4.861  70.412  1.00  0.00    -0.245 C  
HETATM   21  C   UNL     1     -11.993   8.076  71.215  1.00  0.00    -0.296 C  
HETATM   22  C   UNL     1      -9.768   6.495  72.170  1.00  0.00    -0.151 C  
ENDBRANCH   7  15
ENDBRANCH   5   6
ENDBRANCH   4   5
ENDBRANCH   3   4
ENDBRANCH   2   3
TORSDOF 5
ENDMDL
MODEL      122
REMARK 921   NORMALIZED FREE ENERGY PREDICTED BY IDOCK:   -4.10 KCAL/MOL
REMARK 922        TOTAL FREE ENERGY PREDICTED BY IDOCK:   -5.93 KCAL/MOL
REMARK 923 INTER-LIGAND FREE ENERGY PREDICTED BY IDOCK:   -5.42 KCAL/MOL
REMARK 924 INTRA-LIGAND FREE ENERGY PREDICTED BY IDOCK:   -0.51 KCAL/MOL
REMARK 927      BINDING AFFINITY PREDICTED BY RF-SCORE:    0.00 PKD
ROOT
HETATM    1  C   UNL     1      -9.313   6.471  72.772  1.00  0.00    -0.146 C  
HETATM    2  C   UNL     1      -8.498   7.492  73.525  1.00  0.00    -0.168 C  
ENDROOT
BRANCH   2   3
HETATM    3  O   UNL     1      -8.755   8.791  72.981  1.00  0.00    -0.368 OA 
BRANCH   3   4
HETATM    4  C   UNL     1      -9.571   8.644  71.821  1.00  0.00    -0.290 C  
BRANCH   4   5
HETATM    5  C   UNL     1      -8.968   9.310  70.602  1.00  0.00    -0.243 C  
BRANCH   5   6
HETATM    6  N   UNL     1      -9.548   8.975  69.311  1.00  0.00    -0.160 NA 
HETATM    7  C   UNL     1     -10.061   9.903  68.393  1.00  0.00    -0.167 A  
HETATM    8  N   UNL     1     -10.631   9.263  67.390  1.00  0.00    -0.278 NA 
HETATM    9  C   UNL     1      -9.799   7.699  68.819  1.00  0.00    -0.164 A  
HETATM   10  C   UNL     1      -9.549   6.381  69.262  1.00  0.00    -0.145 A  
HETATM   11  C   UNL     1     -10.468   7.924  67.623  1.00  0.00    -0.234 A  
HETATM   12  C   UNL     1      -9.973   5.301  68.489  1.00  0.00    -0.227 A  
HETATM   13  C   UNL     1     -10.896   6.826  66.848  1.00  0.00    -0.402 A  
HETATM   14  C   UNL     1     -10.638   5.519  67.287  1.00  0.00    -0.294 A  
BRANCH   7  15
HETATM   15  N   UNL     1     -10.084  11.265  68.573  1.00  0.00    -0.198 NA 
HETATM   16  N   UNL     1     -10.078  14.078  66.761  1.00  0.00    -0.259 NA 
HETATM   17  C   UNL     1     -11.969  12.865  67.972  1.00  0.00    -0.323 C  
HETATM   18  C   UNL     1      -9.399  12.775  66.698  1.00  0.00    -0.242 C  
HETATM   19  C   UNL     1     -11.355  11.886  68.983  1.00  0.00    -0.279 C  
HETATM   20  C   UNL     1     -10.561  14.449  65.431  1.00  0.00    -0.365 C  
HETATM   21  C   UNL     1      -9.049  12.172  68.069  1.00  0.00    -0.190 C  
HETATM   22  C   UNL     1     -11.144  14.142  67.769  1.00  0.00    -0.276 C  
ENDBRANCH   7  15
ENDBRANCH   5   6
ENDBRANCH   4   5
ENDBRANCH   3   4
ENDBRANCH   2   3
TORSDOF 5
ENDMDL
MODEL      123
REMARK 921   NORMALIZED FREE ENERGY PREDICTED BY IDOCK:   -4.09 KCAL/MOL
REMARK 922        TOTAL FREE ENERGY PREDICTED BY IDOCK:   -5.92 KCAL/MOL
REMARK 923 INTER-LIGAND FREE ENERGY PREDICTED BY IDOCK:   -5.38 KCAL/MOL
REMARK 924 INTRA-LIGAND FREE ENERGY PREDICTED BY IDOCK:   -0.54 KCAL/MOL
REMARK 927      BINDING AFFINITY PREDICTED BY RF-SCORE:    0.00 PKD
ROOT
HETATM    1  C   UNL     1      -9.262  10.010  64.720  1.00  0.00    -0.301 C  
HETATM    2  C   UNL     1      -9.452  10.826  65.975  1.00  0.00    -0.194 C  
ENDROOT
BRANCH   2   3
HETATM    3  O   UNL     1      -8.346  10.598  66.854  1.00  0.00    -0.121 OA 
BRANCH   3   4
HETATM    4  C   UNL     1      -8.832  10.557  68.195  1.00  0.00    -0.134 C  
BRANCH   4   5
HETATM    5  C   UNL     1     -10.106   9.749  68.323  1.00  0.00    -0.163 C  
BRANCH   5   6
HETATM    6  N   UNL     1     -10.818   9.834  69.588  1.00  0.00    -0.240 NA 
HETATM    7  C   UNL     1     -11.001   8.770  70.483  1.00  0.00    -0.239 A  
HETATM    8  N   UNL     1     -11.801   9.149  71.462  1.00  0.00    -0.331 NA 
HETATM    9  C   UNL     1     -11.528  10.929  70.069  1.00  0.00    -0.329 A  
HETATM   10  C   UNL     1     -11.748  12.257  69.638  1.00  0.00    -0.386 A  
HETATM   11  C   UNL     1     -12.119  10.461  71.236  1.00  0.00    -0.362 A  
HETATM   12  C   UNL     1     -12.560  13.101  70.393  1.00  0.00    -0.186 A  
HETATM   13  C   UNL     1     -12.941  11.322  71.992  1.00  0.00    -0.379 A  
HETATM   14  C   UNL     1     -13.150  12.642  71.565  1.00  0.00    -0.373 A  
BRANCH   7  15
HETATM   15  N   UNL     1     -10.529   7.494  70.302  1.00  0.00    -0.218 NA 
HETATM   16  N   UNL     1      -9.966   5.306  67.833  1.00  0.00    -0.156 NA 
HETATM   17  C   UNL     1      -8.369   6.800  69.148  1.00  0.00    -0.125 C  
HETATM   18  C   UNL     1     -11.016   6.281  68.167  1.00  0.00    -0.323 C  
HETATM   19  C   UNL     1      -9.078   7.270  70.427  1.00  0.00    -0.155 C  
HETATM   20  C   UNL     1      -9.621   5.417  66.416  1.00  0.00    -0.159 C  
HETATM   21  C   UNL     1     -11.301   6.418  69.672  1.00  0.00    -0.412 C  
HETATM   22  C   UNL     1      -8.780   5.394  68.694  1.00  0.00    -0.097 C  
ENDBRANCH   7  15
ENDBRANCH   5   6
ENDBRANCH   4   5
ENDBRANCH   3   4
ENDBRANCH   2   3
TORSDOF 5
ENDMDL
MODEL      124
REMARK 921   NORMALIZED FREE ENERGY PREDICTED BY IDOCK:   -4.08 KCAL/MOL
REMARK 922        TOTAL FREE ENERGY PREDICTED BY IDOCK:   -5.90 KCAL/MOL
REMARK 923 INTER-LIGAND FREE ENERGY PREDICTED BY IDOCK:   -5.28 KCAL/MOL
REMARK 924 INTRA-LIGAND FREE ENERGY PREDICTED BY IDOCK:   -0.63 KCAL/MOL
REMARK 927      BINDING AFFINITY PREDICTED BY RF-SCORE:    0.00 PKD
ROOT
HETATM    1  C   UNL     1     -14.199   7.976  71.922  1.00  0.00    -0.514 C  
HETATM    2  C   UNL     1     -13.944   9.365  71.390  1.00  0.00    -0.109 C  
ENDROOT
BRANCH   2   3
HETATM    3  O   UNL     1     -12.739   9.875  71.971  1.00  0.00    -0.392 OA 
BRANCH   3   4
HETATM    4  C   UNL     1     -12.090  10.709  71.013  1.00  0.00    -0.368 C  
BRANCH   4   5
HETATM    5  C   UNL     1     -12.217  10.175  69.602  1.00  0.00     0.152 C  
BRANCH   5   6
HETATM    6  N   UNL     1     -11.194  10.574  68.649  1.00  0.00    -0.268 NA 
HETATM    7  C   UNL     1     -10.024   9.852  68.373  1.00  0.00    -0.158 A  
HETATM    8  N   UNL     1      -9.252  10.554  67.566  1.00  0.00    -0.142 NA 
HETATM    9  C   UNL     1     -11.136  11.773  67.946  1.00  0.00    -0.245 A  
HETATM   10  C   UNL     1     -11.972  12.903  67.811  1.00  0.00    -0.336 A  
HETATM   11  C   UNL     1      -9.916  11.717  67.284  1.00  0.00    -0.191 A  
HETATM   12  C   UNL     1     -11.571  13.966  67.003  1.00  0.00    -0.394 A  
HETATM   13  C   UNL     1      -9.517  12.797  66.471  1.00  0.00    -0.253 A  
HETATM   14  C   UNL     1     -10.354  13.914  66.332  1.00  0.00    -0.289 A  
BRANCH   7  15
HETATM   15  N   UNL     1      -9.676   8.656  68.953  1.00  0.00    -0.166 NA 
HETATM   16  N   UNL     1      -9.852   7.111  71.916  1.00  0.00    -0.160 NA 
HETATM   17  C   UNL     1     -11.247   6.840  69.796  1.00  0.00    -0.368 C  
HETATM   18  C   UNL     1      -9.561   8.475  71.447  1.00  0.00    -0.215 C  
HETATM   19  C   UNL     1     -10.482   7.468  68.622  1.00  0.00    -0.183 C  
HETATM   20  C   UNL     1     -10.769   7.165  73.053  1.00  0.00    -0.321 C  
HETATM   21  C   UNL     1      -8.793   8.540  70.116  1.00  0.00    -0.138 C  
HETATM   22  C   UNL     1     -10.338   6.213  70.861  1.00  0.00    -0.215 C  
ENDBRANCH   7  15
ENDBRANCH   5   6
ENDBRANCH   4   5
ENDBRANCH   3   4
ENDBRANCH   2   3
TORSDOF 5
ENDMDL
MODEL      125
REMARK 921   NORMALIZED FREE ENERGY PREDICTED BY IDOCK:   -4.08 KCAL/MOL
REMARK 922        TOTAL FREE ENERGY PREDICTED BY IDOCK:   -5.90 KCAL/MOL
REMARK 923 INTER-LIGAND FREE ENERGY PREDICTED BY IDOCK:   -5.89 KCAL/MOL
REMARK 924 INTRA-LIGAND FREE ENERGY PREDICTED BY IDOCK:   -0.02 KCAL/MOL
REMARK 927      BINDING AFFINITY PREDICTED BY RF-SCORE:    0.00 PKD
ROOT
HETATM    1  C   UNL     1      -5.819  10.167  67.888  1.00  0.00    -0.041 C  
HETATM    2  C   UNL     1      -7.059   9.994  67.046  1.00  0.00    -0.089 C  
ENDROOT
BRANCH   2   3
HETATM    3  O   UNL     1      -7.690   8.756  67.389  1.00  0.00    -0.095 OA 
BRANCH   3   4
HETATM    4  C   UNL     1      -9.024   9.028  67.814  1.00  0.00    -0.127 C  
BRANCH   4   5
HETATM    5  C   UNL     1      -9.074   9.996  68.977  1.00  0.00    -0.171 C  
BRANCH   5   6
HETATM    6  N   UNL     1     -10.389  10.439  69.412  1.00  0.00    -0.225 NA 
HETATM    7  C   UNL     1     -11.037  11.599  68.964  1.00  0.00    -0.241 A  
HETATM    8  N   UNL     1     -12.149  11.777  69.654  1.00  0.00    -0.283 NA 
HETATM    9  C   UNL     1     -11.168   9.868  70.413  1.00  0.00    -0.313 A  
HETATM   10  C   UNL     1     -11.067   8.730  71.243  1.00  0.00    -0.348 A  
HETATM   11  C   UNL     1     -12.253  10.729  70.527  1.00  0.00    -0.366 A  
HETATM   12  C   UNL     1     -12.066   8.469  72.179  1.00  0.00    -0.449 A  
HETATM   13  C   UNL     1     -13.258  10.458  71.478  1.00  0.00    -0.485 A  
HETATM   14  C   UNL     1     -13.158   9.322  72.295  1.00  0.00    -0.517 A  
BRANCH   7  15
HETATM   15  N   UNL     1     -10.532  12.483  68.043  1.00  0.00    -0.213 NA 
HETATM   16  N   UNL     1     -10.689  15.736  67.274  1.00  0.00    -0.315 NA 
HETATM   17  C   UNL     1      -8.889  14.379  68.470  1.00  0.00    -0.182 C  
HETATM   18  C   UNL     1     -11.639  14.704  67.718  1.00  0.00    -0.359 C  
HETATM   19  C   UNL     1      -9.122  12.890  68.177  1.00  0.00    -0.207 C  
HETATM   20  C   UNL     1     -10.904  16.966  68.036  1.00  0.00    -0.338 C  
HETATM   21  C   UNL     1     -11.363  13.300  67.154  1.00  0.00    -0.317 C  
HETATM   22  C   UNL     1      -9.286  15.306  67.314  1.00  0.00    -0.205 C  
ENDBRANCH   7  15
ENDBRANCH   5   6
ENDBRANCH   4   5
ENDBRANCH   3   4
ENDBRANCH   2   3
TORSDOF 5
ENDMDL
MODEL      126
REMARK 921   NORMALIZED FREE ENERGY PREDICTED BY IDOCK:   -4.08 KCAL/MOL
REMARK 922        TOTAL FREE ENERGY PREDICTED BY IDOCK:   -5.90 KCAL/MOL
REMARK 923 INTER-LIGAND FREE ENERGY PREDICTED BY IDOCK:   -5.41 KCAL/MOL
REMARK 924 INTRA-LIGAND FREE ENERGY PREDICTED BY IDOCK:   -0.49 KCAL/MOL
REMARK 927      BINDING AFFINITY PREDICTED BY RF-SCORE:    0.00 PKD
ROOT
HETATM    1  C   UNL     1      -9.664   5.455  66.148  1.00  0.00    -0.165 C  
HETATM    2  C   UNL     1     -10.315   5.277  67.497  1.00  0.00    -0.162 C  
ENDROOT
BRANCH   2   3
HETATM    3  O   UNL     1     -11.119   6.426  67.785  1.00  0.00    -0.328 OA 
BRANCH   3   4
HETATM    4  C   UNL     1     -10.517   7.566  67.173  1.00  0.00    -0.336 C  
BRANCH   4   5
HETATM    5  C   UNL     1      -9.841   8.472  68.180  1.00  0.00    -0.165 C  
BRANCH   5   6
HETATM    6  N   UNL     1     -10.608   9.606  68.668  1.00  0.00    -0.216 NA 
HETATM    7  C   UNL     1     -10.610  10.885  68.093  1.00  0.00    -0.198 A  
HETATM    8  N   UNL     1     -11.302  11.711  68.855  1.00  0.00    -0.241 NA 
HETATM    9  C   UNL     1     -11.366   9.657  69.833  1.00  0.00    -0.159 A  
HETATM   10  C   UNL     1     -11.732   8.734  70.838  1.00  0.00    -0.299 A  
HETATM   11  C   UNL     1     -11.782  10.980  69.908  1.00  0.00    -0.346 A  
HETATM   12  C   UNL     1     -12.519   9.156  71.909  1.00  0.00    -0.459 A  
HETATM   13  C   UNL     1     -12.576  11.399  70.995  1.00  0.00    -0.487 A  
HETATM   14  C   UNL     1     -12.944  10.478  71.987  1.00  0.00    -0.490 A  
BRANCH   7  15
HETATM   15  N   UNL     1      -9.896  11.253  66.979  1.00  0.00    -0.189 NA 
HETATM   16  N   UNL     1      -7.308  10.194  65.141  1.00  0.00    -0.139 NA 
HETATM   17  C   UNL     1      -9.823  10.059  64.733  1.00  0.00    -0.325 C  
HETATM   18  C   UNL     1      -7.632  10.266  66.575  1.00  0.00    -0.113 C  
HETATM   19  C   UNL     1     -10.525  11.061  65.661  1.00  0.00    -0.230 C  
HETATM   20  C   UNL     1      -6.731   8.887  64.830  1.00  0.00    -0.069 C  
HETATM   21  C   UNL     1      -8.452  11.502  66.981  1.00  0.00    -0.164 C  
HETATM   22  C   UNL     1      -8.438  10.518  64.262  1.00  0.00    -0.128 C  
ENDBRANCH   7  15
ENDBRANCH   5   6
ENDBRANCH   4   5
ENDBRANCH   3   4
ENDBRANCH   2   3
TORSDOF 5
ENDMDL
MODEL      127
REMARK 921   NORMALIZED FREE ENERGY PREDICTED BY IDOCK:   -4.06 KCAL/MOL
REMARK 922        TOTAL FREE ENERGY PREDICTED BY IDOCK:   -5.88 KCAL/MOL
REMARK 923 INTER-LIGAND FREE ENERGY PREDICTED BY IDOCK:   -5.12 KCAL/MOL
REMARK 924 INTRA-LIGAND FREE ENERGY PREDICTED BY IDOCK:   -0.77 KCAL/MOL
REMARK 927      BINDING AFFINITY PREDICTED BY RF-SCORE:    0.00 PKD
ROOT
HETATM    1  C   UNL     1     -12.219  13.941  69.264  1.00  0.00    -0.319 C  
HETATM    2  C   UNL     1     -11.278  15.114  69.389  1.00  0.00    -0.283 C  
ENDROOT
BRANCH   2   3
HETATM    3  O   UNL     1     -10.431  15.160  68.236  1.00  0.00    -0.234 OA 
BRANCH   3   4
HETATM    4  C   UNL     1      -9.281  14.354  68.485  1.00  0.00    -0.198 C  
BRANCH   4   5
HETATM    5  C   UNL     1      -8.669  13.811  67.211  1.00  0.00    -0.219 C  
BRANCH   5   6
HETATM    6  N   UNL     1      -9.449  12.837  66.466  1.00  0.00    -0.255 NA 
HETATM    7  C   UNL     1      -9.294  11.446  66.549  1.00  0.00    -0.189 A  
HETATM    8  N   UNL     1     -10.061  10.861  65.648  1.00  0.00    -0.250 NA 
HETATM    9  C   UNL     1     -10.387  13.107  65.474  1.00  0.00    -0.290 A  
HETATM   10  C   UNL     1     -10.959  14.274  64.919  1.00  0.00    -0.413 A  
HETATM   11  C   UNL     1     -10.744  11.853  64.997  1.00  0.00    -0.292 A  
HETATM   12  C   UNL     1     -11.890  14.161  63.888  1.00  0.00    -0.211 A  
HETATM   13  C   UNL     1     -11.685  11.748  63.952  1.00  0.00    -0.461 A  
HETATM   14  C   UNL     1     -12.257  12.908  63.409  1.00  0.00    -0.574 A  
BRANCH   7  15
HETATM   15  N   UNL     1      -8.388  10.797  67.352  1.00  0.00    -0.119 NA 
HETATM   16  N   UNL     1      -8.185   8.079  69.293  1.00  0.00    -0.125 NA 
HETATM   17  C   UNL     1      -7.312   8.529  66.938  1.00  0.00    -0.083 C  
HETATM   18  C   UNL     1      -9.192   9.118  69.025  1.00  0.00    -0.143 C  
HETATM   19  C   UNL     1      -7.301  10.045  66.700  1.00  0.00    -0.103 C  
HETATM   20  C   UNL     1      -8.822   6.763  69.293  1.00  0.00    -0.137 C  
HETATM   21  C   UNL     1      -8.610  10.519  68.774  1.00  0.00    -0.146 C  
HETATM   22  C   UNL     1      -7.028   8.129  68.392  1.00  0.00    -0.073 C  
ENDBRANCH   7  15
ENDBRANCH   5   6
ENDBRANCH   4   5
ENDBRANCH   3   4
ENDBRANCH   2   3
TORSDOF 5
ENDMDL
MODEL      128
REMARK 921   NORMALIZED FREE ENERGY PREDICTED BY IDOCK:   -4.06 KCAL/MOL
REMARK 922        TOTAL FREE ENERGY PREDICTED BY IDOCK:   -5.88 KCAL/MOL
REMARK 923 INTER-LIGAND FREE ENERGY PREDICTED BY IDOCK:   -5.28 KCAL/MOL
REMARK 924 INTRA-LIGAND FREE ENERGY PREDICTED BY IDOCK:   -0.60 KCAL/MOL
REMARK 927      BINDING AFFINITY PREDICTED BY RF-SCORE:    0.00 PKD
ROOT
HETATM    1  C   UNL     1      -6.200   8.990  70.000  1.00  0.00    -0.037 C  
HETATM    2  C   UNL     1      -6.887  10.331  69.928  1.00  0.00    -0.134 C  
ENDROOT
BRANCH   2   3
HETATM    3  O   UNL     1      -8.302  10.130  69.862  1.00  0.00    -0.172 OA 
BRANCH   3   4
HETATM    4  C   UNL     1      -8.729  10.340  68.517  1.00  0.00    -0.130 C  
BRANCH   4   5
HETATM    5  C   UNL     1      -8.205  11.637  67.939  1.00  0.00    -0.141 C  
BRANCH   5   6
HETATM    6  N   UNL     1      -8.972  12.239  66.862  1.00  0.00    -0.203 NA 
HETATM    7  C   UNL     1      -9.640  13.470  66.938  1.00  0.00    -0.258 A  
HETATM    8  N   UNL     1     -10.347  13.657  65.839  1.00  0.00    -0.294 NA 
HETATM    9  C   UNL     1      -9.272  11.661  65.632  1.00  0.00    -0.138 A  
HETATM   10  C   UNL     1      -8.930  10.460  64.973  1.00  0.00    -0.221 A  
HETATM   11  C   UNL     1     -10.124  12.577  65.028  1.00  0.00    -0.236 A  
HETATM   12  C   UNL     1      -9.448  10.196  63.706  1.00  0.00    -0.330 A  
HETATM   13  C   UNL     1     -10.646  12.302  63.748  1.00  0.00    -0.488 A  
HETATM   14  C   UNL     1     -10.297  11.111  63.093  1.00  0.00    -0.309 A  
BRANCH   7  15
HETATM   15  N   UNL     1      -9.661  14.292  68.037  1.00  0.00    -0.217 NA 
HETATM   16  N   UNL     1      -9.773  17.553  68.784  1.00  0.00    -0.305 NA 
HETATM   17  C   UNL     1     -11.586  15.757  68.827  1.00  0.00    -0.401 C  
HETATM   18  C   UNL     1      -9.091  16.717  67.784  1.00  0.00    -0.212 C  
HETATM   19  C   UNL     1     -10.911  14.379  68.812  1.00  0.00    -0.250 C  
HETATM   20  C   UNL     1     -10.332  18.739  68.137  1.00  0.00    -0.365 C  
HETATM   21  C   UNL     1      -8.662  15.332  68.298  1.00  0.00    -0.165 C  
HETATM   22  C   UNL     1     -10.782  16.831  69.570  1.00  0.00    -0.273 C  
ENDBRANCH   7  15
ENDBRANCH   5   6
ENDBRANCH   4   5
ENDBRANCH   3   4
ENDBRANCH   2   3
TORSDOF 5
ENDMDL
MODEL      129
REMARK 921   NORMALIZED FREE ENERGY PREDICTED BY IDOCK:   -4.06 KCAL/MOL
REMARK 922        TOTAL FREE ENERGY PREDICTED BY IDOCK:   -5.88 KCAL/MOL
REMARK 923 INTER-LIGAND FREE ENERGY PREDICTED BY IDOCK:   -5.21 KCAL/MOL
REMARK 924 INTRA-LIGAND FREE ENERGY PREDICTED BY IDOCK:   -0.67 KCAL/MOL
REMARK 927      BINDING AFFINITY PREDICTED BY RF-SCORE:    0.00 PKD
ROOT
HETATM    1  C   UNL     1     -13.209   7.776  71.530  1.00  0.00    -0.356 C  
HETATM    2  C   UNL     1     -11.944   7.835  72.348  1.00  0.00    -0.289 C  
ENDROOT
BRANCH   2   3
HETATM    3  O   UNL     1     -11.225   9.027  72.015  1.00  0.00    -0.361 OA 
BRANCH   3   4
HETATM    4  C   UNL     1     -11.486   9.348  70.650  1.00  0.00    -0.284 C  
BRANCH   4   5
HETATM    5  C   UNL     1     -10.217   9.565  69.853  1.00  0.00    -0.231 C  
BRANCH   5   6
HETATM    6  N   UNL     1     -10.355   9.695  68.412  1.00  0.00    -0.195 NA 
HETATM    7  C   UNL     1     -10.175   8.655  67.488  1.00  0.00    -0.245 A  
HETATM    8  N   UNL     1     -10.241   9.138  66.262  1.00  0.00    -0.248 NA 
HETATM    9  C   UNL     1     -10.568  10.871  67.701  1.00  0.00    -0.224 A  
HETATM   10  C   UNL     1     -10.799  12.224  68.036  1.00  0.00    -0.253 A  
HETATM   11  C   UNL     1     -10.494  10.478  66.370  1.00  0.00    -0.192 A  
HETATM   12  C   UNL     1     -10.958  13.168  67.023  1.00  0.00    -0.289 A  
HETATM   13  C   UNL     1     -10.654  11.440  65.352  1.00  0.00    -0.333 A  
HETATM   14  C   UNL     1     -10.891  12.781  65.689  1.00  0.00    -0.300 A  
BRANCH   7  15
HETATM   15  N   UNL     1      -9.852   7.359  67.808  1.00  0.00    -0.146 NA 
HETATM   16  N   UNL     1      -9.860   4.311  66.427  1.00  0.00    -0.218 NA 
HETATM   17  C   UNL     1      -7.958   5.962  66.841  1.00  0.00    -0.102 C  
HETATM   18  C   UNL     1     -10.757   5.478  66.427  1.00  0.00    -0.194 C  
HETATM   19  C   UNL     1      -8.425   6.999  67.872  1.00  0.00    -0.124 C  
HETATM   20  C   UNL     1      -9.719   3.797  65.065  1.00  0.00    -0.183 C  
HETATM   21  C   UNL     1     -10.802   6.244  67.759  1.00  0.00    -0.338 C  
HETATM   22  C   UNL     1      -8.557   4.566  67.053  1.00  0.00    -0.104 C  
ENDBRANCH   7  15
ENDBRANCH   5   6
ENDBRANCH   4   5
ENDBRANCH   3   4
ENDBRANCH   2   3
TORSDOF 5
ENDMDL
MODEL      130
REMARK 921   NORMALIZED FREE ENERGY PREDICTED BY IDOCK:   -4.05 KCAL/MOL
REMARK 922        TOTAL FREE ENERGY PREDICTED BY IDOCK:   -5.87 KCAL/MOL
REMARK 923 INTER-LIGAND FREE ENERGY PREDICTED BY IDOCK:   -5.20 KCAL/MOL
REMARK 924 INTRA-LIGAND FREE ENERGY PREDICTED BY IDOCK:   -0.66 KCAL/MOL
REMARK 927      BINDING AFFINITY PREDICTED BY RF-SCORE:    0.00 PKD
ROOT
HETATM    1  C   UNL     1      -6.949  16.650  68.211  1.00  0.00    -0.155 C  
HETATM    2  C   UNL     1      -7.305  15.561  67.231  1.00  0.00    -0.214 C  
ENDROOT
BRANCH   2   3
HETATM    3  O   UNL     1      -8.269  16.064  66.300  1.00  0.00    -0.294 OA 
BRANCH   3   4
HETATM    4  C   UNL     1      -9.262  15.062  66.088  1.00  0.00    -0.259 C  
BRANCH   4   5
HETATM    5  C   UNL     1      -9.059  13.850  66.973  1.00  0.00    -0.250 C  
BRANCH   5   6
HETATM    6  N   UNL     1     -10.139  13.511  67.886  1.00  0.00    -0.242 NA 
HETATM    7  C   UNL     1     -10.910  12.342  67.823  1.00  0.00    -0.221 A  
HETATM    8  N   UNL     1     -11.886  12.408  68.708  1.00  0.00    -0.322 NA 
HETATM    9  C   UNL     1     -10.664  14.320  68.888  1.00  0.00    -0.257 A  
HETATM   10  C   UNL     1     -10.355  15.590  69.424  1.00  0.00    -0.258 A  
HETATM   11  C   UNL     1     -11.744  13.595  69.375  1.00  0.00    -0.324 A  
HETATM   12  C   UNL     1     -11.137  16.115  70.451  1.00  0.00    -0.362 A  
HETATM   13  C   UNL     1     -12.532  14.134  70.413  1.00  0.00    -0.424 A  
HETATM   14  C   UNL     1     -12.216  15.391  70.948  1.00  0.00    -0.425 A  
BRANCH   7  15
HETATM   15  N   UNL     1     -10.755  11.340  66.896  1.00  0.00    -0.261 NA 
HETATM   16  N   UNL     1      -9.957  10.950  63.669  1.00  0.00    -0.331 NA 
HETATM   17  C   UNL     1      -8.589  10.586  65.793  1.00  0.00    -0.180 C  
HETATM   18  C   UNL     1     -10.764  11.896  64.455  1.00  0.00    -0.312 C  
HETATM   19  C   UNL     1      -9.551  10.496  66.986  1.00  0.00    -0.173 C  
HETATM   20  C   UNL     1      -9.122  11.683  62.718  1.00  0.00     0.096 C  
HETATM   21  C   UNL     1     -11.510  11.264  65.642  1.00  0.00     0.227 C  
HETATM   22  C   UNL     1      -9.167  10.022  64.489  1.00  0.00    -0.262 C  
ENDBRANCH   7  15
ENDBRANCH   5   6
ENDBRANCH   4   5
ENDBRANCH   3   4
ENDBRANCH   2   3
TORSDOF 5
ENDMDL
MODEL      131
REMARK 921   NORMALIZED FREE ENERGY PREDICTED BY IDOCK:   -4.04 KCAL/MOL
REMARK 922        TOTAL FREE ENERGY PREDICTED BY IDOCK:   -5.85 KCAL/MOL
REMARK 923 INTER-LIGAND FREE ENERGY PREDICTED BY IDOCK:   -5.09 KCAL/MOL
REMARK 924 INTRA-LIGAND FREE ENERGY PREDICTED BY IDOCK:   -0.76 KCAL/MOL
REMARK 927      BINDING AFFINITY PREDICTED BY RF-SCORE:    0.00 PKD
ROOT
HETATM    1  C   UNL     1      -6.342   7.573  72.363  1.00  0.00    -0.050 C  
HETATM    2  C   UNL     1      -6.308   6.576  71.231  1.00  0.00    -0.041 C  
ENDROOT
BRANCH   2   3
HETATM    3  O   UNL     1      -7.648   6.288  70.819  1.00  0.00    -0.092 OA 
BRANCH   3   4
HETATM    4  C   UNL     1      -8.123   5.170  71.567  1.00  0.00    -0.115 C  
BRANCH   4   5
HETATM    5  C   UNL     1      -9.547   4.798  71.211  1.00  0.00    -0.168 C  
BRANCH   5   6
HETATM    6  N   UNL     1     -10.102   5.391  70.005  1.00  0.00    -0.231 NA 
HETATM    7  C   UNL     1     -11.000   6.468  69.977  1.00  0.00    -0.332 A  
HETATM    8  N   UNL     1     -11.409   6.669  68.738  1.00  0.00    -0.173 NA 
HETATM    9  C   UNL     1      -9.939   4.932  68.703  1.00  0.00    -0.125 A  
HETATM   10  C   UNL     1      -9.197   3.902  68.083  1.00  0.00    -0.207 A  
HETATM   11  C   UNL     1     -10.764   5.757  67.948  1.00  0.00    -0.213 A  
HETATM   12  C   UNL     1      -9.292   3.716  66.705  1.00  0.00    -0.206 A  
HETATM   13  C   UNL     1     -10.856   5.561  66.555  1.00  0.00    -0.237 A  
HETATM   14  C   UNL     1     -10.112   4.542  65.942  1.00  0.00    -0.279 A  
BRANCH   7  15
HETATM   15  N   UNL     1     -11.481   7.128  71.081  1.00  0.00    -0.277 NA 
HETATM   16  N   UNL     1     -12.425  10.201  72.009  1.00  0.00    -0.282 NA 
HETATM   17  C   UNL     1     -13.795   8.141  71.383  1.00  0.00    -0.317 C  
HETATM   18  C   UNL     1     -11.346   9.625  71.191  1.00  0.00    -0.386 C  
HETATM   19  C   UNL     1     -12.887   6.906  71.461  1.00  0.00    -0.333 C  
HETATM   20  C   UNL     1     -13.005  11.353  71.319  1.00  0.00    -0.316 C  
HETATM   21  C   UNL     1     -10.813   8.275  71.702  1.00  0.00    -0.256 C  
HETATM   22  C   UNL     1     -13.449   9.229  72.408  1.00  0.00    -0.459 C  
ENDBRANCH   7  15
ENDBRANCH   5   6
ENDBRANCH   4   5
ENDBRANCH   3   4
ENDBRANCH   2   3
TORSDOF 5
ENDMDL
MODEL      132
REMARK 921   NORMALIZED FREE ENERGY PREDICTED BY IDOCK:   -4.02 KCAL/MOL
REMARK 922        TOTAL FREE ENERGY PREDICTED BY IDOCK:   -5.82 KCAL/MOL
REMARK 923 INTER-LIGAND FREE ENERGY PREDICTED BY IDOCK:   -5.16 KCAL/MOL
REMARK 924 INTRA-LIGAND FREE ENERGY PREDICTED BY IDOCK:   -0.66 KCAL/MOL
REMARK 927      BINDING AFFINITY PREDICTED BY RF-SCORE:    0.00 PKD
ROOT
HETATM    1  C   UNL     1     -12.398   8.810  71.894  1.00  0.00    -0.429 C  
HETATM    2  C   UNL     1     -11.010   9.252  71.501  1.00  0.00    -0.375 C  
ENDROOT
BRANCH   2   3
HETATM    3  O   UNL     1     -10.524   8.398  70.460  1.00  0.00    -0.200 OA 
BRANCH   3   4
HETATM    4  C   UNL     1     -10.714   9.054  69.207  1.00  0.00    -0.174 C  
BRANCH   4   5
HETATM    5  C   UNL     1     -10.508  10.551  69.302  1.00  0.00    -0.235 C  
BRANCH   5   6
HETATM    6  N   UNL     1      -9.370  11.108  68.590  1.00  0.00    -0.189 NA 
HETATM    7  C   UNL     1      -9.442  11.795  67.369  1.00  0.00    -0.173 A  
HETATM    8  N   UNL     1      -8.222  12.047  66.932  1.00  0.00    -0.167 NA 
HETATM    9  C   UNL     1      -8.028  10.961  68.924  1.00  0.00    -0.146 A  
HETATM   10  C   UNL     1      -7.313  10.373  69.991  1.00  0.00    -0.121 A  
HETATM   11  C   UNL     1      -7.351  11.563  67.870  1.00  0.00    -0.094 A  
HETATM   12  C   UNL     1      -5.920  10.401  69.986  1.00  0.00    -0.073 A  
HETATM   13  C   UNL     1      -5.941  11.585  67.873  1.00  0.00    -0.045 A  
HETATM   14  C   UNL     1      -5.235  11.007  68.938  1.00  0.00    -0.040 A  
BRANCH   7  15
HETATM   15  N   UNL     1     -10.596  12.050  66.671  1.00  0.00    -0.226 NA 
HETATM   16  N   UNL     1     -12.112  14.574  65.079  1.00  0.00    -0.398 NA 
HETATM   17  C   UNL     1     -10.812  12.566  64.188  1.00  0.00    -0.420 C  
HETATM   18  C   UNL     1     -11.337  14.415  66.320  1.00  0.00    -0.350 C  
HETATM   19  C   UNL     1     -10.709  11.515  65.302  1.00  0.00    -0.279 C  
HETATM   20  C   UNL     1     -11.653  15.761  64.359  1.00  0.00    -0.240 C  
HETATM   21  C   UNL     1     -11.568  13.080  67.048  1.00  0.00    -0.360 C  
HETATM   22  C   UNL     1     -12.111  13.380  64.224  1.00  0.00    -0.424 C  
ENDBRANCH   7  15
ENDBRANCH   5   6
ENDBRANCH   4   5
ENDBRANCH   3   4
ENDBRANCH   2   3
TORSDOF 5
ENDMDL
MODEL      133
REMARK 921   NORMALIZED FREE ENERGY PREDICTED BY IDOCK:   -4.01 KCAL/MOL
REMARK 922        TOTAL FREE ENERGY PREDICTED BY IDOCK:   -5.82 KCAL/MOL
REMARK 923 INTER-LIGAND FREE ENERGY PREDICTED BY IDOCK:   -5.22 KCAL/MOL
REMARK 924 INTRA-LIGAND FREE ENERGY PREDICTED BY IDOCK:   -0.59 KCAL/MOL
REMARK 927      BINDING AFFINITY PREDICTED BY RF-SCORE:    0.00 PKD
ROOT
HETATM    1  C   UNL     1      -8.941   2.785  65.941  1.00  0.00    -0.142 C  
HETATM    2  C   UNL     1      -8.832   4.172  65.358  1.00  0.00    -0.124 C  
ENDROOT
BRANCH   2   3
HETATM    3  O   UNL     1     -10.127   4.784  65.358  1.00  0.00    -0.157 OA 
BRANCH   3   4
HETATM    4  C   UNL     1     -10.322   5.434  66.612  1.00  0.00    -0.275 C  
BRANCH   4   5
HETATM    5  C   UNL     1      -9.306   6.529  66.860  1.00  0.00    -0.146 C  
BRANCH   5   6
HETATM    6  N   UNL     1      -9.787   7.745  67.496  1.00  0.00    -0.160 NA 
HETATM    7  C   UNL     1     -10.247   7.835  68.817  1.00  0.00    -0.201 A  
HETATM    8  N   UNL     1     -10.734   9.043  69.034  1.00  0.00    -0.186 NA 
HETATM    9  C   UNL     1      -9.983   8.980  66.886  1.00  0.00    -0.246 A  
HETATM   10  C   UNL     1      -9.744   9.519  65.602  1.00  0.00    -0.361 A  
HETATM   11  C   UNL     1     -10.568   9.757  67.878  1.00  0.00    -0.259 A  
HETATM   12  C   UNL     1     -10.096  10.840  65.333  1.00  0.00    -0.347 A  
HETATM   13  C   UNL     1     -10.922  11.092  67.596  1.00  0.00    -0.332 A  
HETATM   14  C   UNL     1     -10.676  11.626  66.323  1.00  0.00    -0.317 A  
BRANCH   7  15
HETATM   15  N   UNL     1     -10.304   6.793  69.709  1.00  0.00    -0.194 NA 
HETATM   16  N   UNL     1      -9.695   6.160  72.939  1.00  0.00    -0.158 NA 
HETATM   17  C   UNL     1     -11.886   6.542  71.686  1.00  0.00    -0.384 C  
HETATM   18  C   UNL     1      -9.049   6.940  71.871  1.00  0.00    -0.141 C  
HETATM   19  C   UNL     1     -11.630   6.360  70.184  1.00  0.00    -0.381 C  
HETATM   20  C   UNL     1      -9.738   6.950  74.169  1.00  0.00    -0.297 C  
HETATM   21  C   UNL     1      -9.150   6.307  70.472  1.00  0.00    -0.154 C  
HETATM   22  C   UNL     1     -11.019   5.640  72.575  1.00  0.00    -0.264 C  
ENDBRANCH   7  15
ENDBRANCH   5   6
ENDBRANCH   4   5
ENDBRANCH   3   4
ENDBRANCH   2   3
TORSDOF 5
ENDMDL
MODEL      134
REMARK 921   NORMALIZED FREE ENERGY PREDICTED BY IDOCK:   -4.00 KCAL/MOL
REMARK 922        TOTAL FREE ENERGY PREDICTED BY IDOCK:   -5.80 KCAL/MOL
REMARK 923 INTER-LIGAND FREE ENERGY PREDICTED BY IDOCK:   -4.92 KCAL/MOL
REMARK 924 INTRA-LIGAND FREE ENERGY PREDICTED BY IDOCK:   -0.88 KCAL/MOL
REMARK 927      BINDING AFFINITY PREDICTED BY RF-SCORE:    0.00 PKD
ROOT
HETATM    1  C   UNL     1      -6.797  13.360  67.637  1.00  0.00    -0.172 C  
HETATM    2  C   UNL     1      -6.975  12.130  68.491  1.00  0.00    -0.091 C  
ENDROOT
BRANCH   2   3
HETATM    3  O   UNL     1      -6.818  10.965  67.675  1.00  0.00    -0.077 OA 
BRANCH   3   4
HETATM    4  C   UNL     1      -6.938  11.350  66.306  1.00  0.00     0.072 C  
BRANCH   4   5
HETATM    5  C   UNL     1      -8.125  10.702  65.625  1.00  0.00    -0.146 C  
BRANCH   5   6
HETATM    6  N   UNL     1      -9.446  11.082  66.098  1.00  0.00    -0.196 NA 
HETATM    7  C   UNL     1     -10.199  10.371  67.044  1.00  0.00    -0.225 A  
HETATM    8  N   UNL     1     -11.400  10.909  67.147  1.00  0.00    -0.406 NA 
HETATM    9  C   UNL     1     -10.230  12.128  65.621  1.00  0.00    -0.256 A  
HETATM   10  C   UNL     1     -10.060  13.166  64.679  1.00  0.00    -0.248 A  
HETATM   11  C   UNL     1     -11.432  11.986  66.303  1.00  0.00    -0.345 A  
HETATM   12  C   UNL     1     -11.105  14.056  64.437  1.00  0.00    -0.300 A  
HETATM   13  C   UNL     1     -12.485  12.888  66.050  1.00  0.00    -0.171 A  
HETATM   14  C   UNL     1     -12.310  13.923  65.120  1.00  0.00    -0.471 A  
BRANCH   7  15
HETATM   15  N   UNL     1      -9.797   9.217  67.670  1.00  0.00    -0.163 NA 
HETATM   16  N   UNL     1     -10.723   7.228  70.197  1.00  0.00    -0.239 NA 
HETATM   17  C   UNL     1     -10.992   6.970  67.672  1.00  0.00    -0.259 C  
HETATM   18  C   UNL     1     -10.664   8.678  69.956  1.00  0.00    -0.228 C  
HETATM   19  C   UNL     1     -10.026   7.938  66.975  1.00  0.00    -0.252 C  
HETATM   20  C   UNL     1     -11.999   6.883  70.823  1.00  0.00    -0.373 C  
HETATM   21  C   UNL     1      -9.472   9.132  69.097  1.00  0.00    -0.156 C  
HETATM   22  C   UNL     1     -10.462   6.418  69.001  1.00  0.00    -0.224 C  
ENDBRANCH   7  15
ENDBRANCH   5   6
ENDBRANCH   4   5
ENDBRANCH   3   4
ENDBRANCH   2   3
TORSDOF 5
ENDMDL
MODEL      135
REMARK 921   NORMALIZED FREE ENERGY PREDICTED BY IDOCK:   -3.99 KCAL/MOL
REMARK 922        TOTAL FREE ENERGY PREDICTED BY IDOCK:   -5.79 KCAL/MOL
REMARK 923 INTER-LIGAND FREE ENERGY PREDICTED BY IDOCK:   -5.24 KCAL/MOL
REMARK 924 INTRA-LIGAND FREE ENERGY PREDICTED BY IDOCK:   -0.55 KCAL/MOL
REMARK 927      BINDING AFFINITY PREDICTED BY RF-SCORE:    0.00 PKD
ROOT
HETATM    1  C   UNL     1      -8.669  10.165  64.524  1.00  0.00    -0.211 C  
HETATM    2  C   UNL     1      -9.836   9.985  65.462  1.00  0.00    -0.303 C  
ENDROOT
BRANCH   2   3
HETATM    3  O   UNL     1      -9.418  10.296  66.795  1.00  0.00    -0.157 OA 
BRANCH   3   4
HETATM    4  C   UNL     1     -10.395   9.794  67.706  1.00  0.00    -0.225 C  
BRANCH   4   5
HETATM    5  C   UNL     1      -9.780   8.968  68.816  1.00  0.00    -0.159 C  
BRANCH   5   6
HETATM    6  N   UNL     1     -10.695   8.306  69.732  1.00  0.00    -0.238 NA 
HETATM    7  C   UNL     1     -10.893   6.920  69.811  1.00  0.00    -0.259 A  
HETATM    8  N   UNL     1     -11.883   6.663  70.645  1.00  0.00    -0.397 NA 
HETATM    9  C   UNL     1     -11.602   8.921  70.589  1.00  0.00    -0.215 A  
HETATM   10  C   UNL     1     -11.906  10.253  70.947  1.00  0.00    -0.473 A  
HETATM   11  C   UNL     1     -12.316   7.863  71.139  1.00  0.00    -0.230 A  
HETATM   12  C   UNL     1     -12.928  10.505  71.862  1.00  0.00    -0.553 A  
HETATM   13  C   UNL     1     -13.348   8.127  72.062  1.00  0.00    -0.309 A  
HETATM   14  C   UNL     1     -13.642   9.451  72.421  1.00  0.00    -0.498 A  
BRANCH   7  15
HETATM   15  N   UNL     1     -10.247   5.983  69.043  1.00  0.00    -0.175 NA 
HETATM   16  N   UNL     1      -8.790   5.706  66.043  1.00  0.00    -0.143 NA 
HETATM   17  C   UNL     1      -7.791   5.968  68.377  1.00  0.00    -0.106 C  
HETATM   18  C   UNL     1      -9.996   6.356  66.580  1.00  0.00    -0.149 C  
HETATM   19  C   UNL     1      -8.868   5.619  69.413  1.00  0.00    -0.111 C  
HETATM   20  C   UNL     1      -8.090   6.627  65.148  1.00  0.00    -0.133 C  
HETATM   21  C   UNL     1     -10.691   5.574  67.708  1.00  0.00    -0.102 C  
HETATM   22  C   UNL     1      -7.900   5.162  67.076  1.00  0.00    -0.096 C  
ENDBRANCH   7  15
ENDBRANCH   5   6
ENDBRANCH   4   5
ENDBRANCH   3   4
ENDBRANCH   2   3
TORSDOF 5
ENDMDL
MODEL      136
REMARK 921   NORMALIZED FREE ENERGY PREDICTED BY IDOCK:   -3.99 KCAL/MOL
REMARK 922        TOTAL FREE ENERGY PREDICTED BY IDOCK:   -5.78 KCAL/MOL
REMARK 923 INTER-LIGAND FREE ENERGY PREDICTED BY IDOCK:   -5.22 KCAL/MOL
REMARK 924 INTRA-LIGAND FREE ENERGY PREDICTED BY IDOCK:   -0.56 KCAL/MOL
REMARK 927      BINDING AFFINITY PREDICTED BY RF-SCORE:    0.00 PKD
ROOT
HETATM    1  C   UNL     1      -8.207   5.305  66.262  1.00  0.00    -0.109 C  
HETATM    2  C   UNL     1      -8.689   6.128  67.431  1.00  0.00    -0.104 C  
ENDROOT
BRANCH   2   3
HETATM    3  O   UNL     1     -10.111   6.007  67.536  1.00  0.00    -0.132 OA 
BRANCH   3   4
HETATM    4  C   UNL     1     -10.510   6.435  68.837  1.00  0.00    -0.223 C  
BRANCH   4   5
HETATM    5  C   UNL     1      -9.647   7.563  69.364  1.00  0.00    -0.155 C  
BRANCH   5   6
HETATM    6  N   UNL     1     -10.291   8.852  69.556  1.00  0.00    -0.208 NA 
HETATM    7  C   UNL     1     -10.808   9.321  70.772  1.00  0.00    -0.284 A  
HETATM    8  N   UNL     1     -11.440  10.462  70.573  1.00  0.00    -0.327 NA 
HETATM    9  C   UNL     1     -10.607   9.778  68.568  1.00  0.00    -0.221 A  
HETATM   10  C   UNL     1     -10.385   9.883  67.176  1.00  0.00    -0.304 A  
HETATM   11  C   UNL     1     -11.316  10.764  69.243  1.00  0.00    -0.286 A  
HETATM   12  C   UNL     1     -10.878  10.985  66.480  1.00  0.00    -0.269 A  
HETATM   13  C   UNL     1     -11.813  11.874  68.531  1.00  0.00    -0.357 A  
HETATM   14  C   UNL     1     -11.584  11.978  67.151  1.00  0.00    -0.387 A  
BRANCH   7  15
HETATM   15  N   UNL     1     -10.775   8.637  71.963  1.00  0.00    -0.337 NA 
HETATM   16  N   UNL     1     -11.081   5.512  73.121  1.00  0.00    -0.288 NA 
HETATM   17  C   UNL     1      -9.018   6.962  72.728  1.00  0.00    -0.146 C  
HETATM   18  C   UNL     1     -11.747   6.335  72.098  1.00  0.00    -0.319 C  
HETATM   19  C   UNL     1      -9.464   8.426  72.602  1.00  0.00    -0.265 C  
HETATM   20  C   UNL     1     -10.805   4.182  72.581  1.00  0.00    -0.017 C  
HETATM   21  C   UNL     1     -11.883   7.821  72.467  1.00  0.00    -0.302 C  
HETATM   22  C   UNL     1      -9.879   6.134  73.690  1.00  0.00    -0.184 C  
ENDBRANCH   7  15
ENDBRANCH   5   6
ENDBRANCH   4   5
ENDBRANCH   3   4
ENDBRANCH   2   3
TORSDOF 5
ENDMDL
MODEL      137
REMARK 921   NORMALIZED FREE ENERGY PREDICTED BY IDOCK:   -3.98 KCAL/MOL
REMARK 922        TOTAL FREE ENERGY PREDICTED BY IDOCK:   -5.78 KCAL/MOL
REMARK 923 INTER-LIGAND FREE ENERGY PREDICTED BY IDOCK:   -5.11 KCAL/MOL
REMARK 924 INTRA-LIGAND FREE ENERGY PREDICTED BY IDOCK:   -0.68 KCAL/MOL
REMARK 927      BINDING AFFINITY PREDICTED BY RF-SCORE:    0.00 PKD
ROOT
HETATM    1  C   UNL     1     -11.068   2.668  73.565  1.00  0.00    -0.317 C  
HETATM    2  C   UNL     1     -11.177   4.146  73.287  1.00  0.00    -0.209 C  
ENDROOT
BRANCH   2   3
HETATM    3  O   UNL     1      -9.938   4.614  72.744  1.00  0.00    -0.145 OA 
BRANCH   3   4
HETATM    4  C   UNL     1     -10.082   5.993  72.405  1.00  0.00    -0.175 C  
BRANCH   4   5
HETATM    5  C   UNL     1     -11.060   6.209  71.269  1.00  0.00    -0.291 C  
BRANCH   5   6
HETATM    6  N   UNL     1     -11.089   7.531  70.666  1.00  0.00    -0.261 NA 
HETATM    7  C   UNL     1     -10.290   7.943  69.589  1.00  0.00    -0.216 A  
HETATM    8  N   UNL     1     -10.467   9.233  69.376  1.00  0.00    -0.214 NA 
HETATM    9  C   UNL     1     -11.810   8.633  71.112  1.00  0.00    -0.287 A  
HETATM   10  C   UNL     1     -12.753   8.872  72.137  1.00  0.00    -0.470 A  
HETATM   11  C   UNL     1     -11.397   9.666  70.281  1.00  0.00    -0.257 A  
HETATM   12  C   UNL     1     -13.274  10.153  72.309  1.00  0.00    -0.359 A  
HETATM   13  C   UNL     1     -11.928  10.960  70.464  1.00  0.00    -0.466 A  
HETATM   14  C   UNL     1     -12.870  11.192  71.476  1.00  0.00    -0.542 A  
BRANCH   7  15
HETATM   15  N   UNL     1      -9.370   7.157  68.940  1.00  0.00    -0.140 NA 
HETATM   16  N   UNL     1      -8.018   6.790  65.901  1.00  0.00    -0.106 NA 
HETATM   17  C   UNL     1      -7.106   7.873  68.024  1.00  0.00    -0.085 C  
HETATM   18  C   UNL     1      -9.359   7.068  66.438  1.00  0.00    -0.138 C  
HETATM   19  C   UNL     1      -7.942   7.391  69.218  1.00  0.00    -0.118 C  
HETATM   20  C   UNL     1      -7.738   7.689  64.782  1.00  0.00    -0.116 C  
HETATM   21  C   UNL     1      -9.678   6.346  67.758  1.00  0.00    -0.121 C  
HETATM   22  C   UNL     1      -6.955   6.826  66.913  1.00  0.00    -0.070 C  
ENDBRANCH   7  15
ENDBRANCH   5   6
ENDBRANCH   4   5
ENDBRANCH   3   4
ENDBRANCH   2   3
TORSDOF 5
ENDMDL
MODEL      138
REMARK 921   NORMALIZED FREE ENERGY PREDICTED BY IDOCK:   -3.98 KCAL/MOL
REMARK 922        TOTAL FREE ENERGY PREDICTED BY IDOCK:   -5.77 KCAL/MOL
REMARK 923 INTER-LIGAND FREE ENERGY PREDICTED BY IDOCK:   -4.90 KCAL/MOL
REMARK 924 INTRA-LIGAND FREE ENERGY PREDICTED BY IDOCK:   -0.87 KCAL/MOL
REMARK 927      BINDING AFFINITY PREDICTED BY RF-SCORE:    0.00 PKD
ROOT
HETATM    1  C   UNL     1     -10.847  16.549  69.336  1.00  0.00    -0.311 C  
HETATM    2  C   UNL     1     -11.815  15.477  68.901  1.00  0.00    -0.338 C  
ENDROOT
BRANCH   2   3
HETATM    3  O   UNL     1     -11.870  15.448  67.471  1.00  0.00    -0.182 OA 
BRANCH   3   4
HETATM    4  C   UNL     1     -12.106  14.104  67.053  1.00  0.00    -0.414 C  
BRANCH   4   5
HETATM    5  C   UNL     1     -11.029  13.592  66.120  1.00  0.00    -0.284 C  
BRANCH   5   6
HETATM    6  N   UNL     1      -9.717  13.348  66.696  1.00  0.00    -0.268 NA 
HETATM    7  C   UNL     1      -9.291  12.129  67.244  1.00  0.00    -0.183 A  
HETATM    8  N   UNL     1      -8.103  12.286  67.798  1.00  0.00    -0.143 NA 
HETATM    9  C   UNL     1      -8.715  14.290  66.908  1.00  0.00    -0.179 A  
HETATM   10  C   UNL     1      -8.541  15.660  66.612  1.00  0.00    -0.330 A  
HETATM   11  C   UNL     1      -7.731  13.586  67.591  1.00  0.00    -0.176 A  
HETATM   12  C   UNL     1      -7.371  16.307  67.006  1.00  0.00    -0.264 A  
HETATM   13  C   UNL     1      -6.551  14.249  67.987  1.00  0.00    -0.156 A  
HETATM   14  C   UNL     1      -6.378  15.608  67.684  1.00  0.00    -0.189 A  
BRANCH   7  15
HETATM   15  N   UNL     1     -10.046  10.984  67.309  1.00  0.00    -0.185 NA 
HETATM   16  N   UNL     1      -9.715   7.681  66.883  1.00  0.00    -0.196 NA 
HETATM   17  C   UNL     1      -9.835   9.097  69.003  1.00  0.00    -0.176 C  
HETATM   18  C   UNL     1      -9.225   8.892  66.206  1.00  0.00    -0.207 C  
HETATM   19  C   UNL     1     -10.411  10.473  68.642  1.00  0.00    -0.191 C  
HETATM   20  C   UNL     1      -8.619   6.726  67.042  1.00  0.00    -0.114 C  
HETATM   21  C   UNL     1     -10.226  10.059  66.186  1.00  0.00    -0.213 C  
HETATM   22  C   UNL     1     -10.397   7.949  68.155  1.00  0.00    -0.200 C  
ENDBRANCH   7  15
ENDBRANCH   5   6
ENDBRANCH   4   5
ENDBRANCH   3   4
ENDBRANCH   2   3
TORSDOF 5
ENDMDL
MODEL      139
REMARK 921   NORMALIZED FREE ENERGY PREDICTED BY IDOCK:   -3.96 KCAL/MOL
REMARK 922        TOTAL FREE ENERGY PREDICTED BY IDOCK:   -5.75 KCAL/MOL
REMARK 923 INTER-LIGAND FREE ENERGY PREDICTED BY IDOCK:   -5.22 KCAL/MOL
REMARK 924 INTRA-LIGAND FREE ENERGY PREDICTED BY IDOCK:   -0.53 KCAL/MOL
REMARK 927      BINDING AFFINITY PREDICTED BY RF-SCORE:    0.00 PKD
ROOT
HETATM    1  C   UNL     1      -9.993   7.294  70.068  1.00  0.00    -0.184 C  
HETATM    2  C   UNL     1     -10.169   8.667  70.666  1.00  0.00    -0.198 C  
ENDROOT
BRANCH   2   3
HETATM    3  O   UNL     1     -10.834   9.510  69.719  1.00  0.00    -0.231 OA 
BRANCH   3   4
HETATM    4  C   UNL     1     -11.224  10.714  70.377  1.00  0.00    -0.252 C  
BRANCH   4   5
HETATM    5  C   UNL     1     -11.815  11.730  69.422  1.00  0.00    -0.334 C  
BRANCH   5   6
HETATM    6  N   UNL     1     -11.718  13.129  69.804  1.00  0.00    -0.298 NA 
HETATM    7  C   UNL     1     -10.772  14.037  69.305  1.00  0.00    -0.115 A  
HETATM    8  N   UNL     1     -10.874  15.181  69.954  1.00  0.00    -0.267 NA 
HETATM    9  C   UNL     1     -12.453  13.773  70.794  1.00  0.00    -0.370 A  
HETATM   10  C   UNL     1     -13.512  13.414  71.656  1.00  0.00    -0.378 A  
HETATM   11  C   UNL     1     -11.899  15.045  70.851  1.00  0.00    -0.324 A  
HETATM   12  C   UNL     1     -14.006  14.347  72.567  1.00  0.00    -0.508 A  
HETATM   13  C   UNL     1     -12.403  15.982  71.776  1.00  0.00    -0.496 A  
HETATM   14  C   UNL     1     -13.461  15.625  72.626  1.00  0.00    -0.655 A  
BRANCH   7  15
HETATM   15  N   UNL     1      -9.803  13.741  68.378  1.00  0.00    -0.228 NA 
HETATM   16  N   UNL     1      -7.313  15.241  66.721  1.00  0.00    -0.029 NA 
HETATM   17  C   UNL     1      -7.286  13.687  68.745  1.00  0.00    -0.100 C  
HETATM   18  C   UNL     1      -8.685  15.593  67.118  1.00  0.00    -0.210 C  
HETATM   19  C   UNL     1      -8.636  12.960  68.823  1.00  0.00     0.171 C  
HETATM   20  C   UNL     1      -6.415  16.361  67.003  1.00  0.00    -0.167 C  
HETATM   21  C   UNL     1      -9.678  14.418  67.084  1.00  0.00    -0.248 C  
HETATM   22  C   UNL     1      -6.828  13.988  67.313  1.00  0.00     0.197 C  
ENDBRANCH   7  15
ENDBRANCH   5   6
ENDBRANCH   4   5
ENDBRANCH   3   4
ENDBRANCH   2   3
TORSDOF 5
ENDMDL
MODEL      140
REMARK 921   NORMALIZED FREE ENERGY PREDICTED BY IDOCK:   -3.96 KCAL/MOL
REMARK 922        TOTAL FREE ENERGY PREDICTED BY IDOCK:   -5.75 KCAL/MOL
REMARK 923 INTER-LIGAND FREE ENERGY PREDICTED BY IDOCK:   -5.18 KCAL/MOL
REMARK 924 INTRA-LIGAND FREE ENERGY PREDICTED BY IDOCK:   -0.57 KCAL/MOL
REMARK 927      BINDING AFFINITY PREDICTED BY RF-SCORE:    0.00 PKD
ROOT
HETATM    1  C   UNL     1     -11.513  12.585  64.741  1.00  0.00    -0.369 C  
HETATM    2  C   UNL     1     -10.410  12.187  65.689  1.00  0.00    -0.257 C  
ENDROOT
BRANCH   2   3
HETATM    3  O   UNL     1     -10.748  12.623  67.010  1.00  0.00    -0.241 OA 
BRANCH   3   4
HETATM    4  C   UNL     1     -11.233  11.502  67.749  1.00  0.00    -0.279 C  
BRANCH   4   5
HETATM    5  C   UNL     1     -10.131  10.786  68.501  1.00  0.00    -0.176 C  
BRANCH   5   6
HETATM    6  N   UNL     1     -10.516   9.628  69.291  1.00  0.00    -0.208 NA 
HETATM    7  C   UNL     1     -10.083   8.314  69.060  1.00  0.00    -0.202 A  
HETATM    8  N   UNL     1     -10.721   7.490  69.869  1.00  0.00    -0.245 NA 
HETATM    9  C   UNL     1     -11.453   9.598  70.319  1.00  0.00    -0.233 A  
HETATM   10  C   UNL     1     -12.242  10.557  70.992  1.00  0.00    -0.505 A  
HETATM   11  C   UNL     1     -11.546   8.252  70.651  1.00  0.00    -0.191 A  
HETATM   12  C   UNL     1     -13.116  10.148  71.998  1.00  0.00    -0.538 A  
HETATM   13  C   UNL     1     -12.434   7.847  71.668  1.00  0.00    -0.344 A  
HETATM   14  C   UNL     1     -13.209   8.803  72.340  1.00  0.00    -0.441 A  
BRANCH   7  15
HETATM   15  N   UNL     1      -9.224   7.929  68.060  1.00  0.00    -0.132 NA 
HETATM   16  N   UNL     1      -7.041   5.487  67.371  1.00  0.00    -0.072 NA 
HETATM   17  C   UNL     1      -9.428   5.884  66.559  1.00  0.00    -0.171 C  
HETATM   18  C   UNL     1      -7.404   6.282  68.554  1.00  0.00    -0.086 C  
HETATM   19  C   UNL     1      -9.804   7.346  66.837  1.00  0.00    -0.216 C  
HETATM   20  C   UNL     1      -6.921   4.077  67.741  1.00  0.00    -0.055 C  
HETATM   21  C   UNL     1      -7.782   7.741  68.249  1.00  0.00    -0.119 C  
HETATM   22  C   UNL     1      -7.944   5.679  66.229  1.00  0.00    -0.102 C  
ENDBRANCH   7  15
ENDBRANCH   5   6
ENDBRANCH   4   5
ENDBRANCH   3   4
ENDBRANCH   2   3
TORSDOF 5
ENDMDL
MODEL      141
REMARK 921   NORMALIZED FREE ENERGY PREDICTED BY IDOCK:   -3.94 KCAL/MOL
REMARK 922        TOTAL FREE ENERGY PREDICTED BY IDOCK:   -5.72 KCAL/MOL
REMARK 923 INTER-LIGAND FREE ENERGY PREDICTED BY IDOCK:   -5.57 KCAL/MOL
REMARK 924 INTRA-LIGAND FREE ENERGY PREDICTED BY IDOCK:   -0.15 KCAL/MOL
REMARK 927      BINDING AFFINITY PREDICTED BY RF-SCORE:    0.00 PKD
ROOT
HETATM    1  C   UNL     1     -10.264  17.784  69.228  1.00  0.00    -0.121 C  
HETATM    2  C   UNL     1      -9.973  16.327  68.971  1.00  0.00    -0.256 C  
ENDROOT
BRANCH   2   3
HETATM    3  O   UNL     1     -10.401  15.557  70.098  1.00  0.00    -0.304 OA 
BRANCH   3   4
HETATM    4  C   UNL     1     -11.172  14.452  69.628  1.00  0.00    -0.232 C  
BRANCH   4   5
HETATM    5  C   UNL     1     -10.446  13.649  68.570  1.00  0.00    -0.244 C  
BRANCH   5   6
HETATM    6  N   UNL     1     -11.177  13.348  67.351  1.00  0.00    -0.278 NA 
HETATM    7  C   UNL     1     -11.741  12.103  67.035  1.00  0.00    -0.303 A  
HETATM    8  N   UNL     1     -12.214  12.132  65.803  1.00  0.00    -0.532 NA 
HETATM    9  C   UNL     1     -11.342  14.186  66.253  1.00  0.00    -0.338 A  
HETATM   10  C   UNL     1     -10.998  15.521  65.944  1.00  0.00    -0.264 A  
HETATM   11  C   UNL     1     -11.994  13.393  65.318  1.00  0.00    -0.380 A  
HETATM   12  C   UNL     1     -11.321  16.044  64.692  1.00  0.00    -0.312 A  
HETATM   13  C   UNL     1     -12.314  13.929  64.054  1.00  0.00    -0.355 A  
HETATM   14  C   UNL     1     -11.979  15.257  63.753  1.00  0.00     0.390 A  
BRANCH   7  15
HETATM   15  N   UNL     1     -11.695  10.988  67.835  1.00  0.00    -0.592 NA 
HETATM   16  N   UNL     1      -9.492   9.235  69.646  1.00  0.00    -0.170 NA 
HETATM   17  C   UNL     1     -11.287  10.909  70.346  1.00  0.00    -0.289 C  
HETATM   18  C   UNL     1      -9.490   9.915  68.341  1.00  0.00    -0.137 C  
HETATM   19  C   UNL     1     -12.277  11.080  69.185  1.00  0.00    -0.159 C  
HETATM   20  C   UNL     1      -8.266   9.561  70.374  1.00  0.00    -0.190 C  
HETATM   21  C   UNL     1     -10.824   9.836  67.580  1.00  0.00    -0.220 C  
HETATM   22  C   UNL     1     -10.693   9.499  70.448  1.00  0.00    -0.284 C  
ENDBRANCH   7  15
ENDBRANCH   5   6
ENDBRANCH   4   5
ENDBRANCH   3   4
ENDBRANCH   2   3
TORSDOF 5
ENDMDL
MODEL      142
REMARK 921   NORMALIZED FREE ENERGY PREDICTED BY IDOCK:   -3.93 KCAL/MOL
REMARK 922        TOTAL FREE ENERGY PREDICTED BY IDOCK:   -5.71 KCAL/MOL
REMARK 923 INTER-LIGAND FREE ENERGY PREDICTED BY IDOCK:   -5.33 KCAL/MOL
REMARK 924 INTRA-LIGAND FREE ENERGY PREDICTED BY IDOCK:   -0.39 KCAL/MOL
REMARK 927      BINDING AFFINITY PREDICTED BY RF-SCORE:    0.00 PKD
ROOT
HETATM    1  C   UNL     1     -10.337  17.380  68.399  1.00  0.00    -0.379 C  
HETATM    2  C   UNL     1     -10.198  15.951  67.936  1.00  0.00    -0.251 C  
ENDROOT
BRANCH   2   3
HETATM    3  O   UNL     1     -10.194  15.087  69.078  1.00  0.00    -0.227 OA 
BRANCH   3   4
HETATM    4  C   UNL     1     -10.679  13.806  68.680  1.00  0.00    -0.256 C  
BRANCH   4   5
HETATM    5  C   UNL     1      -9.645  13.008  67.914  1.00  0.00    -0.215 C  
BRANCH   5   6
HETATM    6  N   UNL     1     -10.114  12.246  66.769  1.00  0.00    -0.207 NA 
HETATM    7  C   UNL     1      -9.780  10.911  66.498  1.00  0.00    -0.198 A  
HETATM    8  N   UNL     1     -10.260  10.566  65.318  1.00  0.00    -0.299 NA 
HETATM    9  C   UNL     1     -10.863  12.728  65.700  1.00  0.00    -0.273 A  
HETATM   10  C   UNL     1     -11.473  13.958  65.371  1.00  0.00    -0.316 A  
HETATM   11  C   UNL     1     -10.934  11.651  64.825  1.00  0.00    -0.289 A  
HETATM   12  C   UNL     1     -12.154  14.089  64.162  1.00  0.00    -0.456 A  
HETATM   13  C   UNL     1     -11.623  11.792  63.604  1.00  0.00    -0.521 A  
HETATM   14  C   UNL     1     -12.235  13.013  63.284  1.00  0.00    -0.464 A  
BRANCH   7  15
HETATM   15  N   UNL     1      -8.970  10.124  67.279  1.00  0.00    -0.135 NA 
HETATM   16  N   UNL     1      -6.389  10.420  69.389  1.00  0.00    -0.048 NA 
HETATM   17  C   UNL     1      -8.878  10.054  69.821  1.00  0.00    -0.205 C  
HETATM   18  C   UNL     1      -6.789  11.029  68.111  1.00  0.00    -0.067 C  
HETATM   19  C   UNL     1      -9.535   9.569  68.521  1.00  0.00    -0.141 C  
HETATM   20  C   UNL     1      -5.922  11.459  70.306  1.00  0.00    -0.159 C  
HETATM   21  C   UNL     1      -7.511  10.071  67.148  1.00  0.00    -0.091 C  
HETATM   22  C   UNL     1      -7.429   9.581  69.996  1.00  0.00    -0.126 C  
ENDBRANCH   7  15
ENDBRANCH   5   6
ENDBRANCH   4   5
ENDBRANCH   3   4
ENDBRANCH   2   3
TORSDOF 5
ENDMDL
MODEL      143
REMARK 921   NORMALIZED FREE ENERGY PREDICTED BY IDOCK:   -3.92 KCAL/MOL
REMARK 922        TOTAL FREE ENERGY PREDICTED BY IDOCK:   -5.70 KCAL/MOL
REMARK 923 INTER-LIGAND FREE ENERGY PREDICTED BY IDOCK:   -4.91 KCAL/MOL
REMARK 924 INTRA-LIGAND FREE ENERGY PREDICTED BY IDOCK:   -0.79 KCAL/MOL
REMARK 927      BINDING AFFINITY PREDICTED BY RF-SCORE:    0.00 PKD
ROOT
HETATM    1  C   UNL     1      -6.529   9.838  64.604  1.00  0.00    -0.111 C  
HETATM    2  C   UNL     1      -7.314   8.644  64.120  1.00  0.00    -0.102 C  
ENDROOT
BRANCH   2   3
HETATM    3  O   UNL     1      -8.524   9.096  63.504  1.00  0.00    -0.188 OA 
BRANCH   3   4
HETATM    4  C   UNL     1      -8.879  10.356  64.072  1.00  0.00    -0.212 C  
BRANCH   4   5
HETATM    5  C   UNL     1     -10.280  10.356  64.648  1.00  0.00    -0.235 C  
BRANCH   5   6
HETATM    6  N   UNL     1     -10.426  10.790  66.028  1.00  0.00    -0.236 NA 
HETATM    7  C   UNL     1     -10.148  10.002  67.154  1.00  0.00    -0.212 A  
HETATM    8  N   UNL     1     -10.513  10.648  68.246  1.00  0.00    -0.176 NA 
HETATM    9  C   UNL     1     -10.968  11.994  66.467  1.00  0.00    -0.295 A  
HETATM   10  C   UNL     1     -11.448  13.169  65.847  1.00  0.00    -0.366 A  
HETATM   11  C   UNL     1     -10.999  11.864  67.850  1.00  0.00    -0.222 A  
HETATM   12  C   UNL     1     -11.952  14.205  66.631  1.00  0.00    -0.470 A  
HETATM   13  C   UNL     1     -11.513  12.917  68.635  1.00  0.00    -0.346 A  
HETATM   14  C   UNL     1     -11.981  14.085  68.016  1.00  0.00    -0.386 A  
BRANCH   7  15
HETATM   15  N   UNL     1      -9.687   8.709  67.121  1.00  0.00    -0.174 NA 
HETATM   16  N   UNL     1      -8.492   6.372  69.196  1.00  0.00    -0.121 NA 
HETATM   17  C   UNL     1     -10.795   6.654  68.134  1.00  0.00    -0.334 C  
HETATM   18  C   UNL     1      -8.333   7.825  69.032  1.00  0.00    -0.131 C  
HETATM   19  C   UNL     1     -10.674   7.628  66.953  1.00  0.00    -0.201 C  
HETATM   20  C   UNL     1      -8.686   6.053  70.610  1.00  0.00    -0.138 C  
HETATM   21  C   UNL     1      -8.352   8.306  67.572  1.00  0.00    -0.130 C  
HETATM   22  C   UNL     1      -9.546   5.792  68.354  1.00  0.00    -0.125 C  
ENDBRANCH   7  15
ENDBRANCH   5   6
ENDBRANCH   4   5
ENDBRANCH   3   4
ENDBRANCH   2   3
TORSDOF 5
ENDMDL
MODEL      144
REMARK 921   NORMALIZED FREE ENERGY PREDICTED BY IDOCK:   -3.91 KCAL/MOL
REMARK 922        TOTAL FREE ENERGY PREDICTED BY IDOCK:   -5.68 KCAL/MOL
REMARK 923 INTER-LIGAND FREE ENERGY PREDICTED BY IDOCK:   -5.01 KCAL/MOL
REMARK 924 INTRA-LIGAND FREE ENERGY PREDICTED BY IDOCK:   -0.67 KCAL/MOL
REMARK 927      BINDING AFFINITY PREDICTED BY RF-SCORE:    0.00 PKD
ROOT
HETATM    1  C   UNL     1      -9.801   3.388  72.021  1.00  0.00    -0.239 C  
HETATM    2  C   UNL     1     -10.138   4.812  71.654  1.00  0.00    -0.194 C  
ENDROOT
BRANCH   2   3
HETATM    3  O   UNL     1      -9.040   5.383  70.934  1.00  0.00    -0.135 OA 
BRANCH   3   4
HETATM    4  C   UNL     1      -9.281   6.780  70.771  1.00  0.00    -0.158 C  
BRANCH   4   5
HETATM    5  C   UNL     1     -10.535   7.061  69.970  1.00  0.00    -0.215 C  
BRANCH   5   6
HETATM    6  N   UNL     1     -10.891   8.456  69.769  1.00  0.00    -0.219 NA 
HETATM    7  C   UNL     1     -10.361   9.287  68.772  1.00  0.00    -0.211 A  
HETATM    8  N   UNL     1     -10.792  10.522  68.951  1.00  0.00    -0.219 NA 
HETATM    9  C   UNL     1     -11.712   9.229  70.583  1.00  0.00    -0.222 A  
HETATM   10  C   UNL     1     -12.504   8.995  71.729  1.00  0.00    -0.438 A  
HETATM   11  C   UNL     1     -11.626  10.503  70.036  1.00  0.00    -0.313 A  
HETATM   12  C   UNL     1     -13.206  10.050  72.310  1.00  0.00    -0.401 A  
HETATM   13  C   UNL     1     -12.337  11.565  70.632  1.00  0.00    -0.457 A  
HETATM   14  C   UNL     1     -13.129  11.326  71.765  1.00  0.00    -0.527 A  
BRANCH   7  15
HETATM   15  N   UNL     1      -9.435   8.905  67.832  1.00  0.00    -0.141 NA 
HETATM   16  N   UNL     1      -8.587   9.575  64.665  1.00  0.00    -0.175 NA 
HETATM   17  C   UNL     1      -7.544  10.312  66.874  1.00  0.00    -0.105 C  
HETATM   18  C   UNL     1      -9.843   9.407  65.413  1.00  0.00    -0.089 C  
HETATM   19  C   UNL     1      -8.052   9.388  67.989  1.00  0.00    -0.106 C  
HETATM   20  C   UNL     1      -8.682  10.750  63.799  1.00  0.00    -0.082 C  
HETATM   21  C   UNL     1      -9.784   8.344  66.523  1.00  0.00    -0.260 C  
HETATM   22  C   UNL     1      -7.391   9.617  65.515  1.00  0.00    -0.106 C  
ENDBRANCH   7  15
ENDBRANCH   5   6
ENDBRANCH   4   5
ENDBRANCH   3   4
ENDBRANCH   2   3
TORSDOF 5
ENDMDL
MODEL      145
REMARK 921   NORMALIZED FREE ENERGY PREDICTED BY IDOCK:   -3.90 KCAL/MOL
REMARK 922        TOTAL FREE ENERGY PREDICTED BY IDOCK:   -5.68 KCAL/MOL
REMARK 923 INTER-LIGAND FREE ENERGY PREDICTED BY IDOCK:   -5.00 KCAL/MOL
REMARK 924 INTRA-LIGAND FREE ENERGY PREDICTED BY IDOCK:   -0.68 KCAL/MOL
REMARK 927      BINDING AFFINITY PREDICTED BY RF-SCORE:    0.00 PKD
ROOT
HETATM    1  C   UNL     1     -11.919  15.812  64.208  1.00  0.00    -0.062 C  
HETATM    2  C   UNL     1     -11.308  14.434  64.259  1.00  0.00    -0.151 C  
ENDROOT
BRANCH   2   3
HETATM    3  O   UNL     1     -12.350  13.464  64.406  1.00  0.00    -0.501 OA 
BRANCH   3   4
HETATM    4  C   UNL     1     -11.764  12.163  64.408  1.00  0.00    -0.355 C  
BRANCH   4   5
HETATM    5  C   UNL     1     -10.321  12.180  64.868  1.00  0.00    -0.289 C  
BRANCH   5   6
HETATM    6  N   UNL     1      -9.736  10.906  65.254  1.00  0.00    -0.229 NA 
HETATM    7  C   UNL     1      -9.560  10.467  66.574  1.00  0.00    -0.179 A  
HETATM    8  N   UNL     1      -8.882   9.335  66.576  1.00  0.00    -0.130 NA 
HETATM    9  C   UNL     1      -9.153   9.970  64.407  1.00  0.00    -0.247 A  
HETATM   10  C   UNL     1      -8.989   9.838  63.010  1.00  0.00    -0.271 A  
HETATM   11  C   UNL     1      -8.639   9.009  65.269  1.00  0.00    -0.174 A  
HETATM   12  C   UNL     1      -8.312   8.734  62.496  1.00  0.00    -0.202 A  
HETATM   13  C   UNL     1      -7.953   7.897  64.740  1.00  0.00    -0.140 A  
HETATM   14  C   UNL     1      -7.800   7.765  63.352  1.00  0.00    -0.131 A  
BRANCH   7  15
HETATM   15  N   UNL     1      -9.923  11.169  67.697  1.00  0.00    -0.172 NA 
HETATM   16  N   UNL     1     -10.312  14.334  68.713  1.00  0.00    -0.241 NA 
HETATM   17  C   UNL     1     -12.022  12.569  68.026  1.00  0.00    -0.281 C  
HETATM   18  C   UNL     1      -9.347  13.599  67.880  1.00  0.00    -0.206 C  
HETATM   19  C   UNL     1     -11.348  11.191  68.069  1.00  0.00    -0.312 C  
HETATM   20  C   UNL     1     -10.674  15.590  68.056  1.00  0.00    -0.283 C  
HETATM   21  C   UNL     1      -9.065  12.162  68.351  1.00  0.00    -0.151 C  
HETATM   22  C   UNL     1     -11.495  13.548  69.083  1.00  0.00    -0.295 C  
ENDBRANCH   7  15
ENDBRANCH   5   6
ENDBRANCH   4   5
ENDBRANCH   3   4
ENDBRANCH   2   3
TORSDOF 5
ENDMDL
MODEL      146
REMARK 921   NORMALIZED FREE ENERGY PREDICTED BY IDOCK:   -3.90 KCAL/MOL
REMARK 922        TOTAL FREE ENERGY PREDICTED BY IDOCK:   -5.67 KCAL/MOL
REMARK 923 INTER-LIGAND FREE ENERGY PREDICTED BY IDOCK:   -5.02 KCAL/MOL
REMARK 924 INTRA-LIGAND FREE ENERGY PREDICTED BY IDOCK:   -0.66 KCAL/MOL
REMARK 927      BINDING AFFINITY PREDICTED BY RF-SCORE:    0.00 PKD
ROOT
HETATM    1  C   UNL     1     -13.077  10.539  71.693  1.00  0.00    -0.551 C  
HETATM    2  C   UNL     1     -12.601   9.131  71.951  1.00  0.00    -0.388 C  
ENDROOT
BRANCH   2   3
HETATM    3  O   UNL     1     -11.192   9.152  72.201  1.00  0.00    -0.326 OA 
BRANCH   3   4
HETATM    4  C   UNL     1     -10.508   8.994  70.958  1.00  0.00    -0.269 C  
BRANCH   4   5
HETATM    5  C   UNL     1     -11.003   7.797  70.174  1.00  0.00    -0.241 C  
BRANCH   5   6
HETATM    6  N   UNL     1     -10.317   6.534  70.393  1.00  0.00    -0.193 NA 
HETATM    7  C   UNL     1      -9.374   5.968  69.524  1.00  0.00    -0.136 A  
HETATM    8  N   UNL     1      -9.047   4.762  69.950  1.00  0.00    -0.098 NA 
HETATM    9  C   UNL     1     -10.555   5.627  71.421  1.00  0.00    -0.253 A  
HETATM   10  C   UNL     1     -11.377   5.598  72.569  1.00  0.00    -0.349 A  
HETATM   11  C   UNL     1      -9.743   4.544  71.109  1.00  0.00    -0.186 A  
HETATM   12  C   UNL     1     -11.369   4.475  73.394  1.00  0.00    -0.376 A  
HETATM   13  C   UNL     1      -9.742   3.411  71.948  1.00  0.00    -0.235 A  
HETATM   14  C   UNL     1     -10.554   3.389  73.092  1.00  0.00    -0.270 A  
BRANCH   7  15
HETATM   15  N   UNL     1      -8.951   6.526  68.342  1.00  0.00    -0.126 NA 
HETATM   16  N   UNL     1      -9.904   8.852  66.134  1.00  0.00    -0.277 NA 
HETATM   17  C   UNL     1      -8.132   8.906  67.969  1.00  0.00    -0.106 C  
HETATM   18  C   UNL     1     -10.571   7.807  66.927  1.00  0.00    -0.277 C  
HETATM   19  C   UNL     1      -7.816   7.463  68.387  1.00  0.00    -0.122 C  
HETATM   20  C   UNL     1     -10.671  10.096  66.213  1.00  0.00     0.024 C  
HETATM   21  C   UNL     1      -9.744   6.523  67.109  1.00  0.00    -0.143 C  
HETATM   22  C   UNL     1      -8.494   9.055  66.486  1.00  0.00    -0.119 C  
ENDBRANCH   7  15
ENDBRANCH   5   6
ENDBRANCH   4   5
ENDBRANCH   3   4
ENDBRANCH   2   3
TORSDOF 5
ENDMDL
MODEL      147
REMARK 921   NORMALIZED FREE ENERGY PREDICTED BY IDOCK:   -3.90 KCAL/MOL
REMARK 922        TOTAL FREE ENERGY PREDICTED BY IDOCK:   -5.67 KCAL/MOL
REMARK 923 INTER-LIGAND FREE ENERGY PREDICTED BY IDOCK:   -5.10 KCAL/MOL
REMARK 924 INTRA-LIGAND FREE ENERGY PREDICTED BY IDOCK:   -0.58 KCAL/MOL
REMARK 927      BINDING AFFINITY PREDICTED BY RF-SCORE:    0.00 PKD
ROOT
HETATM    1  C   UNL     1     -11.814  14.521  69.077  1.00  0.00    -0.354 C  
HETATM    2  C   UNL     1     -11.801  13.172  69.752  1.00  0.00    -0.316 C  
ENDROOT
BRANCH   2   3
HETATM    3  O   UNL     1     -12.218  12.175  68.814  1.00  0.00    -0.204 OA 
BRANCH   3   4
HETATM    4  C   UNL     1     -12.017  10.889  69.397  1.00  0.00    -0.322 C  
BRANCH   4   5
HETATM    5  C   UNL     1     -11.003  10.061  68.636  1.00  0.00    -0.204 C  
BRANCH   5   6
HETATM    6  N   UNL     1      -9.607  10.220  69.008  1.00  0.00    -0.192 NA 
HETATM    7  C   UNL     1      -8.936   9.448  69.967  1.00  0.00    -0.212 A  
HETATM    8  N   UNL     1      -7.725   9.937  70.159  1.00  0.00    -0.175 NA 
HETATM    9  C   UNL     1      -8.740  11.218  68.575  1.00  0.00    -0.156 A  
HETATM   10  C   UNL     1      -8.814  12.287  67.654  1.00  0.00    -0.175 A  
HETATM   11  C   UNL     1      -7.582  11.002  69.311  1.00  0.00    -0.089 A  
HETATM   12  C   UNL     1      -7.714  13.126  67.483  1.00  0.00    -0.168 A  
HETATM   13  C   UNL     1      -6.476  11.857  69.133  1.00  0.00    -0.098 A  
HETATM   14  C   UNL     1      -6.550  12.912  68.212  1.00  0.00    -0.091 A  
BRANCH   7  15
HETATM   15  N   UNL     1      -9.494   8.423  70.691  1.00  0.00    -0.163 NA 
HETATM   16  N   UNL     1     -12.439   7.544  72.017  1.00  0.00    -0.285 NA 
HETATM   17  C   UNL     1     -11.249   6.759  69.900  1.00  0.00    -0.379 C  
HETATM   18  C   UNL     1     -11.663   8.788  71.888  1.00  0.00    -0.359 C  
HETATM   19  C   UNL     1      -9.769   7.155  69.993  1.00  0.00    -0.171 C  
HETATM   20  C   UNL     1     -13.838   7.799  71.678  1.00  0.00    -0.383 C  
HETATM   21  C   UNL     1     -10.140   8.601  71.995  1.00  0.00    -0.331 C  
HETATM   22  C   UNL     1     -11.885   6.419  71.254  1.00  0.00    -0.273 C  
ENDBRANCH   7  15
ENDBRANCH   5   6
ENDBRANCH   4   5
ENDBRANCH   3   4
ENDBRANCH   2   3
TORSDOF 5
ENDMDL
MODEL      148
REMARK 921   NORMALIZED FREE ENERGY PREDICTED BY IDOCK:   -3.87 KCAL/MOL
REMARK 922        TOTAL FREE ENERGY PREDICTED BY IDOCK:   -5.63 KCAL/MOL
REMARK 923 INTER-LIGAND FREE ENERGY PREDICTED BY IDOCK:   -4.99 KCAL/MOL
REMARK 924 INTRA-LIGAND FREE ENERGY PREDICTED BY IDOCK:   -0.64 KCAL/MOL
REMARK 927      BINDING AFFINITY PREDICTED BY RF-SCORE:    0.00 PKD
ROOT
HETATM    1  C   UNL     1     -11.949  13.742  68.540  1.00  0.00    -0.402 C  
HETATM    2  C   UNL     1     -10.480  13.488  68.313  1.00  0.00    -0.253 C  
ENDROOT
BRANCH   2   3
HETATM    3  O   UNL     1     -10.325  12.309  67.515  1.00  0.00    -0.201 OA 
BRANCH   3   4
HETATM    4  C   UNL     1      -9.605  11.339  68.274  1.00  0.00    -0.193 C  
BRANCH   4   5
HETATM    5  C   UNL     1     -10.173   9.944  68.116  1.00  0.00    -0.179 C  
BRANCH   5   6
HETATM    6  N   UNL     1     -10.488   9.218  69.335  1.00  0.00    -0.214 NA 
HETATM    7  C   UNL     1      -9.927   7.987  69.707  1.00  0.00    -0.191 A  
HETATM    8  N   UNL     1     -10.525   7.540  70.796  1.00  0.00    -0.211 NA 
HETATM    9  C   UNL     1     -11.464   9.546  70.269  1.00  0.00    -0.206 A  
HETATM   10  C   UNL     1     -12.366  10.618  70.450  1.00  0.00    -0.428 A  
HETATM   11  C   UNL     1     -11.450   8.480  71.161  1.00  0.00    -0.276 A  
HETATM   12  C   UNL     1     -13.244  10.606  71.532  1.00  0.00    -0.460 A  
HETATM   13  C   UNL     1     -12.343   8.475  72.251  1.00  0.00    -0.450 A  
HETATM   14  C   UNL     1     -13.232   9.545  72.432  1.00  0.00    -0.451 A  
BRANCH   7  15
HETATM   15  N   UNL     1      -8.992   7.291  68.981  1.00  0.00    -0.135 NA 
HETATM   16  N   UNL     1      -8.042   6.848  65.803  1.00  0.00    -0.116 NA 
HETATM   17  C   UNL     1      -7.028   8.252  67.678  1.00  0.00    -0.079 C  
HETATM   18  C   UNL     1      -9.321   6.970  66.520  1.00  0.00    -0.159 C  
HETATM   19  C   UNL     1      -7.597   7.764  69.017  1.00  0.00    -0.100 C  
HETATM   20  C   UNL     1      -8.074   7.670  64.593  1.00  0.00    -0.112 C  
HETATM   21  C   UNL     1      -9.327   6.335  67.921  1.00  0.00    -0.114 C  
HETATM   22  C   UNL     1      -6.867   7.141  66.633  1.00  0.00    -0.065 C  
ENDBRANCH   7  15
ENDBRANCH   5   6
ENDBRANCH   4   5
ENDBRANCH   3   4
ENDBRANCH   2   3
TORSDOF 5
ENDMDL
MODEL      149
REMARK 921   NORMALIZED FREE ENERGY PREDICTED BY IDOCK:   -3.85 KCAL/MOL
REMARK 922        TOTAL FREE ENERGY PREDICTED BY IDOCK:   -5.61 KCAL/MOL
REMARK 923 INTER-LIGAND FREE ENERGY PREDICTED BY IDOCK:   -5.27 KCAL/MOL
REMARK 924 INTRA-LIGAND FREE ENERGY PREDICTED BY IDOCK:   -0.33 KCAL/MOL
REMARK 927      BINDING AFFINITY PREDICTED BY RF-SCORE:    0.00 PKD
ROOT
HETATM    1  C   UNL     1     -12.758  11.108  71.559  1.00  0.00    -0.499 C  
HETATM    2  C   UNL     1     -12.512   9.818  70.817  1.00  0.00    -0.213 C  
ENDROOT
BRANCH   2   3
HETATM    3  O   UNL     1     -11.182   9.829  70.288  1.00  0.00    -0.254 OA 
BRANCH   3   4
HETATM    4  C   UNL     1     -11.040  10.964  69.436  1.00  0.00    -0.260 C  
BRANCH   4   5
HETATM    5  C   UNL     1     -11.348  10.643  67.989  1.00  0.00    -0.278 C  
BRANCH   5   6
HETATM    6  N   UNL     1     -10.294  10.011  67.213  1.00  0.00    -0.222 NA 
HETATM    7  C   UNL     1      -9.308  10.694  66.486  1.00  0.00    -0.167 A  
HETATM    8  N   UNL     1      -8.592   9.829  65.792  1.00  0.00    -0.131 NA 
HETATM    9  C   UNL     1     -10.148   8.650  66.964  1.00  0.00    -0.272 A  
HETATM   10  C   UNL     1     -10.812   7.474  67.375  1.00  0.00    -0.272 A  
HETATM   11  C   UNL     1      -9.078   8.582  66.081  1.00  0.00    -0.195 A  
HETATM   12  C   UNL     1     -10.386   6.237  66.893  1.00  0.00    -0.306 A  
HETATM   13  C   UNL     1      -8.655   7.328  65.596  1.00  0.00    -0.123 A  
HETATM   14  C   UNL     1      -9.312   6.161  66.013  1.00  0.00    -0.085 A  
BRANCH   7  15
HETATM   15  N   UNL     1      -9.187  12.060  66.406  1.00  0.00    -0.219 NA 
HETATM   16  N   UNL     1     -10.837  14.826  67.314  1.00  0.00    -0.301 NA 
HETATM   17  C   UNL     1      -8.790  13.685  68.324  1.00  0.00    -0.179 C  
HETATM   18  C   UNL     1     -11.197  13.506  66.771  1.00  0.00    -0.310 C  
HETATM   19  C   UNL     1      -8.205  12.719  67.284  1.00  0.00    -0.181 C  
HETATM   20  C   UNL     1     -11.744  15.173  68.408  1.00  0.00    -0.316 C  
HETATM   21  C   UNL     1     -10.179  12.931  65.771  1.00  0.00    -0.288 C  
HETATM   22  C   UNL     1      -9.429  14.938  67.712  1.00  0.00    -0.203 C  
ENDBRANCH   7  15
ENDBRANCH   5   6
ENDBRANCH   4   5
ENDBRANCH   3   4
ENDBRANCH   2   3
TORSDOF 5
ENDMDL
MODEL      150
REMARK 921   NORMALIZED FREE ENERGY PREDICTED BY IDOCK:   -3.83 KCAL/MOL
REMARK 922        TOTAL FREE ENERGY PREDICTED BY IDOCK:   -5.58 KCAL/MOL
REMARK 923 INTER-LIGAND FREE ENERGY PREDICTED BY IDOCK:   -4.77 KCAL/MOL
REMARK 924 INTRA-LIGAND FREE ENERGY PREDICTED BY IDOCK:   -0.81 KCAL/MOL
REMARK 927      BINDING AFFINITY PREDICTED BY RF-SCORE:    0.00 PKD
ROOT
HETATM    1  C   UNL     1      -6.704  13.383  67.567  1.00  0.00    -0.151 C  
HETATM    2  C   UNL     1      -7.046  12.514  68.751  1.00  0.00    -0.092 C  
ENDROOT
BRANCH   2   3
HETATM    3  O   UNL     1      -6.110  11.433  68.824  1.00  0.00    -0.047 OA 
BRANCH   3   4
HETATM    4  C   UNL     1      -6.700  10.280  68.225  1.00  0.00    -0.057 C  
BRANCH   4   5
HETATM    5  C   UNL     1      -8.054   9.950  68.818  1.00  0.00    -0.102 C  
BRANCH   5   6
HETATM    6  N   UNL     1      -8.980   9.209  67.978  1.00  0.00    -0.129 NA 
HETATM    7  C   UNL     1      -9.781   9.769  66.972  1.00  0.00    -0.183 A  
HETATM    8  N   UNL     1     -10.599   8.850  66.495  1.00  0.00    -0.117 NA 
HETATM    9  C   UNL     1      -9.316   7.864  68.097  1.00  0.00    -0.142 A  
HETATM   10  C   UNL     1      -8.893   6.787  68.907  1.00  0.00    -0.128 A  
HETATM   11  C   UNL     1     -10.321   7.684  67.155  1.00  0.00    -0.315 A  
HETATM   12  C   UNL     1      -9.486   5.535  68.755  1.00  0.00    -0.163 A  
HETATM   13  C   UNL     1     -10.918   6.414  67.009  1.00  0.00    -0.463 A  
HETATM   14  C   UNL     1     -10.488   5.345  67.810  1.00  0.00    -0.208 A  
BRANCH   7  15
HETATM   15  N   UNL     1      -9.803  11.098  66.627  1.00  0.00    -0.194 NA 
HETATM   16  N   UNL     1     -11.075  13.102  64.267  1.00  0.00    -0.379 NA 
HETATM   17  C   UNL     1     -11.805  12.669  66.674  1.00  0.00    -0.449 C  
HETATM   18  C   UNL     1     -10.459  11.766  64.305  1.00  0.00    -0.325 C  
HETATM   19  C   UNL     1     -10.642  12.007  67.427  1.00  0.00    -0.223 C  
HETATM   20  C   UNL     1     -12.269  13.071  63.423  1.00  0.00    -0.472 C  
HETATM   21  C   UNL     1      -9.330  11.615  65.339  1.00  0.00    -0.127 C  
HETATM   22  C   UNL     1     -11.356  13.662  65.594  1.00  0.00    -0.299 C  
ENDBRANCH   7  15
ENDBRANCH   5   6
ENDBRANCH   4   5
ENDBRANCH   3   4
ENDBRANCH   2   3
TORSDOF 5
ENDMDL
MODEL      151
REMARK 921   NORMALIZED FREE ENERGY PREDICTED BY IDOCK:   -3.81 KCAL/MOL
REMARK 922        TOTAL FREE ENERGY PREDICTED BY IDOCK:   -5.56 KCAL/MOL
REMARK 923 INTER-LIGAND FREE ENERGY PREDICTED BY IDOCK:   -6.31 KCAL/MOL
REMARK 924 INTRA-LIGAND FREE ENERGY PREDICTED BY IDOCK:    0.75 KCAL/MOL
REMARK 927      BINDING AFFINITY PREDICTED BY RF-SCORE:    0.00 PKD
ROOT
HETATM    1  C   UNL     1      -8.132  17.581  66.393  1.00  0.00    -0.309 C  
HETATM    2  C   UNL     1      -8.397  16.893  67.709  1.00  0.00    -0.194 C  
ENDROOT
BRANCH   2   3
HETATM    3  O   UNL     1      -9.713  16.331  67.688  1.00  0.00    -0.230 OA 
BRANCH   3   4
HETATM    4  C   UNL     1      -9.859  15.474  68.820  1.00  0.00    -0.217 C  
BRANCH   4   5
HETATM    5  C   UNL     1     -11.053  14.551  68.695  1.00  0.00    -0.257 C  
BRANCH   5   6
HETATM    6  N   UNL     1     -11.648  14.071  69.932  1.00  0.00    -0.268 NA 
HETATM    7  C   UNL     1     -12.156  12.779  70.133  1.00  0.00    -0.298 A  
HETATM    8  N   UNL     1     -12.743  12.714  71.313  1.00  0.00    -0.328 NA 
HETATM    9  C   UNL     1     -11.921  14.823  71.069  1.00  0.00    -0.331 A  
HETATM   10  C   UNL     1     -11.684  16.154  71.478  1.00  0.00    -0.533 A  
HETATM   11  C   UNL     1     -12.596  13.940  71.903  1.00  0.00    -0.222 A  
HETATM   12  C   UNL     1     -12.129  16.581  72.728  1.00  0.00    -0.457 A  
HETATM   13  C   UNL     1     -13.045  14.381  73.165  1.00  0.00    -0.490 A  
HETATM   14  C   UNL     1     -12.801  15.701  73.570  1.00  0.00    -0.696 A  
BRANCH   7  15
HETATM   15  N   UNL     1     -12.159  11.775  69.196  1.00  0.00    -0.274 NA 
HETATM   16  N   UNL     1     -10.136  10.421  66.900  1.00  0.00    -0.210 NA 
HETATM   17  C   UNL     1     -10.792   9.629  69.235  1.00  0.00    -0.227 C  
HETATM   18  C   UNL     1     -10.450  11.780  67.366  1.00  0.00    -0.211 C  
HETATM   19  C   UNL     1     -12.054  10.385  69.672  1.00  0.00    -0.097 C  
HETATM   20  C   UNL     1      -8.687  10.268  66.764  1.00  0.00    -0.126 C  
HETATM   21  C   UNL     1     -11.920  11.991  67.766  1.00  0.00    -0.106 C  
HETATM   22  C   UNL     1     -10.723   9.360  67.727  1.00  0.00    -0.229 C  
ENDBRANCH   7  15
ENDBRANCH   5   6
ENDBRANCH   4   5
ENDBRANCH   3   4
ENDBRANCH   2   3
TORSDOF 5
ENDMDL
MODEL      152
REMARK 921   NORMALIZED FREE ENERGY PREDICTED BY IDOCK:   -3.81 KCAL/MOL
REMARK 922        TOTAL FREE ENERGY PREDICTED BY IDOCK:   -5.55 KCAL/MOL
REMARK 923 INTER-LIGAND FREE ENERGY PREDICTED BY IDOCK:   -4.92 KCAL/MOL
REMARK 924 INTRA-LIGAND FREE ENERGY PREDICTED BY IDOCK:   -0.63 KCAL/MOL
REMARK 927      BINDING AFFINITY PREDICTED BY RF-SCORE:    0.00 PKD
ROOT
HETATM    1  C   UNL     1     -11.963  12.854  63.406  1.00  0.00    -0.612 C  
HETATM    2  C   UNL     1     -10.595  12.288  63.694  1.00  0.00    -0.462 C  
ENDROOT
BRANCH   2   3
HETATM    3  O   UNL     1     -10.296  12.467  65.082  1.00  0.00    -0.276 OA 
BRANCH   3   4
HETATM    4  C   UNL     1     -10.892  11.399  65.816  1.00  0.00    -0.230 C  
BRANCH   4   5
HETATM    5  C   UNL     1     -10.617  11.494  67.302  1.00  0.00    -0.228 C  
BRANCH   5   6
HETATM    6  N   UNL     1      -9.783  12.598  67.750  1.00  0.00    -0.200 NA 
HETATM    7  C   UNL     1      -8.408  12.514  68.010  1.00  0.00    -0.171 A  
HETATM    8  N   UNL     1      -7.986  13.653  68.526  1.00  0.00    -0.142 NA 
HETATM    9  C   UNL     1     -10.212  13.872  68.106  1.00  0.00    -0.249 A  
HETATM   10  C   UNL     1     -11.446  14.560  68.095  1.00  0.00    -0.337 A  
HETATM   11  C   UNL     1      -9.063  14.495  68.578  1.00  0.00    -0.190 A  
HETATM   12  C   UNL     1     -11.507  15.873  68.557  1.00  0.00    -0.377 A  
HETATM   13  C   UNL     1      -9.135  15.823  69.045  1.00  0.00    -0.245 A  
HETATM   14  C   UNL     1     -10.360  16.505  69.025  1.00  0.00    -0.296 A  
BRANCH   7  15
HETATM   15  N   UNL     1      -7.644  11.381  67.872  1.00  0.00    -0.103 NA 
HETATM   16  N   UNL     1      -7.978   8.052  67.940  1.00  0.00    -0.126 NA 
HETATM   17  C   UNL     1      -7.746   9.676  65.985  1.00  0.00    -0.102 C  
HETATM   18  C   UNL     1      -8.513   9.188  68.707  1.00  0.00    -0.130 C  
HETATM   19  C   UNL     1      -7.200  11.009  66.517  1.00  0.00    -0.143 C  
HETATM   20  C   UNL     1      -9.058   7.118  67.622  1.00  0.00    -0.127 C  
HETATM   21  C   UNL     1      -7.522  10.347  68.903  1.00  0.00    -0.099 C  
HETATM   22  C   UNL     1      -7.226   8.448  66.743  1.00  0.00    -0.078 C  
ENDBRANCH   7  15
ENDBRANCH   5   6
ENDBRANCH   4   5
ENDBRANCH   3   4
ENDBRANCH   2   3
TORSDOF 5
ENDMDL
MODEL      153
REMARK 921   NORMALIZED FREE ENERGY PREDICTED BY IDOCK:   -3.78 KCAL/MOL
REMARK 922        TOTAL FREE ENERGY PREDICTED BY IDOCK:   -5.52 KCAL/MOL
REMARK 923 INTER-LIGAND FREE ENERGY PREDICTED BY IDOCK:   -6.05 KCAL/MOL
REMARK 924 INTRA-LIGAND FREE ENERGY PREDICTED BY IDOCK:    0.53 KCAL/MOL
REMARK 927      BINDING AFFINITY PREDICTED BY RF-SCORE:    0.00 PKD
ROOT
HETATM    1  C   UNL     1      -8.541   7.067  68.926  1.00  0.00    -0.128 C  
HETATM    2  C   UNL     1      -9.041   8.305  69.628  1.00  0.00    -0.154 C  
ENDROOT
BRANCH   2   3
HETATM    3  O   UNL     1     -10.201   8.794  68.946  1.00  0.00    -0.197 OA 
BRANCH   3   4
HETATM    4  C   UNL     1     -10.650   9.978  69.605  1.00  0.00    -0.252 C  
BRANCH   4   5
HETATM    5  C   UNL     1     -11.385  10.915  68.671  1.00  0.00    -0.295 C  
BRANCH   5   6
HETATM    6  N   UNL     1     -11.804  12.196  69.215  1.00  0.00    -0.318 NA 
HETATM    7  C   UNL     1     -11.502  13.447  68.658  1.00  0.00    -0.310 A  
HETATM    8  N   UNL     1     -11.915  14.403  69.468  1.00  0.00    -0.315 NA 
HETATM    9  C   UNL     1     -12.463  12.410  70.422  1.00  0.00    -0.136 A  
HETATM   10  C   UNL     1     -13.006  11.587  71.434  1.00  0.00    -0.450 A  
HETATM   11  C   UNL     1     -12.515  13.794  70.536  1.00  0.00    -0.339 A  
HETATM   12  C   UNL     1     -13.600  12.170  72.552  1.00  0.00     0.145 A  
HETATM   13  C   UNL     1     -13.116  14.375  71.672  1.00  0.00    -0.421 A  
HETATM   14  C   UNL     1     -13.661  13.555  72.671  1.00  0.00    -0.572 A  
BRANCH   7  15
HETATM   15  N   UNL     1     -10.774  13.647  67.510  1.00  0.00    -0.258 NA 
HETATM   16  N   UNL     1      -9.665  11.932  64.860  1.00  0.00    -0.188 NA 
HETATM   17  C   UNL     1     -11.622  13.550  65.113  1.00  0.00    -0.333 C  
HETATM   18  C   UNL     1      -9.795  11.684  66.304  1.00  0.00    -0.219 C  
HETATM   19  C   UNL     1     -11.421  14.365  66.398  1.00  0.00    -0.360 C  
HETATM   20  C   UNL     1     -10.140  10.766  64.114  1.00  0.00    -0.353 C  
HETATM   21  C   UNL     1      -9.544  12.919  67.186  1.00  0.00    -0.225 C  
HETATM   22  C   UNL     1     -10.312  13.170  64.410  1.00  0.00    -0.368 C  
ENDBRANCH   7  15
ENDBRANCH   5   6
ENDBRANCH   4   5
ENDBRANCH   3   4
ENDBRANCH   2   3
TORSDOF 5
ENDMDL
MODEL      154
REMARK 921   NORMALIZED FREE ENERGY PREDICTED BY IDOCK:   -3.77 KCAL/MOL
REMARK 922        TOTAL FREE ENERGY PREDICTED BY IDOCK:   -5.51 KCAL/MOL
REMARK 923 INTER-LIGAND FREE ENERGY PREDICTED BY IDOCK:   -4.91 KCAL/MOL
REMARK 924 INTRA-LIGAND FREE ENERGY PREDICTED BY IDOCK:   -0.60 KCAL/MOL
REMARK 927      BINDING AFFINITY PREDICTED BY RF-SCORE:    0.00 PKD
ROOT
HETATM    1  C   UNL     1     -11.359   8.229  72.337  1.00  0.00    -0.457 C  
HETATM    2  C   UNL     1      -9.895   8.439  72.037  1.00  0.00    -0.284 C  
ENDROOT
BRANCH   2   3
HETATM    3  O   UNL     1      -9.615   7.967  70.716  1.00  0.00    -0.164 OA 
BRANCH   3   4
HETATM    4  C   UNL     1     -10.343   8.764  69.784  1.00  0.00    -0.211 C  
BRANCH   4   5
HETATM    5  C   UNL     1      -9.535   9.938  69.272  1.00  0.00    -0.209 C  
BRANCH   5   6
HETATM    6  N   UNL     1      -9.235   9.964  67.850  1.00  0.00    -0.131 NA 
HETATM    7  C   UNL     1      -9.668  10.950  66.952  1.00  0.00    -0.181 A  
HETATM    8  N   UNL     1      -9.337  10.605  65.722  1.00  0.00    -0.177 NA 
HETATM    9  C   UNL     1      -8.580   8.976  67.121  1.00  0.00    -0.116 A  
HETATM   10  C   UNL     1      -7.942   7.754  67.428  1.00  0.00    -0.119 A  
HETATM   11  C   UNL     1      -8.662   9.417  65.806  1.00  0.00    -0.158 A  
HETATM   12  C   UNL     1      -7.388   6.989  66.403  1.00  0.00    -0.080 A  
HETATM   13  C   UNL     1      -8.102   8.635  64.775  1.00  0.00    -0.149 A  
HETATM   14  C   UNL     1      -7.462   7.426  65.084  1.00  0.00    -0.086 A  
BRANCH   7  15
HETATM   15  N   UNL     1     -10.431  12.042  67.284  1.00  0.00    -0.215 NA 
HETATM   16  N   UNL     1     -10.832  15.243  66.394  1.00  0.00    -0.318 NA 
HETATM   17  C   UNL     1     -12.214  13.166  65.857  1.00  0.00    -0.497 C  
HETATM   18  C   UNL     1      -9.694  14.331  66.587  1.00  0.00    -0.287 C  
HETATM   19  C   UNL     1     -11.840  12.058  66.851  1.00  0.00    -0.173 C  
HETATM   20  C   UNL     1     -10.655  15.998  65.153  1.00  0.00    -0.370 C  
HETATM   21  C   UNL     1      -9.875  13.322  67.733  1.00  0.00    -0.224 C  
HETATM   22  C   UNL     1     -12.140  14.579  66.449  1.00  0.00    -0.301 C  
ENDBRANCH   7  15
ENDBRANCH   5   6
ENDBRANCH   4   5
ENDBRANCH   3   4
ENDBRANCH   2   3
TORSDOF 5
ENDMDL
MODEL      155
REMARK 921   NORMALIZED FREE ENERGY PREDICTED BY IDOCK:   -3.77 KCAL/MOL
REMARK 922        TOTAL FREE ENERGY PREDICTED BY IDOCK:   -5.51 KCAL/MOL
REMARK 923 INTER-LIGAND FREE ENERGY PREDICTED BY IDOCK:   -4.93 KCAL/MOL
REMARK 924 INTRA-LIGAND FREE ENERGY PREDICTED BY IDOCK:   -0.57 KCAL/MOL
REMARK 927      BINDING AFFINITY PREDICTED BY RF-SCORE:    0.00 PKD
ROOT
HETATM    1  C   UNL     1     -11.476  13.750  65.069  1.00  0.00    -0.340 C  
HETATM    2  C   UNL     1     -10.924  12.564  65.820  1.00  0.00    -0.292 C  
ENDROOT
BRANCH   2   3
HETATM    3  O   UNL     1     -11.903  12.106  66.758  1.00  0.00    -0.561 OA 
BRANCH   3   4
HETATM    4  C   UNL     1     -11.228  11.492  67.855  1.00  0.00    -0.279 C  
BRANCH   4   5
HETATM    5  C   UNL     1     -11.522  10.010  67.958  1.00  0.00     0.194 C  
BRANCH   5   6
HETATM    6  N   UNL     1     -10.381   9.109  67.962  1.00  0.00    -0.212 NA 
HETATM    7  C   UNL     1      -9.939   8.373  69.070  1.00  0.00    -0.190 A  
HETATM    8  N   UNL     1      -8.806   7.763  68.773  1.00  0.00    -0.135 NA 
HETATM    9  C   UNL     1      -9.475   8.911  66.925  1.00  0.00    -0.177 A  
HETATM   10  C   UNL     1      -9.354   9.366  65.593  1.00  0.00    -0.309 A  
HETATM   11  C   UNL     1      -8.517   8.066  67.470  1.00  0.00    -0.127 A  
HETATM   12  C   UNL     1      -8.266   8.959  64.822  1.00  0.00    -0.164 A  
HETATM   13  C   UNL     1      -7.419   7.661  66.684  1.00  0.00    -0.093 A  
HETATM   14  C   UNL     1      -7.306   8.108  65.359  1.00  0.00    -0.069 A  
BRANCH   7  15
HETATM   15  N   UNL     1     -10.522   8.386  70.313  1.00  0.00    -0.213 NA 
HETATM   16  N   UNL     1     -11.491   6.252  72.702  1.00  0.00    -0.251 NA 
HETATM   17  C   UNL     1      -9.439   7.760  72.530  1.00  0.00    -0.239 C  
HETATM   18  C   UNL     1     -11.535   6.289  71.232  1.00  0.00    -0.291 C  
HETATM   19  C   UNL     1      -9.703   8.826  71.457  1.00  0.00    -0.291 C  
HETATM   20  C   UNL     1     -11.043   4.934  73.150  1.00  0.00    -0.322 C  
HETATM   21  C   UNL     1     -11.770   7.688  70.638  1.00  0.00    -0.193 C  
HETATM   22  C   UNL     1     -10.696   7.333  73.299  1.00  0.00    -0.383 C  
ENDBRANCH   7  15
ENDBRANCH   5   6
ENDBRANCH   4   5
ENDBRANCH   3   4
ENDBRANCH   2   3
TORSDOF 5
ENDMDL
MODEL      156
REMARK 921   NORMALIZED FREE ENERGY PREDICTED BY IDOCK:   -3.77 KCAL/MOL
REMARK 922        TOTAL FREE ENERGY PREDICTED BY IDOCK:   -5.50 KCAL/MOL
REMARK 923 INTER-LIGAND FREE ENERGY PREDICTED BY IDOCK:   -5.32 KCAL/MOL
REMARK 924 INTRA-LIGAND FREE ENERGY PREDICTED BY IDOCK:   -0.19 KCAL/MOL
REMARK 927      BINDING AFFINITY PREDICTED BY RF-SCORE:    0.00 PKD
ROOT
HETATM    1  C   UNL     1      -9.530  10.804  62.766  1.00  0.00    -0.358 C  
HETATM    2  C   UNL     1      -8.593   9.958  63.590  1.00  0.00    -0.200 C  
ENDROOT
BRANCH   2   3
HETATM    3  O   UNL     1      -9.039   9.952  64.951  1.00  0.00    -0.189 OA 
BRANCH   3   4
HETATM    4  C   UNL     1      -9.859  11.100  65.164  1.00  0.00    -0.259 C  
BRANCH   4   5
HETATM    5  C   UNL     1     -11.010  10.821  66.108  1.00  0.00     0.033 C  
BRANCH   5   6
HETATM    6  N   UNL     1     -10.676  10.280  67.416  1.00  0.00    -0.275 NA 
HETATM    7  C   UNL     1     -10.383  11.046  68.553  1.00  0.00    -0.190 A  
HETATM    8  N   UNL     1      -9.993  10.252  69.532  1.00  0.00    -0.232 NA 
HETATM    9  C   UNL     1     -10.476   8.941  67.734  1.00  0.00    -0.239 A  
HETATM   10  C   UNL     1     -10.587   7.714  67.045  1.00  0.00    -0.406 A  
HETATM   11  C   UNL     1     -10.057   8.969  69.059  1.00  0.00    -0.195 A  
HETATM   12  C   UNL     1     -10.279   6.523  67.701  1.00  0.00    -0.210 A  
HETATM   13  C   UNL     1      -9.745   7.761  69.715  1.00  0.00    -0.176 A  
HETATM   14  C   UNL     1      -9.865   6.543  69.029  1.00  0.00    -0.153 A  
BRANCH   7  15
HETATM   15  N   UNL     1     -10.378  12.419  68.604  1.00  0.00    -0.213 NA 
HETATM   16  N   UNL     1      -9.893  15.045  66.588  1.00  0.00    -0.245 NA 
HETATM   17  C   UNL     1     -12.036  14.006  67.505  1.00  0.00    -0.430 C  
HETATM   18  C   UNL     1      -9.275  13.723  66.774  1.00  0.00    -0.244 C  
HETATM   19  C   UNL     1     -11.675  13.112  68.699  1.00  0.00    -0.326 C  
HETATM   20  C   UNL     1     -10.092  15.300  65.161  1.00  0.00    -0.288 C  
HETATM   21  C   UNL     1      -9.225  13.245  68.235  1.00  0.00    -0.197 C  
HETATM   22  C   UNL     1     -11.129  15.234  67.356  1.00  0.00    -0.326 C  
ENDBRANCH   7  15
ENDBRANCH   5   6
ENDBRANCH   4   5
ENDBRANCH   3   4
ENDBRANCH   2   3
TORSDOF 5
ENDMDL
MODEL      157
REMARK 921   NORMALIZED FREE ENERGY PREDICTED BY IDOCK:   -3.77 KCAL/MOL
REMARK 922        TOTAL FREE ENERGY PREDICTED BY IDOCK:   -5.50 KCAL/MOL
REMARK 923 INTER-LIGAND FREE ENERGY PREDICTED BY IDOCK:   -4.83 KCAL/MOL
REMARK 924 INTRA-LIGAND FREE ENERGY PREDICTED BY IDOCK:   -0.67 KCAL/MOL
REMARK 927      BINDING AFFINITY PREDICTED BY RF-SCORE:    0.00 PKD
ROOT
HETATM    1  C   UNL     1     -10.001   8.687  70.474  1.00  0.00    -0.220 C  
HETATM    2  C   UNL     1     -10.597   8.614  69.090  1.00  0.00    -0.178 C  
ENDROOT
BRANCH   2   3
HETATM    3  O   UNL     1     -10.057   9.672  68.291  1.00  0.00    -0.164 OA 
BRANCH   3   4
HETATM    4  C   UNL     1      -8.773  10.020  68.804  1.00  0.00    -0.136 C  
BRANCH   4   5
HETATM    5  C   UNL     1      -7.881  10.649  67.754  1.00  0.00    -0.108 C  
BRANCH   5   6
HETATM    6  N   UNL     1      -8.492  10.968  66.474  1.00  0.00    -0.156 NA 
HETATM    7  C   UNL     1      -9.323  12.072  66.231  1.00  0.00    -0.223 A  
HETATM    8  N   UNL     1      -9.814  11.994  65.009  1.00  0.00    -0.226 NA 
HETATM    9  C   UNL     1      -8.458  10.192  65.321  1.00  0.00    -0.158 A  
HETATM   10  C   UNL     1      -7.831   8.986  64.936  1.00  0.00    -0.119 A  
HETATM   11  C   UNL     1      -9.288  10.868  64.435  1.00  0.00    -0.224 A  
HETATM   12  C   UNL     1      -8.045   8.476  63.656  1.00  0.00    -0.154 A  
HETATM   13  C   UNL     1      -9.501  10.343  63.144  1.00  0.00    -0.362 A  
HETATM   14  C   UNL     1      -8.869   9.150  62.762  1.00  0.00    -0.151 A  
BRANCH   7  15
HETATM   15  N   UNL     1      -9.675  13.018  67.162  1.00  0.00    -0.224 NA 
HETATM   16  N   UNL     1     -10.093  16.330  67.403  1.00  0.00    -0.255 NA 
HETATM   17  C   UNL     1     -11.789  14.434  67.194  1.00  0.00    -0.437 C  
HETATM   18  C   UNL     1      -9.133  15.427  66.748  1.00  0.00    -0.259 C  
HETATM   19  C   UNL     1     -11.093  13.112  67.549  1.00  0.00    -0.271 C  
HETATM   20  C   UNL     1     -10.487  17.389  66.475  1.00  0.00    -0.264 C  
HETATM   21  C   UNL     1      -8.821  14.147  67.542  1.00  0.00    -0.201 C  
HETATM   22  C   UNL     1     -11.257  15.642  67.975  1.00  0.00    -0.339 C  
ENDBRANCH   7  15
ENDBRANCH   5   6
ENDBRANCH   4   5
ENDBRANCH   3   4
ENDBRANCH   2   3
TORSDOF 5
ENDMDL
MODEL      158
REMARK 921   NORMALIZED FREE ENERGY PREDICTED BY IDOCK:   -3.76 KCAL/MOL
REMARK 922        TOTAL FREE ENERGY PREDICTED BY IDOCK:   -5.50 KCAL/MOL
REMARK 923 INTER-LIGAND FREE ENERGY PREDICTED BY IDOCK:   -4.83 KCAL/MOL
REMARK 924 INTRA-LIGAND FREE ENERGY PREDICTED BY IDOCK:   -0.66 KCAL/MOL
REMARK 927      BINDING AFFINITY PREDICTED BY RF-SCORE:    0.00 PKD
ROOT
HETATM    1  C   UNL     1     -11.581   9.318  71.655  1.00  0.00    -0.463 C  
HETATM    2  C   UNL     1     -10.162   9.277  71.144  1.00  0.00    -0.317 C  
ENDROOT
BRANCH   2   3
HETATM    3  O   UNL     1     -10.099   9.944  69.879  1.00  0.00    -0.230 OA 
BRANCH   3   4
HETATM    4  C   UNL     1      -8.734  10.239  69.588  1.00  0.00    -0.105 C  
BRANCH   4   5
HETATM    5  C   UNL     1      -8.562  10.905  68.239  1.00  0.00    -0.139 C  
BRANCH   5   6
HETATM    6  N   UNL     1      -9.749  11.481  67.630  1.00  0.00    -0.172 NA 
HETATM    7  C   UNL     1     -10.501  10.884  66.608  1.00  0.00    -0.254 A  
HETATM    8  N   UNL     1     -11.429  11.725  66.192  1.00  0.00    -0.387 NA 
HETATM    9  C   UNL     1     -10.271  12.749  67.863  1.00  0.00    -0.229 A  
HETATM   10  C   UNL     1      -9.965  13.820  68.733  1.00  0.00    -0.117 A  
HETATM   11  C   UNL     1     -11.314  12.857  66.953  1.00  0.00    -0.312 A  
HETATM   12  C   UNL     1     -10.720  14.990  68.677  1.00  0.00    -0.244 A  
HETATM   13  C   UNL     1     -12.071  14.046  66.902  1.00  0.00    -0.465 A  
HETATM   14  C   UNL     1     -11.770  15.104  67.772  1.00  0.00    -0.250 A  
BRANCH   7  15
HETATM   15  N   UNL     1     -10.233   9.663  66.037  1.00  0.00    -0.235 NA 
HETATM   16  N   UNL     1      -7.636   7.635  65.451  1.00  0.00    -0.088 NA 
HETATM   17  C   UNL     1      -9.471   7.544  67.223  1.00  0.00    -0.186 C  
HETATM   18  C   UNL     1      -7.884   9.084  65.393  1.00  0.00    -0.101 C  
HETATM   19  C   UNL     1     -10.626   8.453  66.779  1.00  0.00    -0.156 C  
HETATM   20  C   UNL     1      -6.358   7.380  66.115  1.00  0.00    -0.042 C  
HETATM   21  C   UNL     1      -9.298   9.470  64.925  1.00  0.00    -0.198 C  
HETATM   22  C   UNL     1      -8.732   6.871  66.060  1.00  0.00    -0.141 C  
ENDBRANCH   7  15
ENDBRANCH   5   6
ENDBRANCH   4   5
ENDBRANCH   3   4
ENDBRANCH   2   3
TORSDOF 5
ENDMDL
MODEL      159
REMARK 921   NORMALIZED FREE ENERGY PREDICTED BY IDOCK:   -3.76 KCAL/MOL
REMARK 922        TOTAL FREE ENERGY PREDICTED BY IDOCK:   -5.50 KCAL/MOL
REMARK 923 INTER-LIGAND FREE ENERGY PREDICTED BY IDOCK:   -4.63 KCAL/MOL
REMARK 924 INTRA-LIGAND FREE ENERGY PREDICTED BY IDOCK:   -0.87 KCAL/MOL
REMARK 927      BINDING AFFINITY PREDICTED BY RF-SCORE:    0.00 PKD
ROOT
HETATM    1  C   UNL     1     -10.050   5.149  69.581  1.00  0.00    -0.332 C  
HETATM    2  C   UNL     1     -10.441   6.395  70.335  1.00  0.00    -0.218 C  
ENDROOT
BRANCH   2   3
HETATM    3  O   UNL     1     -10.967   7.355  69.412  1.00  0.00    -0.205 OA 
BRANCH   3   4
HETATM    4  C   UNL     1     -10.896   6.808  68.097  1.00  0.00    -0.228 C  
BRANCH   4   5
HETATM    5  C   UNL     1     -10.453   7.828  67.069  1.00  0.00    -0.349 C  
BRANCH   5   6
HETATM    6  N   UNL     1      -9.390   8.740  67.460  1.00  0.00    -0.135 NA 
HETATM    7  C   UNL     1      -9.503  10.137  67.505  1.00  0.00    -0.152 A  
HETATM    8  N   UNL     1      -8.323  10.667  67.767  1.00  0.00    -0.115 NA 
HETATM    9  C   UNL     1      -8.069   8.405  67.737  1.00  0.00    -0.122 A  
HETATM   10  C   UNL     1      -7.332   7.204  67.833  1.00  0.00    -0.097 A  
HETATM   11  C   UNL     1      -7.443   9.631  67.927  1.00  0.00    -0.083 A  
HETATM   12  C   UNL     1      -5.970   7.251  68.124  1.00  0.00    -0.030 A  
HETATM   13  C   UNL     1      -6.064   9.670  68.218  1.00  0.00    -0.051 A  
HETATM   14  C   UNL     1      -5.338   8.474  68.321  1.00  0.00    -0.034 A  
BRANCH   7  15
HETATM   15  N   UNL     1     -10.635  10.850  67.197  1.00  0.00    -0.240 NA 
HETATM   16  N   UNL     1     -12.038  13.818  67.845  1.00  0.00    -0.344 NA 
HETATM   17  C   UNL     1     -10.787  12.965  65.790  1.00  0.00    -0.292 C  
HETATM   18  C   UNL     1     -11.292  12.808  68.611  1.00  0.00    -0.294 C  
HETATM   19  C   UNL     1     -10.739  11.432  65.847  1.00  0.00    -0.255 C  
HETATM   20  C   UNL     1     -11.528  15.152  68.160  1.00  0.00    -0.342 C  
HETATM   21  C   UNL     1     -11.580  11.355  68.197  1.00  0.00    -0.294 C  
HETATM   22  C   UNL     1     -12.060  13.567  66.399  1.00  0.00    -0.417 C  
ENDBRANCH   7  15
ENDBRANCH   5   6
ENDBRANCH   4   5
ENDBRANCH   3   4
ENDBRANCH   2   3
TORSDOF 5
ENDMDL
MODEL      160
REMARK 921   NORMALIZED FREE ENERGY PREDICTED BY IDOCK:   -3.76 KCAL/MOL
REMARK 922        TOTAL FREE ENERGY PREDICTED BY IDOCK:   -5.49 KCAL/MOL
REMARK 923 INTER-LIGAND FREE ENERGY PREDICTED BY IDOCK:   -4.86 KCAL/MOL
REMARK 924 INTRA-LIGAND FREE ENERGY PREDICTED BY IDOCK:   -0.63 KCAL/MOL
REMARK 927      BINDING AFFINITY PREDICTED BY RF-SCORE:    0.00 PKD
ROOT
HETATM    1  C   UNL     1     -12.171  13.712  63.883  1.00  0.00    -0.429 C  
HETATM    2  C   UNL     1     -11.597  12.381  63.467  1.00  0.00    -0.497 C  
ENDROOT
BRANCH   2   3
HETATM    3  O   UNL     1     -10.313  12.213  64.077  1.00  0.00    -0.326 OA 
BRANCH   3   4
HETATM    4  C   UNL     1     -10.054  10.816  64.211  1.00  0.00    -0.361 C  
BRANCH   4   5
HETATM    5  C   UNL     1      -8.913  10.529  65.164  1.00  0.00    -0.191 C  
BRANCH   5   6
HETATM    6  N   UNL     1      -9.023   9.335  65.986  1.00  0.00    -0.164 NA 
HETATM    7  C   UNL     1      -9.505   9.305  67.303  1.00  0.00    -0.144 A  
HETATM    8  N   UNL     1      -9.346   8.094  67.803  1.00  0.00    -0.134 NA 
HETATM    9  C   UNL     1      -8.571   8.060  65.663  1.00  0.00    -0.145 A  
HETATM   10  C   UNL     1      -7.983   7.456  64.529  1.00  0.00    -0.122 A  
HETATM   11  C   UNL     1      -8.795   7.320  66.818  1.00  0.00    -0.134 A  
HETATM   12  C   UNL     1      -7.631   6.108  64.570  1.00  0.00    -0.094 A  
HETATM   13  C   UNL     1      -8.434   5.958  66.851  1.00  0.00    -0.108 A  
HETATM   14  C   UNL     1      -7.859   5.360  65.721  1.00  0.00    -0.100 A  
BRANCH   7  15
HETATM   15  N   UNL     1      -9.952  10.395  68.007  1.00  0.00    -0.153 NA 
HETATM   16  N   UNL     1      -9.778  13.736  67.922  1.00  0.00    -0.222 NA 
HETATM   17  C   UNL     1     -11.645  12.134  67.241  1.00  0.00    -0.404 C  
HETATM   18  C   UNL     1      -8.850  12.619  67.683  1.00  0.00    -0.184 C  
HETATM   19  C   UNL     1     -11.373  10.765  67.879  1.00  0.00    -0.299 C  
HETATM   20  C   UNL     1      -9.633  14.734  66.862  1.00  0.00    -0.241 C  
HETATM   21  C   UNL     1      -9.069  11.404  68.599  1.00  0.00    -0.135 C  
HETATM   22  C   UNL     1     -11.175  13.319  68.094  1.00  0.00    -0.270 C  
ENDBRANCH   7  15
ENDBRANCH   5   6
ENDBRANCH   4   5
ENDBRANCH   3   4
ENDBRANCH   2   3
TORSDOF 5
ENDMDL
MODEL      161
REMARK 921   NORMALIZED FREE ENERGY PREDICTED BY IDOCK:   -3.75 KCAL/MOL
REMARK 922        TOTAL FREE ENERGY PREDICTED BY IDOCK:   -5.47 KCAL/MOL
REMARK 923 INTER-LIGAND FREE ENERGY PREDICTED BY IDOCK:   -4.70 KCAL/MOL
REMARK 924 INTRA-LIGAND FREE ENERGY PREDICTED BY IDOCK:   -0.78 KCAL/MOL
REMARK 927      BINDING AFFINITY PREDICTED BY RF-SCORE:    0.00 PKD
ROOT
HETATM    1  C   UNL     1     -13.010   8.712  71.948  1.00  0.00    -0.409 C  
HETATM    2  C   UNL     1     -13.159   9.894  71.023  1.00  0.00    -0.329 C  
ENDROOT
BRANCH   2   3
HETATM    3  O   UNL     1     -12.649  11.064  71.671  1.00  0.00    -0.358 OA 
BRANCH   3   4
HETATM    4  C   UNL     1     -12.519  12.102  70.701  1.00  0.00    -0.242 C  
BRANCH   4   5
HETATM    5  C   UNL     1     -12.408  11.563  69.290  1.00  0.00    -0.056 C  
BRANCH   5   6
HETATM    6  N   UNL     1     -11.200  11.891  68.550  1.00  0.00    -0.233 NA 
HETATM    7  C   UNL     1     -10.199  10.976  68.195  1.00  0.00    -0.182 A  
HETATM    8  N   UNL     1      -9.183  11.621  67.652  1.00  0.00    -0.173 NA 
HETATM    9  C   UNL     1     -10.775  13.161  68.176  1.00  0.00    -0.242 A  
HETATM   10  C   UNL     1     -11.306  14.468  68.262  1.00  0.00    -0.319 A  
HETATM   11  C   UNL     1      -9.521  12.946  67.618  1.00  0.00    -0.197 A  
HETATM   12  C   UNL     1     -10.566  15.546  67.779  1.00  0.00    -0.281 A  
HETATM   13  C   UNL     1      -8.778  14.043  67.134  1.00  0.00    -0.234 A  
HETATM   14  C   UNL     1      -9.312  15.338  67.213  1.00  0.00    -0.212 A  
BRANCH   7  15
HETATM   15  N   UNL     1     -10.215   9.633  68.484  1.00  0.00    -0.185 NA 
HETATM   16  N   UNL     1      -8.843   6.775  67.413  1.00  0.00    -0.117 NA 
HETATM   17  C   UNL     1      -8.309   8.240  69.434  1.00  0.00    -0.122 C  
HETATM   18  C   UNL     1      -9.390   7.989  66.787  1.00  0.00    -0.180 C  
HETATM   19  C   UNL     1      -9.498   9.177  69.688  1.00  0.00    -0.172 C  
HETATM   20  C   UNL     1      -7.578   6.416  66.772  1.00  0.00    -0.098 C  
HETATM   21  C   UNL     1     -10.597   8.595  67.522  1.00  0.00    -0.222 C  
HETATM   22  C   UNL     1      -8.710   6.870  68.872  1.00  0.00    -0.130 C  
ENDBRANCH   7  15
ENDBRANCH   5   6
ENDBRANCH   4   5
ENDBRANCH   3   4
ENDBRANCH   2   3
TORSDOF 5
ENDMDL
MODEL      162
REMARK 921   NORMALIZED FREE ENERGY PREDICTED BY IDOCK:   -3.74 KCAL/MOL
REMARK 922        TOTAL FREE ENERGY PREDICTED BY IDOCK:   -5.47 KCAL/MOL
REMARK 923 INTER-LIGAND FREE ENERGY PREDICTED BY IDOCK:   -4.94 KCAL/MOL
REMARK 924 INTRA-LIGAND FREE ENERGY PREDICTED BY IDOCK:   -0.53 KCAL/MOL
REMARK 927      BINDING AFFINITY PREDICTED BY RF-SCORE:    0.00 PKD
ROOT
HETATM    1  C   UNL     1     -10.186   9.946  70.176  1.00  0.00    -0.326 C  
HETATM    2  C   UNL     1     -10.545   9.029  69.034  1.00  0.00    -0.190 C  
ENDROOT
BRANCH   2   3
HETATM    3  O   UNL     1      -9.805   9.416  67.871  1.00  0.00    -0.154 OA 
BRANCH   3   4
HETATM    4  C   UNL     1      -8.866  10.423  68.245  1.00  0.00    -0.135 C  
BRANCH   4   5
HETATM    5  C   UNL     1      -8.561  11.378  67.110  1.00  0.00    -0.151 C  
BRANCH   5   6
HETATM    6  N   UNL     1      -8.765  10.884  65.758  1.00  0.00    -0.189 NA 
HETATM    7  C   UNL     1      -9.749  11.347  64.871  1.00  0.00    -0.247 A  
HETATM    8  N   UNL     1      -9.750  10.600  63.783  1.00  0.00    -0.302 NA 
HETATM    9  C   UNL     1      -8.116   9.810  65.158  1.00  0.00    -0.132 A  
HETATM   10  C   UNL     1      -7.072   8.932  65.524  1.00  0.00    -0.080 A  
HETATM   11  C   UNL     1      -8.756   9.671  63.933  1.00  0.00    -0.221 A  
HETATM   12  C   UNL     1      -6.679   7.924  64.645  1.00  0.00    -0.059 A  
HETATM   13  C   UNL     1      -8.353   8.647  63.051  1.00  0.00    -0.153 A  
HETATM   14  C   UNL     1      -7.310   7.783  63.414  1.00  0.00    -0.101 A  
BRANCH   7  15
HETATM   15  N   UNL     1     -10.657  12.341  65.145  1.00  0.00    -0.276 NA 
HETATM   16  N   UNL     1     -12.080  13.845  67.774  1.00  0.00    -0.349 NA 
HETATM   17  C   UNL     1     -10.192  14.595  66.229  1.00  0.00    -0.302 C  
HETATM   18  C   UNL     1     -11.712  12.467  67.411  1.00  0.00    -0.347 C  
HETATM   19  C   UNL     1     -10.230  13.738  64.956  1.00  0.00    -0.346 C  
HETATM   20  C   UNL     1     -11.670  14.119  69.151  1.00  0.00    -0.327 C  
HETATM   21  C   UNL     1     -11.884  12.134  65.919  1.00  0.00    -0.272 C  
HETATM   22  C   UNL     1     -11.574  14.858  66.839  1.00  0.00    -0.277 C  
ENDBRANCH   7  15
ENDBRANCH   5   6
ENDBRANCH   4   5
ENDBRANCH   3   4
ENDBRANCH   2   3
TORSDOF 5
ENDMDL
MODEL      163
REMARK 921   NORMALIZED FREE ENERGY PREDICTED BY IDOCK:   -3.72 KCAL/MOL
REMARK 922        TOTAL FREE ENERGY PREDICTED BY IDOCK:   -5.44 KCAL/MOL
REMARK 923 INTER-LIGAND FREE ENERGY PREDICTED BY IDOCK:   -4.70 KCAL/MOL
REMARK 924 INTRA-LIGAND FREE ENERGY PREDICTED BY IDOCK:   -0.75 KCAL/MOL
REMARK 927      BINDING AFFINITY PREDICTED BY RF-SCORE:    0.00 PKD
ROOT
HETATM    1  C   UNL     1     -11.329  16.061  69.765  1.00  0.00    -0.331 C  
HETATM    2  C   UNL     1     -11.749  14.640  70.050  1.00  0.00    -0.294 C  
ENDROOT
BRANCH   2   3
HETATM    3  O   UNL     1     -11.621  13.864  68.854  1.00  0.00    -0.270 OA 
BRANCH   3   4
HETATM    4  C   UNL     1     -11.968  12.512  69.150  1.00  0.00    -0.236 C  
BRANCH   4   5
HETATM    5  C   UNL     1     -11.287  11.525  68.226  1.00  0.00    -0.286 C  
BRANCH   5   6
HETATM    6  N   UNL     1      -9.934  11.122  68.570  1.00  0.00    -0.193 NA 
HETATM    7  C   UNL     1      -9.600  10.019  69.369  1.00  0.00    -0.222 A  
HETATM    8  N   UNL     1      -8.299  10.015  69.595  1.00  0.00    -0.170 NA 
HETATM    9  C   UNL     1      -8.762  11.810  68.274  1.00  0.00    -0.167 A  
HETATM   10  C   UNL     1      -8.433  12.972  67.540  1.00  0.00    -0.190 A  
HETATM   11  C   UNL     1      -7.772  11.086  68.926  1.00  0.00    -0.140 A  
HETATM   12  C   UNL     1      -7.105  13.390  67.469  1.00  0.00    -0.154 A  
HETATM   13  C   UNL     1      -6.431  11.517  68.850  1.00  0.00    -0.065 A  
HETATM   14  C   UNL     1      -6.108  12.666  68.114  1.00  0.00    -0.080 A  
BRANCH   7  15
HETATM   15  N   UNL     1     -10.500   9.151  69.937  1.00  0.00    -0.214 NA 
HETATM   16  N   UNL     1     -10.641   6.013  71.091  1.00  0.00    -0.236 NA 
HETATM   17  C   UNL     1     -10.476   8.246  72.315  1.00  0.00    -0.392 C  
HETATM   18  C   UNL     1     -10.020   6.695  69.944  1.00  0.00    -0.171 C  
HETATM   19  C   UNL     1     -10.874   9.368  71.346  1.00  0.00    -0.360 C  
HETATM   20  C   UNL     1      -9.679   5.095  71.699  1.00  0.00    -0.163 C  
HETATM   21  C   UNL     1     -10.853   7.850  69.363  1.00  0.00    -0.106 C  
HETATM   22  C   UNL     1     -11.225   6.929  72.078  1.00  0.00    -0.257 C  
ENDBRANCH   7  15
ENDBRANCH   5   6
ENDBRANCH   4   5
ENDBRANCH   3   4
ENDBRANCH   2   3
TORSDOF 5
ENDMDL
MODEL      164
REMARK 921   NORMALIZED FREE ENERGY PREDICTED BY IDOCK:   -3.71 KCAL/MOL
REMARK 922        TOTAL FREE ENERGY PREDICTED BY IDOCK:   -5.42 KCAL/MOL
REMARK 923 INTER-LIGAND FREE ENERGY PREDICTED BY IDOCK:   -4.79 KCAL/MOL
REMARK 924 INTRA-LIGAND FREE ENERGY PREDICTED BY IDOCK:   -0.63 KCAL/MOL
REMARK 927      BINDING AFFINITY PREDICTED BY RF-SCORE:    0.00 PKD
ROOT
HETATM    1  C   UNL     1     -12.780  10.822  71.463  1.00  0.00    -0.536 C  
HETATM    2  C   UNL     1     -11.938  11.366  70.336  1.00  0.00    -0.374 C  
ENDROOT
BRANCH   2   3
HETATM    3  O   UNL     1     -12.579  11.074  69.089  1.00  0.00    -0.378 OA 
BRANCH   3   4
HETATM    4  C   UNL     1     -11.643  11.293  68.035  1.00  0.00    -0.272 C  
BRANCH   4   5
HETATM    5  C   UNL     1     -10.279  10.712  68.343  1.00  0.00    -0.173 C  
BRANCH   5   6
HETATM    6  N   UNL     1      -9.771   9.699  67.433  1.00  0.00    -0.151 NA 
HETATM    7  C   UNL     1      -9.373   8.407  67.806  1.00  0.00    -0.134 A  
HETATM    8  N   UNL     1      -8.839   7.792  66.767  1.00  0.00    -0.133 NA 
HETATM    9  C   UNL     1      -9.485   9.865  66.082  1.00  0.00    -0.200 A  
HETATM   10  C   UNL     1      -9.633  10.908  65.141  1.00  0.00    -0.291 A  
HETATM   11  C   UNL     1      -8.912   8.655  65.708  1.00  0.00    -0.197 A  
HETATM   12  C   UNL     1      -9.204  10.718  63.828  1.00  0.00    -0.266 A  
HETATM   13  C   UNL     1      -8.480   8.473  64.379  1.00  0.00    -0.089 A  
HETATM   14  C   UNL     1      -8.636   9.508  63.445  1.00  0.00    -0.215 A  
BRANCH   7  15
HETATM   15  N   UNL     1      -9.412   7.905  69.084  1.00  0.00    -0.155 NA 
HETATM   16  N   UNL     1      -9.922   5.003  70.671  1.00  0.00    -0.213 NA 
HETATM   17  C   UNL     1      -7.773   6.275  70.148  1.00  0.00    -0.098 C  
HETATM   18  C   UNL     1     -10.512   5.698  69.516  1.00  0.00    -0.302 C  
HETATM   19  C   UNL     1      -8.134   7.725  69.795  1.00  0.00    -0.117 C  
HETATM   20  C   UNL     1      -9.703   3.595  70.340  1.00  0.00    -0.131 C  
HETATM   21  C   UNL     1     -10.578   7.228  69.660  1.00  0.00    -0.235 C  
HETATM   22  C   UNL     1      -8.705   5.641  71.188  1.00  0.00    -0.135 C  
ENDBRANCH   7  15
ENDBRANCH   5   6
ENDBRANCH   4   5
ENDBRANCH   3   4
ENDBRANCH   2   3
TORSDOF 5
ENDMDL
MODEL      165
REMARK 921   NORMALIZED FREE ENERGY PREDICTED BY IDOCK:   -3.69 KCAL/MOL
REMARK 922        TOTAL FREE ENERGY PREDICTED BY IDOCK:   -5.41 KCAL/MOL
REMARK 923 INTER-LIGAND FREE ENERGY PREDICTED BY IDOCK:   -4.59 KCAL/MOL
REMARK 924 INTRA-LIGAND FREE ENERGY PREDICTED BY IDOCK:   -0.81 KCAL/MOL
REMARK 927      BINDING AFFINITY PREDICTED BY RF-SCORE:    0.00 PKD
ROOT
HETATM    1  C   UNL     1      -5.904  12.964  70.454  1.00  0.00    -0.152 C  
HETATM    2  C   UNL     1      -6.250  12.377  69.109  1.00  0.00    -0.090 C  
ENDROOT
BRANCH   2   3
HETATM    3  O   UNL     1      -5.714  11.052  69.024  1.00  0.00    -0.041 OA 
BRANCH   3   4
HETATM    4  C   UNL     1      -6.489  10.194  69.859  1.00  0.00    -0.086 C  
BRANCH   4   5
HETATM    5  C   UNL     1      -7.121   9.054  69.088  1.00  0.00    -0.063 C  
BRANCH   5   6
HETATM    6  N   UNL     1      -8.314   9.360  68.315  1.00  0.00    -0.118 NA 
HETATM    7  C   UNL     1      -9.631   9.148  68.748  1.00  0.00    -0.159 A  
HETATM    8  N   UNL     1     -10.467   9.405  67.761  1.00  0.00    -0.242 NA 
HETATM    9  C   UNL     1      -8.360   9.797  66.996  1.00  0.00    -0.117 A  
HETATM   10  C   UNL     1      -7.404  10.162  66.021  1.00  0.00    -0.118 A  
HETATM   11  C   UNL     1      -9.715   9.815  66.693  1.00  0.00    -0.201 A  
HETATM   12  C   UNL     1      -7.828  10.548  64.751  1.00  0.00    -0.022 A  
HETATM   13  C   UNL     1     -10.135  10.204  65.405  1.00  0.00    -0.342 A  
HETATM   14  C   UNL     1      -9.184  10.574  64.443  1.00  0.00    -0.281 A  
BRANCH   7  15
HETATM   15  N   UNL     1      -9.989   8.629  69.968  1.00  0.00    -0.182 NA 
HETATM   16  N   UNL     1     -12.565   8.671  72.104  1.00  0.00    -0.368 NA 
HETATM   17  C   UNL     1     -11.797   6.900  70.435  1.00  0.00    -0.351 C  
HETATM   18  C   UNL     1     -11.884   9.652  71.244  1.00  0.00    -0.381 C  
HETATM   19  C   UNL     1     -10.347   7.201  70.033  1.00  0.00    -0.208 C  
HETATM   20  C   UNL     1     -14.014   8.819  71.968  1.00  0.00    -0.451 C  
HETATM   21  C   UNL     1     -10.364   9.446  71.125  1.00  0.00    -0.307 C  
HETATM   22  C   UNL     1     -12.132   7.287  71.881  1.00  0.00    -0.314 C  
ENDBRANCH   7  15
ENDBRANCH   5   6
ENDBRANCH   4   5
ENDBRANCH   3   4
ENDBRANCH   2   3
TORSDOF 5
ENDMDL
MODEL      166
REMARK 921   NORMALIZED FREE ENERGY PREDICTED BY IDOCK:   -3.68 KCAL/MOL
REMARK 922        TOTAL FREE ENERGY PREDICTED BY IDOCK:   -5.39 KCAL/MOL
REMARK 923 INTER-LIGAND FREE ENERGY PREDICTED BY IDOCK:   -4.99 KCAL/MOL
REMARK 924 INTRA-LIGAND FREE ENERGY PREDICTED BY IDOCK:   -0.40 KCAL/MOL
REMARK 927      BINDING AFFINITY PREDICTED BY RF-SCORE:    0.00 PKD
ROOT
HETATM    1  C   UNL     1      -5.186  13.695  69.783  1.00  0.00    -0.087 C  
HETATM    2  C   UNL     1      -5.464  14.659  68.656  1.00  0.00    -0.094 C  
ENDROOT
BRANCH   2   3
HETATM    3  O   UNL     1      -6.361  14.046  67.725  1.00  0.00    -0.156 OA 
BRANCH   3   4
HETATM    4  C   UNL     1      -7.015  12.956  68.374  1.00  0.00    -0.096 C  
BRANCH   4   5
HETATM    5  C   UNL     1      -8.507  13.174  68.510  1.00  0.00    -0.058 C  
BRANCH   5   6
HETATM    6  N   UNL     1      -9.378  12.213  67.854  1.00  0.00    -0.185 NA 
HETATM    7  C   UNL     1     -10.458  12.540  67.021  1.00  0.00    -0.231 A  
HETATM    8  N   UNL     1     -11.117  11.443  66.701  1.00  0.00    -0.293 NA 
HETATM    9  C   UNL     1      -9.369  10.832  68.025  1.00  0.00    -0.150 A  
HETATM   10  C   UNL     1      -8.567   9.910  68.733  1.00  0.00    -0.130 A  
HETATM   11  C   UNL     1     -10.462  10.394  67.289  1.00  0.00    -0.252 A  
HETATM   12  C   UNL     1      -8.875   8.551  68.688  1.00  0.00    -0.136 A  
HETATM   13  C   UNL     1     -10.768   9.018  67.250  1.00  0.00    -0.222 A  
HETATM   14  C   UNL     1      -9.964   8.105  67.948  1.00  0.00    -0.225 A  
BRANCH   7  15
HETATM   15  N   UNL     1     -10.847  13.816  66.695  1.00  0.00    -0.287 NA 
HETATM   16  N   UNL     1     -10.830  16.901  67.993  1.00  0.00    -0.362 NA 
HETATM   17  C   UNL     1      -9.341  15.813  66.228  1.00  0.00    -0.360 C  
HETATM   18  C   UNL     1     -11.081  15.540  68.494  1.00  0.00    -0.307 C  
HETATM   19  C   UNL     1     -10.042  14.552  65.705  1.00  0.00    -0.359 C  
HETATM   20  C   UNL     1      -9.967  17.620  68.928  1.00  0.00    -0.324 C  
HETATM   21  C   UNL     1     -11.786  14.612  67.491  1.00  0.00    -0.379 C  
HETATM   22  C   UNL     1     -10.306  16.939  66.622  1.00  0.00    -0.299 C  
ENDBRANCH   7  15
ENDBRANCH   5   6
ENDBRANCH   4   5
ENDBRANCH   3   4
ENDBRANCH   2   3
TORSDOF 5
ENDMDL
MODEL      167
REMARK 921   NORMALIZED FREE ENERGY PREDICTED BY IDOCK:   -3.67 KCAL/MOL
REMARK 922        TOTAL FREE ENERGY PREDICTED BY IDOCK:   -5.38 KCAL/MOL
REMARK 923 INTER-LIGAND FREE ENERGY PREDICTED BY IDOCK:   -4.82 KCAL/MOL
REMARK 924 INTRA-LIGAND FREE ENERGY PREDICTED BY IDOCK:   -0.56 KCAL/MOL
REMARK 927      BINDING AFFINITY PREDICTED BY RF-SCORE:    0.00 PKD
ROOT
HETATM    1  C   UNL     1     -11.819  15.820  64.093  1.00  0.00    -0.035 C  
HETATM    2  C   UNL     1     -11.175  14.477  64.335  1.00  0.00    -0.195 C  
ENDROOT
BRANCH   2   3
HETATM    3  O   UNL     1     -12.198  13.483  64.460  1.00  0.00    -0.396 OA 
BRANCH   3   4
HETATM    4  C   UNL     1     -11.611  12.291  64.981  1.00  0.00    -0.343 C  
BRANCH   4   5
HETATM    5  C   UNL     1     -10.434  12.576  65.889  1.00  0.00    -0.265 C  
BRANCH   5   6
HETATM    6  N   UNL     1     -10.286  11.731  67.063  1.00  0.00    -0.210 NA 
HETATM    7  C   UNL     1     -10.101  12.197  68.373  1.00  0.00    -0.209 A  
HETATM    8  N   UNL     1      -9.869  11.176  69.176  1.00  0.00    -0.117 NA 
HETATM    9  C   UNL     1     -10.186  10.344  67.081  1.00  0.00    -0.222 A  
HETATM   10  C   UNL     1     -10.266   9.315  66.117  1.00  0.00    -0.229 A  
HETATM   11  C   UNL     1      -9.932  10.042  68.413  1.00  0.00    -0.160 A  
HETATM   12  C   UNL     1     -10.093   7.988  66.508  1.00  0.00    -0.270 A  
HETATM   13  C   UNL     1      -9.756   8.697  68.800  1.00  0.00    -0.171 A  
HETATM   14  C   UNL     1      -9.845   7.678  67.840  1.00  0.00    -0.190 A  
BRANCH   7  15
HETATM   15  N   UNL     1     -10.042  13.519  68.742  1.00  0.00    -0.161 NA 
HETATM   16  N   UNL     1      -9.200  16.492  67.457  1.00  0.00    -0.202 NA 
HETATM   17  C   UNL     1     -11.482  15.427  67.871  1.00  0.00    -0.306 C  
HETATM   18  C   UNL     1      -8.668  15.122  67.396  1.00  0.00    -0.190 C  
HETATM   19  C   UNL     1     -11.308  14.262  68.856  1.00  0.00    -0.274 C  
HETATM   20  C   UNL     1      -9.214  17.076  66.116  1.00  0.00    -0.210 C  
HETATM   21  C   UNL     1      -8.817  14.323  68.702  1.00  0.00    -0.150 C  
HETATM   22  C   UNL     1     -10.511  16.590  68.110  1.00  0.00    -0.313 C  
ENDBRANCH   7  15
ENDBRANCH   5   6
ENDBRANCH   4   5
ENDBRANCH   3   4
ENDBRANCH   2   3
TORSDOF 5
ENDMDL
MODEL      168
REMARK 921   NORMALIZED FREE ENERGY PREDICTED BY IDOCK:   -3.66 KCAL/MOL
REMARK 922        TOTAL FREE ENERGY PREDICTED BY IDOCK:   -5.37 KCAL/MOL
REMARK 923 INTER-LIGAND FREE ENERGY PREDICTED BY IDOCK:   -4.82 KCAL/MOL
REMARK 924 INTRA-LIGAND FREE ENERGY PREDICTED BY IDOCK:   -0.55 KCAL/MOL
REMARK 927      BINDING AFFINITY PREDICTED BY RF-SCORE:    0.00 PKD
ROOT
HETATM    1  C   UNL     1      -7.176   5.273  67.462  1.00  0.00    -0.071 C  
HETATM    2  C   UNL     1      -7.394   6.014  68.758  1.00  0.00    -0.085 C  
ENDROOT
BRANCH   2   3
HETATM    3  O   UNL     1      -8.090   7.236  68.488  1.00  0.00    -0.121 OA 
BRANCH   3   4
HETATM    4  C   UNL     1      -9.275   6.931  67.755  1.00  0.00    -0.119 C  
BRANCH   4   5
HETATM    5  C   UNL     1     -10.415   7.873  68.083  1.00  0.00    -0.173 C  
BRANCH   5   6
HETATM    6  N   UNL     1     -10.558   8.279  69.472  1.00  0.00    -0.227 NA 
HETATM    7  C   UNL     1     -10.410   9.589  69.948  1.00  0.00    -0.236 A  
HETATM    8  N   UNL     1     -10.471   9.590  71.266  1.00  0.00    -0.305 NA 
HETATM    9  C   UNL     1     -10.746   7.441  70.567  1.00  0.00    -0.233 A  
HETATM   10  C   UNL     1     -10.941   6.055  70.753  1.00  0.00    -0.364 A  
HETATM   11  C   UNL     1     -10.690   8.298  71.659  1.00  0.00    -0.256 A  
HETATM   12  C   UNL     1     -11.082   5.546  72.043  1.00  0.00    -0.249 A  
HETATM   13  C   UNL     1     -10.831   7.774  72.961  1.00  0.00    -0.451 A  
HETATM   14  C   UNL     1     -11.033   6.398  73.141  1.00  0.00    -0.249 A  
BRANCH   7  15
HETATM   15  N   UNL     1     -10.117  10.685  69.173  1.00  0.00    -0.215 NA 
HETATM   16  N   UNL     1      -8.842  11.417  66.167  1.00  0.00    -0.195 NA 
HETATM   17  C   UNL     1     -11.252  11.384  67.005  1.00  0.00    -0.350 C  
HETATM   18  C   UNL     1      -8.547  10.451  67.237  1.00  0.00    -0.126 C  
HETATM   19  C   UNL     1     -11.238  11.402  68.539  1.00  0.00    -0.250 C  
HETATM   20  C   UNL     1      -8.807  10.742  64.870  1.00  0.00    -0.163 C  
HETATM   21  C   UNL     1      -8.778  10.988  68.660  1.00  0.00    -0.161 C  
HETATM   22  C   UNL     1     -10.092  12.159  66.366  1.00  0.00    -0.220 C  
ENDBRANCH   7  15
ENDBRANCH   5   6
ENDBRANCH   4   5
ENDBRANCH   3   4
ENDBRANCH   2   3
TORSDOF 5
ENDMDL
MODEL      169
REMARK 921   NORMALIZED FREE ENERGY PREDICTED BY IDOCK:   -3.65 KCAL/MOL
REMARK 922        TOTAL FREE ENERGY PREDICTED BY IDOCK:   -5.35 KCAL/MOL
REMARK 923 INTER-LIGAND FREE ENERGY PREDICTED BY IDOCK:   -4.69 KCAL/MOL
REMARK 924 INTRA-LIGAND FREE ENERGY PREDICTED BY IDOCK:   -0.66 KCAL/MOL
REMARK 927      BINDING AFFINITY PREDICTED BY RF-SCORE:    0.00 PKD
ROOT
HETATM    1  C   UNL     1      -6.720   6.156  71.741  1.00  0.00    -0.063 C  
HETATM    2  C   UNL     1      -6.968   7.568  71.272  1.00  0.00    -0.050 C  
ENDROOT
BRANCH   2   3
HETATM    3  O   UNL     1      -6.028   7.892  70.241  1.00  0.00    -0.029 OA 
BRANCH   3   4
HETATM    4  C   UNL     1      -6.646   8.802  69.333  1.00  0.00    -0.045 C  
BRANCH   4   5
HETATM    5  C   UNL     1      -7.636   8.118  68.413  1.00  0.00    -0.105 C  
BRANCH   5   6
HETATM    6  N   UNL     1      -8.760   8.911  67.945  1.00  0.00    -0.129 NA 
HETATM    7  C   UNL     1      -9.964   9.094  68.642  1.00  0.00    -0.170 A  
HETATM    8  N   UNL     1     -10.818   9.753  67.882  1.00  0.00    -0.264 NA 
HETATM    9  C   UNL     1      -8.886   9.520  66.701  1.00  0.00    -0.135 A  
HETATM   10  C   UNL     1      -8.058   9.678  65.567  1.00  0.00    -0.122 A  
HETATM   11  C   UNL     1     -10.177  10.034  66.706  1.00  0.00    -0.232 A  
HETATM   12  C   UNL     1      -8.540  10.359  64.450  1.00  0.00    -0.185 A  
HETATM   13  C   UNL     1     -10.657  10.719  65.571  1.00  0.00    -0.205 A  
HETATM   14  C   UNL     1      -9.829  10.881  64.451  1.00  0.00    -0.365 A  
BRANCH   7  15
HETATM   15  N   UNL     1     -10.255   8.558  69.872  1.00  0.00    -0.199 NA 
HETATM   16  N   UNL     1     -12.758   8.474  72.092  1.00  0.00    -0.358 NA 
HETATM   17  C   UNL     1     -11.960   6.742  70.395  1.00  0.00    -0.343 C  
HETATM   18  C   UNL     1     -12.155   9.487  71.212  1.00  0.00    -0.360 C  
HETATM   19  C   UNL     1     -10.540   7.114  69.947  1.00  0.00    -0.230 C  
HETATM   20  C   UNL     1     -14.216   8.549  72.004  1.00  0.00    -0.453 C  
HETATM   21  C   UNL     1     -10.632   9.356  71.042  1.00  0.00    -0.330 C  
HETATM   22  C   UNL     1     -12.265   7.112  71.853  1.00  0.00    -0.323 C  
ENDBRANCH   7  15
ENDBRANCH   5   6
ENDBRANCH   4   5
ENDBRANCH   3   4
ENDBRANCH   2   3
TORSDOF 5
ENDMDL
MODEL      170
REMARK 921   NORMALIZED FREE ENERGY PREDICTED BY IDOCK:   -3.62 KCAL/MOL
REMARK 922        TOTAL FREE ENERGY PREDICTED BY IDOCK:   -5.31 KCAL/MOL
REMARK 923 INTER-LIGAND FREE ENERGY PREDICTED BY IDOCK:   -4.51 KCAL/MOL
REMARK 924 INTRA-LIGAND FREE ENERGY PREDICTED BY IDOCK:   -0.81 KCAL/MOL
REMARK 927      BINDING AFFINITY PREDICTED BY RF-SCORE:    0.00 PKD
ROOT
HETATM    1  C   UNL     1      -8.073   9.319  65.681  1.00  0.00    -0.112 C  
HETATM    2  C   UNL     1      -9.572   9.252  65.840  1.00  0.00    -0.275 C  
ENDROOT
BRANCH   2   3
HETATM    3  O   UNL     1      -9.883   8.709  67.127  1.00  0.00    -0.172 OA 
BRANCH   3   4
HETATM    4  C   UNL     1     -11.026   9.389  67.643  1.00  0.00    -0.036 C  
BRANCH   4   5
HETATM    5  C   UNL     1     -10.758  10.032  68.987  1.00  0.00    -0.220 C  
BRANCH   5   6
HETATM    6  N   UNL     1      -9.384  10.021  69.462  1.00  0.00    -0.220 NA 
HETATM    7  C   UNL     1      -8.898   9.217  70.503  1.00  0.00    -0.241 A  
HETATM    8  N   UNL     1      -7.649   9.548  70.771  1.00  0.00    -0.281 NA 
HETATM    9  C   UNL     1      -8.359  10.870  69.059  1.00  0.00    -0.114 A  
HETATM   10  C   UNL     1      -8.217  11.891  68.093  1.00  0.00    -0.158 A  
HETATM   11  C   UNL     1      -7.299  10.539  69.894  1.00  0.00    -0.108 A  
HETATM   12  C   UNL     1      -7.002  12.565  67.976  1.00  0.00    -0.095 A  
HETATM   13  C   UNL     1      -6.075  11.228  69.770  1.00  0.00    -0.112 A  
HETATM   14  C   UNL     1      -5.935  12.235  68.804  1.00  0.00    -0.065 A  
BRANCH   7  15
HETATM   15  N   UNL     1      -9.645   8.315  71.221  1.00  0.00    -0.161 NA 
HETATM   16  N   UNL     1     -12.808   7.821  72.194  1.00  0.00    -0.217 NA 
HETATM   17  C   UNL     1     -11.438   6.745  70.329  1.00  0.00    -0.414 C  
HETATM   18  C   UNL     1     -11.903   8.975  72.076  1.00  0.00    -0.356 C  
HETATM   19  C   UNL     1      -9.950   7.017  70.594  1.00  0.00    -0.186 C  
HETATM   20  C   UNL     1     -14.120   8.164  71.647  1.00  0.00    -0.426 C  
HETATM   21  C   UNL     1     -10.433   8.667  72.406  1.00  0.00    -0.237 C  
HETATM   22  C   UNL     1     -12.274   6.587  71.605  1.00  0.00    -0.300 C  
ENDBRANCH   7  15
ENDBRANCH   5   6
ENDBRANCH   4   5
ENDBRANCH   3   4
ENDBRANCH   2   3
TORSDOF 5
ENDMDL
MODEL      171
REMARK 921   NORMALIZED FREE ENERGY PREDICTED BY IDOCK:   -3.62 KCAL/MOL
REMARK 922        TOTAL FREE ENERGY PREDICTED BY IDOCK:   -5.31 KCAL/MOL
REMARK 923 INTER-LIGAND FREE ENERGY PREDICTED BY IDOCK:   -5.20 KCAL/MOL
REMARK 924 INTRA-LIGAND FREE ENERGY PREDICTED BY IDOCK:   -0.11 KCAL/MOL
REMARK 927      BINDING AFFINITY PREDICTED BY RF-SCORE:    0.00 PKD
ROOT
HETATM    1  C   UNL     1      -7.216  19.694  65.770  1.00  0.00    -0.327 C  
HETATM    2  C   UNL     1      -8.545  20.354  66.040  1.00  0.00     0.091 C  
ENDROOT
BRANCH   2   3
HETATM    3  O   UNL     1      -9.506  19.351  66.386  1.00  0.00    -0.342 OA 
BRANCH   3   4
HETATM    4  C   UNL     1      -9.971  19.605  67.711  1.00  0.00    -0.394 C  
BRANCH   4   5
HETATM    5  C   UNL     1     -10.330  18.333  68.451  1.00  0.00    -0.343 C  
BRANCH   5   6
HETATM    6  N   UNL     1      -9.260  17.376  68.677  1.00  0.00    -0.274 NA 
HETATM    7  C   UNL     1      -9.427  15.986  68.768  1.00  0.00    -0.227 A  
HETATM    8  N   UNL     1      -8.283  15.425  69.109  1.00  0.00    -0.226 NA 
HETATM    9  C   UNL     1      -7.928  17.668  68.954  1.00  0.00    -0.178 A  
HETATM   10  C   UNL     1      -7.149  18.844  69.030  1.00  0.00    -0.339 A  
HETATM   11  C   UNL     1      -7.357  16.428  69.212  1.00  0.00    -0.211 A  
HETATM   12  C   UNL     1      -5.798  18.757  69.362  1.00  0.00    -0.249 A  
HETATM   13  C   UNL     1      -5.991  16.349  69.549  1.00  0.00    -0.176 A  
HETATM   14  C   UNL     1      -5.219  17.518  69.615  1.00  0.00    -0.179 A  
BRANCH   7  15
HETATM   15  N   UNL     1     -10.624  15.324  68.648  1.00  0.00    -0.230 NA 
HETATM   16  N   UNL     1     -11.900  12.260  69.076  1.00  0.00    -0.315 NA 
HETATM   17  C   UNL     1     -12.042  14.355  70.527  1.00  0.00    -0.404 C  
HETATM   18  C   UNL     1     -10.653  12.824  68.536  1.00  0.00    -0.252 C  
HETATM   19  C   UNL     1     -11.655  15.570  69.672  1.00  0.00    -0.348 C  
HETATM   20  C   UNL     1     -11.592  11.129  69.950  1.00  0.00    -0.337 C  
HETATM   21  C   UNL     1     -10.829  14.155  67.787  1.00  0.00    -0.252 C  
HETATM   22  C   UNL     1     -12.757  13.249  69.741  1.00  0.00     0.317 C  
ENDBRANCH   7  15
ENDBRANCH   5   6
ENDBRANCH   4   5
ENDBRANCH   3   4
ENDBRANCH   2   3
TORSDOF 5
ENDMDL
MODEL      172
REMARK 921   NORMALIZED FREE ENERGY PREDICTED BY IDOCK:   -3.62 KCAL/MOL
REMARK 922        TOTAL FREE ENERGY PREDICTED BY IDOCK:   -5.31 KCAL/MOL
REMARK 923 INTER-LIGAND FREE ENERGY PREDICTED BY IDOCK:   -4.53 KCAL/MOL
REMARK 924 INTRA-LIGAND FREE ENERGY PREDICTED BY IDOCK:   -0.78 KCAL/MOL
REMARK 927      BINDING AFFINITY PREDICTED BY RF-SCORE:    0.00 PKD
ROOT
HETATM    1  C   UNL     1      -8.154   5.129  65.474  1.00  0.00    -0.117 C  
HETATM    2  C   UNL     1      -8.125   5.829  66.809  1.00  0.00    -0.102 C  
ENDROOT
BRANCH   2   3
HETATM    3  O   UNL     1      -9.200   6.773  66.867  1.00  0.00    -0.133 OA 
BRANCH   3   4
HETATM    4  C   UNL     1     -10.110   6.365  67.887  1.00  0.00    -0.148 C  
BRANCH   4   5
HETATM    5  C   UNL     1      -9.682   6.831  69.263  1.00  0.00    -0.151 C  
BRANCH   5   6
HETATM    6  N   UNL     1     -10.299   8.046  69.770  1.00  0.00    -0.215 NA 
HETATM    7  C   UNL     1      -9.765   9.336  69.639  1.00  0.00    -0.182 A  
HETATM    8  N   UNL     1     -10.501  10.190  70.323  1.00  0.00    -0.270 NA 
HETATM    9  C   UNL     1     -11.441   8.131  70.559  1.00  0.00    -0.178 A  
HETATM   10  C   UNL     1     -12.396   7.214  71.052  1.00  0.00    -0.376 A  
HETATM   11  C   UNL     1     -11.532   9.480  70.876  1.00  0.00    -0.334 A  
HETATM   12  C   UNL     1     -13.439   7.670  71.857  1.00  0.00    -0.311 A  
HETATM   13  C   UNL     1     -12.588   9.932  71.694  1.00  0.00    -0.519 A  
HETATM   14  C   UNL     1     -13.540   9.020  72.174  1.00  0.00    -0.523 A  
BRANCH   7  15
HETATM   15  N   UNL     1      -8.586   9.644  69.005  1.00  0.00    -0.127 NA 
HETATM   16  N   UNL     1      -7.085  12.247  67.532  1.00  0.00    -0.129 NA 
HETATM   17  C   UNL     1      -6.752  11.200  69.836  1.00  0.00    -0.098 C  
HETATM   18  C   UNL     1      -8.447  11.692  67.572  1.00  0.00    -0.150 C  
HETATM   19  C   UNL     1      -7.377   9.797  69.831  1.00  0.00    -0.134 C  
HETATM   20  C   UNL     1      -7.138  13.698  67.702  1.00  0.00    -0.170 C  
HETATM   21  C   UNL     1      -8.506  10.156  67.634  1.00  0.00    -0.118 C  
HETATM   22  C   UNL     1      -6.161  11.617  68.483  1.00  0.00    -0.050 C  
ENDBRANCH   7  15
ENDBRANCH   5   6
ENDBRANCH   4   5
ENDBRANCH   3   4
ENDBRANCH   2   3
TORSDOF 5
ENDMDL
MODEL      173
REMARK 921   NORMALIZED FREE ENERGY PREDICTED BY IDOCK:   -3.61 KCAL/MOL
REMARK 922        TOTAL FREE ENERGY PREDICTED BY IDOCK:   -5.29 KCAL/MOL
REMARK 923 INTER-LIGAND FREE ENERGY PREDICTED BY IDOCK:   -4.74 KCAL/MOL
REMARK 924 INTRA-LIGAND FREE ENERGY PREDICTED BY IDOCK:   -0.55 KCAL/MOL
REMARK 927      BINDING AFFINITY PREDICTED BY RF-SCORE:    0.00 PKD
ROOT
HETATM    1  C   UNL     1     -12.099  12.388  64.539  1.00  0.00    -0.492 C  
HETATM    2  C   UNL     1     -10.593  12.336  64.465  1.00  0.00    -0.311 C  
ENDROOT
BRANCH   2   3
HETATM    3  O   UNL     1     -10.113  11.344  65.379  1.00  0.00    -0.237 OA 
BRANCH   3   4
HETATM    4  C   UNL     1      -8.837  11.755  65.867  1.00  0.00    -0.003 C  
BRANCH   4   5
HETATM    5  C   UNL     1      -8.604  11.332  67.302  1.00  0.00    -0.143 C  
BRANCH   5   6
HETATM    6  N   UNL     1      -9.698  11.538  68.238  1.00  0.00    -0.192 NA 
HETATM    7  C   UNL     1     -10.410  10.515  68.881  1.00  0.00    -0.208 A  
HETATM    8  N   UNL     1     -11.419  11.036  69.554  1.00  0.00    -0.271 NA 
HETATM    9  C   UNL     1     -10.296  12.750  68.563  1.00  0.00    -0.221 A  
HETATM   10  C   UNL     1     -10.066  14.106  68.240  1.00  0.00    -0.241 A  
HETATM   11  C   UNL     1     -11.357  12.393  69.386  1.00  0.00    -0.220 A  
HETATM   12  C   UNL     1     -10.909  15.090  68.755  1.00  0.00    -0.249 A  
HETATM   13  C   UNL     1     -12.206  13.394  69.900  1.00  0.00    -0.337 A  
HETATM   14  C   UNL     1     -11.969  14.740  69.584  1.00  0.00    -0.360 A  
BRANCH   7  15
HETATM   15  N   UNL     1     -10.175   9.171  68.730  1.00  0.00    -0.204 NA 
HETATM   16  N   UNL     1      -8.757   7.055  66.560  1.00  0.00    -0.128 NA 
HETATM   17  C   UNL     1      -7.924   7.986  68.786  1.00  0.00    -0.119 C  
HETATM   18  C   UNL     1      -9.600   8.257  66.472  1.00  0.00    -0.244 C  
HETATM   19  C   UNL     1      -9.122   8.556  69.557  1.00  0.00    -0.150 C  
HETATM   20  C   UNL     1      -7.661   7.149  65.596  1.00  0.00    -0.102 C  
HETATM   21  C   UNL     1     -10.649   8.382  67.590  1.00  0.00    -0.195 C  
HETATM   22  C   UNL     1      -8.271   6.771  67.916  1.00  0.00    -0.117 C  
ENDBRANCH   7  15
ENDBRANCH   5   6
ENDBRANCH   4   5
ENDBRANCH   3   4
ENDBRANCH   2   3
TORSDOF 5
ENDMDL
MODEL      174
REMARK 921   NORMALIZED FREE ENERGY PREDICTED BY IDOCK:   -3.59 KCAL/MOL
REMARK 922        TOTAL FREE ENERGY PREDICTED BY IDOCK:   -5.27 KCAL/MOL
REMARK 923 INTER-LIGAND FREE ENERGY PREDICTED BY IDOCK:   -4.75 KCAL/MOL
REMARK 924 INTRA-LIGAND FREE ENERGY PREDICTED BY IDOCK:   -0.52 KCAL/MOL
REMARK 927      BINDING AFFINITY PREDICTED BY RF-SCORE:    0.00 PKD
ROOT
HETATM    1  C   UNL     1      -9.405   6.444  74.269  1.00  0.00    -0.205 C  
HETATM    2  C   UNL     1     -10.677   6.875  73.583  1.00  0.00    -0.274 C  
ENDROOT
BRANCH   2   3
HETATM    3  O   UNL     1     -10.860   6.091  72.399  1.00  0.00    -0.222 OA 
BRANCH   3   4
HETATM    4  C   UNL     1     -11.327   6.946  71.356  1.00  0.00    -0.270 C  
BRANCH   4   5
HETATM    5  C   UNL     1     -10.269   7.925  70.894  1.00  0.00    -0.198 C  
BRANCH   5   6
HETATM    6  N   UNL     1     -10.580   8.731  69.725  1.00  0.00    -0.223 NA 
HETATM    7  C   UNL     1     -10.247   8.397  68.404  1.00  0.00    -0.206 A  
HETATM    8  N   UNL     1     -10.553   9.401  67.604  1.00  0.00    -0.274 NA 
HETATM    9  C   UNL     1     -11.144  10.002  69.719  1.00  0.00    -0.274 A  
HETATM   10  C   UNL     1     -11.663  10.880  70.697  1.00  0.00    -0.418 A  
HETATM   11  C   UNL     1     -11.113  10.378  68.382  1.00  0.00    -0.268 A  
HETATM   12  C   UNL     1     -12.149  12.129  70.315  1.00  0.00    -0.385 A  
HETATM   13  C   UNL     1     -11.604  11.645  68.004  1.00  0.00    -0.383 A  
HETATM   14  C   UNL     1     -12.126  12.510  68.977  1.00  0.00    -0.181 A  
BRANCH   7  15
HETATM   15  N   UNL     1      -9.587   7.256  68.019  1.00  0.00    -0.138 NA 
HETATM   16  N   UNL     1      -7.484   4.976  69.275  1.00  0.00    -0.057 NA 
HETATM   17  C   UNL     1      -9.998   4.885  68.847  1.00  0.00    -0.220 C  
HETATM   18  C   UNL     1      -7.639   6.437  69.360  1.00  0.00    -0.095 C  
HETATM   19  C   UNL     1     -10.372   6.017  67.880  1.00  0.00    -0.206 C  
HETATM   20  C   UNL     1      -7.235   4.428  70.608  1.00  0.00    -0.045 C  
HETATM   21  C   UNL     1      -8.130   7.101  68.063  1.00  0.00    -0.120 C  
HETATM   22  C   UNL     1      -8.601   4.300  68.604  1.00  0.00    -0.093 C  
ENDBRANCH   7  15
ENDBRANCH   5   6
ENDBRANCH   4   5
ENDBRANCH   3   4
ENDBRANCH   2   3
TORSDOF 5
ENDMDL
MODEL      175
REMARK 921   NORMALIZED FREE ENERGY PREDICTED BY IDOCK:   -3.57 KCAL/MOL
REMARK 922        TOTAL FREE ENERGY PREDICTED BY IDOCK:   -5.25 KCAL/MOL
REMARK 923 INTER-LIGAND FREE ENERGY PREDICTED BY IDOCK:   -4.91 KCAL/MOL
REMARK 924 INTRA-LIGAND FREE ENERGY PREDICTED BY IDOCK:   -0.34 KCAL/MOL
REMARK 927      BINDING AFFINITY PREDICTED BY RF-SCORE:    0.00 PKD
ROOT
HETATM    1  C   UNL     1     -10.187  17.479  68.466  1.00  0.00    -0.378 C  
HETATM    2  C   UNL     1     -11.261  16.432  68.628  1.00  0.00    -0.332 C  
ENDROOT
BRANCH   2   3
HETATM    3  O   UNL     1     -11.017  15.363  67.708  1.00  0.00    -0.294 OA 
BRANCH   3   4
HETATM    4  C   UNL     1     -10.332  15.888  66.572  1.00  0.00    -0.300 C  
BRANCH   4   5
HETATM    5  C   UNL     1      -9.335  14.906  65.993  1.00  0.00    -0.241 C  
BRANCH   5   6
HETATM    6  N   UNL     1      -8.584  14.094  66.936  1.00  0.00    -0.178 NA 
HETATM    7  C   UNL     1      -8.728  12.708  67.099  1.00  0.00    -0.201 A  
HETATM    8  N   UNL     1      -8.000  12.306  68.124  1.00  0.00    -0.147 NA 
HETATM    9  C   UNL     1      -7.695  14.551  67.903  1.00  0.00    -0.140 A  
HETATM   10  C   UNL     1      -7.156  15.806  68.263  1.00  0.00    -0.115 A  
HETATM   11  C   UNL     1      -7.354  13.408  68.615  1.00  0.00    -0.106 A  
HETATM   12  C   UNL     1      -6.272  15.895  69.337  1.00  0.00    -0.153 A  
HETATM   13  C   UNL     1      -6.461  13.507  69.702  1.00  0.00    -0.072 A  
HETATM   14  C   UNL     1      -5.921  14.754  70.051  1.00  0.00    -0.140 A  
BRANCH   7  15
HETATM   15  N   UNL     1      -9.592  11.913  66.387  1.00  0.00    -0.220 NA 
HETATM   16  N   UNL     1     -12.136  12.199  64.232  1.00  0.00    -0.385 NA 
HETATM   17  C   UNL     1      -9.681  11.611  63.862  1.00  0.00    -0.253 C  
HETATM   18  C   UNL     1     -11.697  12.895  65.452  1.00  0.00    -0.375 C  
HETATM   19  C   UNL     1      -9.066  11.203  65.208  1.00  0.00    -0.167 C  
HETATM   20  C   UNL     1     -12.522  13.179  63.217  1.00  0.00    -0.162 C  
HETATM   21  C   UNL     1     -11.052  11.981  66.508  1.00  0.00    -0.314 C  
HETATM   22  C   UNL     1     -11.160  11.231  63.717  1.00  0.00    -0.231 C  
ENDBRANCH   7  15
ENDBRANCH   5   6
ENDBRANCH   4   5
ENDBRANCH   3   4
ENDBRANCH   2   3
TORSDOF 5
ENDMDL
MODEL      176
REMARK 921   NORMALIZED FREE ENERGY PREDICTED BY IDOCK:   -3.57 KCAL/MOL
REMARK 922        TOTAL FREE ENERGY PREDICTED BY IDOCK:   -5.25 KCAL/MOL
REMARK 923 INTER-LIGAND FREE ENERGY PREDICTED BY IDOCK:   -4.84 KCAL/MOL
REMARK 924 INTRA-LIGAND FREE ENERGY PREDICTED BY IDOCK:   -0.41 KCAL/MOL
REMARK 927      BINDING AFFINITY PREDICTED BY RF-SCORE:    0.00 PKD
ROOT
HETATM    1  C   UNL     1      -9.179   3.377  68.300  1.00  0.00    -0.234 C  
HETATM    2  C   UNL     1      -8.959   4.870  68.281  1.00  0.00    -0.109 C  
ENDROOT
BRANCH   2   3
HETATM    3  O   UNL     1     -10.061   5.497  67.616  1.00  0.00    -0.152 OA 
BRANCH   3   4
HETATM    4  C   UNL     1     -10.730   6.345  68.548  1.00  0.00    -0.288 C  
BRANCH   4   5
HETATM    5  C   UNL     1      -9.919   7.575  68.897  1.00  0.00    -0.168 C  
BRANCH   5   6
HETATM    6  N   UNL     1     -10.658   8.766  69.283  1.00  0.00    -0.221 NA 
HETATM    7  C   UNL     1     -10.493  10.037  68.712  1.00  0.00    -0.208 A  
HETATM    8  N   UNL     1     -11.215  10.917  69.379  1.00  0.00    -0.250 NA 
HETATM    9  C   UNL     1     -11.554   8.882  70.340  1.00  0.00    -0.101 A  
HETATM   10  C   UNL     1     -12.113   7.997  71.289  1.00  0.00    -0.314 A  
HETATM   11  C   UNL     1     -11.879  10.232  70.361  1.00  0.00    -0.309 A  
HETATM   12  C   UNL     1     -12.999   8.484  72.248  1.00  0.00    -0.384 A  
HETATM   13  C   UNL     1     -12.773  10.717  71.337  1.00  0.00    -0.544 A  
HETATM   14  C   UNL     1     -13.333   9.834  72.272  1.00  0.00    -0.472 A  
BRANCH   7  15
HETATM   15  N   UNL     1      -9.616  10.342  67.701  1.00  0.00    -0.148 NA 
HETATM   16  N   UNL     1      -6.732   9.247  66.405  1.00  0.00    -0.071 NA 
HETATM   17  C   UNL     1      -9.141   8.972  65.610  1.00  0.00    -0.278 C  
HETATM   18  C   UNL     1      -7.289   9.422  67.756  1.00  0.00    -0.083 C  
HETATM   19  C   UNL     1     -10.014  10.016  66.320  1.00  0.00    -0.245 C  
HETATM   20  C   UNL     1      -6.075   7.944  66.307  1.00  0.00    -0.045 C  
HETATM   21  C   UNL     1      -8.199  10.651  67.913  1.00  0.00    -0.112 C  
HETATM   22  C   UNL     1      -7.710   9.449  65.330  1.00  0.00    -0.108 C  
ENDBRANCH   7  15
ENDBRANCH   5   6
ENDBRANCH   4   5
ENDBRANCH   3   4
ENDBRANCH   2   3
TORSDOF 5
ENDMDL
MODEL      177
REMARK 921   NORMALIZED FREE ENERGY PREDICTED BY IDOCK:   -3.56 KCAL/MOL
REMARK 922        TOTAL FREE ENERGY PREDICTED BY IDOCK:   -5.23 KCAL/MOL
REMARK 923 INTER-LIGAND FREE ENERGY PREDICTED BY IDOCK:   -5.08 KCAL/MOL
REMARK 924 INTRA-LIGAND FREE ENERGY PREDICTED BY IDOCK:   -0.15 KCAL/MOL
REMARK 927      BINDING AFFINITY PREDICTED BY RF-SCORE:    0.00 PKD
ROOT
HETATM    1  C   UNL     1      -5.552  12.932  68.485  1.00  0.00    -0.067 C  
HETATM    2  C   UNL     1      -6.642  11.946  68.824  1.00  0.00    -0.080 C  
ENDROOT
BRANCH   2   3
HETATM    3  O   UNL     1      -7.313  11.558  67.620  1.00  0.00    -0.094 OA 
BRANCH   3   4
HETATM    4  C   UNL     1      -7.552  12.726  66.836  1.00  0.00     0.171 C  
BRANCH   4   5
HETATM    5  C   UNL     1      -8.800  13.467  67.267  1.00  0.00    -0.220 C  
BRANCH   5   6
HETATM    6  N   UNL     1      -9.650  13.997  66.214  1.00  0.00    -0.284 NA 
HETATM    7  C   UNL     1      -9.833  15.359  65.935  1.00  0.00    -0.356 A  
HETATM    8  N   UNL     1     -10.766  15.500  65.013  1.00  0.00    -0.440 NA 
HETATM    9  C   UNL     1     -10.506  13.271  65.393  1.00  0.00    -0.297 A  
HETATM   10  C   UNL     1     -10.798  11.902  65.200  1.00  0.00    -0.350 A  
HETATM   11  C   UNL     1     -11.176  14.243  64.660  1.00  0.00    -0.366 A  
HETATM   12  C   UNL     1     -11.761  11.527  64.265  1.00  0.00    -0.164 A  
HETATM   13  C   UNL     1     -12.150  13.854  63.718  1.00  0.00    -0.330 A  
HETATM   14  C   UNL     1     -12.431  12.494  63.524  1.00  0.00    -0.561 A  
BRANCH   7  15
HETATM   15  N   UNL     1      -9.228  16.393  66.608  1.00  0.00    -0.236 NA 
HETATM   16  N   UNL     1      -7.282  16.907  69.281  1.00  0.00    -0.216 NA 
HETATM   17  C   UNL     1      -6.734  16.862  66.789  1.00  0.00    -0.262 C  
HETATM   18  C   UNL     1      -8.432  16.048  68.955  1.00  0.00    -0.244 C  
HETATM   19  C   UNL     1      -8.040  17.013  65.997  1.00  0.00    -0.143 C  
HETATM   20  C   UNL     1      -6.263  16.124  69.980  1.00  0.00    -0.120 C  
HETATM   21  C   UNL     1      -9.467  16.697  68.022  1.00  0.00    -0.224 C  
HETATM   22  C   UNL     1      -6.728  17.619  68.123  1.00  0.00    -0.205 C  
ENDBRANCH   7  15
ENDBRANCH   5   6
ENDBRANCH   4   5
ENDBRANCH   3   4
ENDBRANCH   2   3
TORSDOF 5
ENDMDL
MODEL      178
REMARK 921   NORMALIZED FREE ENERGY PREDICTED BY IDOCK:   -3.54 KCAL/MOL
REMARK 922        TOTAL FREE ENERGY PREDICTED BY IDOCK:   -5.21 KCAL/MOL
REMARK 923 INTER-LIGAND FREE ENERGY PREDICTED BY IDOCK:   -4.74 KCAL/MOL
REMARK 924 INTRA-LIGAND FREE ENERGY PREDICTED BY IDOCK:   -0.47 KCAL/MOL
REMARK 927      BINDING AFFINITY PREDICTED BY RF-SCORE:    0.00 PKD
ROOT
HETATM    1  C   UNL     1      -8.488   4.477  66.091  1.00  0.00    -0.113 C  
HETATM    2  C   UNL     1      -7.926   5.876  66.145  1.00  0.00    -0.106 C  
ENDROOT
BRANCH   2   3
HETATM    3  O   UNL     1      -8.993   6.817  65.986  1.00  0.00    -0.153 OA 
BRANCH   3   4
HETATM    4  C   UNL     1      -9.523   7.124  67.275  1.00  0.00    -0.140 C  
BRANCH   4   5
HETATM    5  C   UNL     1      -9.010   8.443  67.812  1.00  0.00    -0.136 C  
BRANCH   5   6
HETATM    6  N   UNL     1      -9.887   9.595  67.683  1.00  0.00    -0.157 NA 
HETATM    7  C   UNL     1     -10.672  10.130  68.715  1.00  0.00    -0.220 A  
HETATM    8  N   UNL     1     -11.447  11.082  68.232  1.00  0.00    -0.360 NA 
HETATM    9  C   UNL     1     -10.187  10.284  66.513  1.00  0.00    -0.226 A  
HETATM   10  C   UNL     1      -9.757  10.222  65.169  1.00  0.00    -0.364 A  
HETATM   11  C   UNL     1     -11.156  11.201  66.900  1.00  0.00    -0.247 A  
HETATM   12  C   UNL     1     -10.307  11.090  64.228  1.00  0.00    -0.430 A  
HETATM   13  C   UNL     1     -11.709  12.074  65.941  1.00  0.00    -0.312 A  
HETATM   14  C   UNL     1     -11.274  12.015  64.609  1.00  0.00    -0.380 A  
BRANCH   7  15
HETATM   15  N   UNL     1     -10.722   9.651  70.001  1.00  0.00    -0.240 NA 
HETATM   16  N   UNL     1     -10.874   6.733  71.634  1.00  0.00    -0.226 NA 
HETATM   17  C   UNL     1      -8.924   8.327  71.222  1.00  0.00    -0.200 C  
HETATM   18  C   UNL     1     -11.483   7.303  70.422  1.00  0.00    -0.248 C  
HETATM   19  C   UNL     1      -9.486   9.692  70.803  1.00  0.00    -0.054 C  
HETATM   20  C   UNL     1     -10.410   5.374  71.360  1.00  0.00    -0.228 C  
HETATM   21  C   UNL     1     -11.803   8.805  70.516  1.00  0.00    -0.030 C  
HETATM   22  C   UNL     1      -9.815   7.568  72.213  1.00  0.00    -0.169 C  
ENDBRANCH   7  15
ENDBRANCH   5   6
ENDBRANCH   4   5
ENDBRANCH   3   4
ENDBRANCH   2   3
TORSDOF 5
ENDMDL
MODEL      179
REMARK 921   NORMALIZED FREE ENERGY PREDICTED BY IDOCK:   -3.54 KCAL/MOL
REMARK 922        TOTAL FREE ENERGY PREDICTED BY IDOCK:   -5.20 KCAL/MOL
REMARK 923 INTER-LIGAND FREE ENERGY PREDICTED BY IDOCK:   -4.56 KCAL/MOL
REMARK 924 INTRA-LIGAND FREE ENERGY PREDICTED BY IDOCK:   -0.64 KCAL/MOL
REMARK 927      BINDING AFFINITY PREDICTED BY RF-SCORE:    0.00 PKD
ROOT
HETATM    1  C   UNL     1     -13.035  11.010  71.692  1.00  0.00    -0.561 C  
HETATM    2  C   UNL     1     -12.793   9.616  71.171  1.00  0.00    -0.316 C  
ENDROOT
BRANCH   2   3
HETATM    3  O   UNL     1     -11.383   9.383  71.090  1.00  0.00    -0.291 OA 
BRANCH   3   4
HETATM    4  C   UNL     1     -10.829  10.282  70.130  1.00  0.00    -0.302 C  
BRANCH   4   5
HETATM    5  C   UNL     1     -10.510   9.600  68.816  1.00  0.00    -0.215 C  
BRANCH   5   6
HETATM    6  N   UNL     1      -9.163   9.079  68.652  1.00  0.00    -0.137 NA 
HETATM    7  C   UNL     1      -8.167   9.656  67.851  1.00  0.00    -0.106 A  
HETATM    8  N   UNL     1      -7.112   8.863  67.818  1.00  0.00    -0.079 NA 
HETATM    9  C   UNL     1      -8.670   7.880  69.156  1.00  0.00    -0.138 A  
HETATM   10  C   UNL     1      -9.168   6.857  69.993  1.00  0.00    -0.155 A  
HETATM   11  C   UNL     1      -7.393   7.788  68.617  1.00  0.00    -0.087 A  
HETATM   12  C   UNL     1      -8.370   5.752  70.283  1.00  0.00    -0.117 A  
HETATM   13  C   UNL     1      -6.592   6.665  68.913  1.00  0.00    -0.051 A  
HETATM   14  C   UNL     1      -7.088   5.656  69.752  1.00  0.00    -0.064 A  
BRANCH   7  15
HETATM   15  N   UNL     1      -8.314  10.802  67.109  1.00  0.00    -0.125 NA 
HETATM   16  N   UNL     1     -10.713  12.562  65.576  1.00  0.00    -0.265 NA 
HETATM   17  C   UNL     1      -9.514  12.938  67.798  1.00  0.00    -0.202 C  
HETATM   18  C   UNL     1     -10.381  11.137  65.738  1.00  0.00    -0.260 C  
HETATM   19  C   UNL     1      -8.231  12.095  67.811  1.00  0.00    -0.154 C  
HETATM   20  C   UNL     1     -12.144  12.764  65.799  1.00  0.00    -0.448 C  
HETATM   21  C   UNL     1      -8.874  10.833  65.755  1.00  0.00    -0.188 C  
HETATM   22  C   UNL     1      -9.897  13.457  66.406  1.00  0.00    -0.296 C  
ENDBRANCH   7  15
ENDBRANCH   5   6
ENDBRANCH   4   5
ENDBRANCH   3   4
ENDBRANCH   2   3
TORSDOF 5
ENDMDL
MODEL      180
REMARK 921   NORMALIZED FREE ENERGY PREDICTED BY IDOCK:   -3.53 KCAL/MOL
REMARK 922        TOTAL FREE ENERGY PREDICTED BY IDOCK:   -5.20 KCAL/MOL
REMARK 923 INTER-LIGAND FREE ENERGY PREDICTED BY IDOCK:   -4.40 KCAL/MOL
REMARK 924 INTRA-LIGAND FREE ENERGY PREDICTED BY IDOCK:   -0.80 KCAL/MOL
REMARK 927      BINDING AFFINITY PREDICTED BY RF-SCORE:    0.00 PKD
ROOT
HETATM    1  C   UNL     1     -13.211  10.571  71.802  1.00  0.00    -0.522 C  
HETATM    2  C   UNL     1     -12.491   9.267  72.040  1.00  0.00    -0.378 C  
ENDROOT
BRANCH   2   3
HETATM    3  O   UNL     1     -11.082   9.476  71.900  1.00  0.00    -0.290 OA 
BRANCH   3   4
HETATM    4  C   UNL     1     -10.730   9.292  70.530  1.00  0.00    -0.257 C  
BRANCH   4   5
HETATM    5  C   UNL     1     -11.291   8.008  69.956  1.00  0.00    -0.011 C  
BRANCH   5   6
HETATM    6  N   UNL     1     -10.519   6.795  70.173  1.00  0.00    -0.202 NA 
HETATM    7  C   UNL     1      -9.555   6.285  69.291  1.00  0.00    -0.133 A  
HETATM    8  N   UNL     1      -9.142   5.107  69.720  1.00  0.00    -0.113 NA 
HETATM    9  C   UNL     1     -10.678   5.883  71.211  1.00  0.00    -0.264 A  
HETATM   10  C   UNL     1     -11.477   5.809  72.373  1.00  0.00    -0.343 A  
HETATM   11  C   UNL     1      -9.802   4.854  70.893  1.00  0.00    -0.207 A  
HETATM   12  C   UNL     1     -11.381   4.696  73.207  1.00  0.00    -0.393 A  
HETATM   13  C   UNL     1      -9.712   3.731  71.740  1.00  0.00    -0.245 A  
HETATM   14  C   UNL     1     -10.501   3.664  72.898  1.00  0.00    -0.239 A  
BRANCH   7  15
HETATM   15  N   UNL     1      -9.191   6.860  68.098  1.00  0.00    -0.127 NA 
HETATM   16  N   UNL     1      -6.622   6.880  65.953  1.00  0.00    -0.050 NA 
HETATM   17  C   UNL     1      -8.879   5.691  65.859  1.00  0.00    -0.154 C  
HETATM   18  C   UNL     1      -6.783   6.883  67.415  1.00  0.00    -0.067 C  
HETATM   19  C   UNL     1      -9.826   6.357  66.867  1.00  0.00    -0.158 C  
HETATM   20  C   UNL     1      -5.591   5.916  65.572  1.00  0.00    -0.020 C  
HETATM   21  C   UNL     1      -7.993   7.686  67.921  1.00  0.00    -0.118 C  
HETATM   22  C   UNL     1      -7.875   6.660  65.220  1.00  0.00    -0.110 C  
ENDBRANCH   7  15
ENDBRANCH   5   6
ENDBRANCH   4   5
ENDBRANCH   3   4
ENDBRANCH   2   3
TORSDOF 5
ENDMDL
MODEL      181
REMARK 921   NORMALIZED FREE ENERGY PREDICTED BY IDOCK:   -3.50 KCAL/MOL
REMARK 922        TOTAL FREE ENERGY PREDICTED BY IDOCK:   -5.16 KCAL/MOL
REMARK 923 INTER-LIGAND FREE ENERGY PREDICTED BY IDOCK:   -4.51 KCAL/MOL
REMARK 924 INTRA-LIGAND FREE ENERGY PREDICTED BY IDOCK:   -0.65 KCAL/MOL
REMARK 927      BINDING AFFINITY PREDICTED BY RF-SCORE:    0.00 PKD
ROOT
HETATM    1  C   UNL     1      -6.645  14.855  69.351  1.00  0.00    -0.142 C  
HETATM    2  C   UNL     1      -7.775  14.078  68.723  1.00  0.00    -0.112 C  
ENDROOT
BRANCH   2   3
HETATM    3  O   UNL     1      -7.595  12.685  68.997  1.00  0.00    -0.004 OA 
BRANCH   3   4
HETATM    4  C   UNL     1      -8.496  11.941  68.178  1.00  0.00    -0.163 C  
BRANCH   4   5
HETATM    5  C   UNL     1      -8.279  12.195  66.701  1.00  0.00    -0.017 C  
BRANCH   5   6
HETATM    6  N   UNL     1      -9.306  11.716  65.791  1.00  0.00    -0.226 NA 
HETATM    7  C   UNL     1      -9.392  10.409  65.290  1.00  0.00    -0.214 A  
HETATM    8  N   UNL     1     -10.355  10.344  64.390  1.00  0.00    -0.207 NA 
HETATM    9  C   UNL     1     -10.293  12.479  65.176  1.00  0.00    -0.289 A  
HETATM   10  C   UNL     1     -10.710  13.827  65.239  1.00  0.00    -0.345 A  
HETATM   11  C   UNL     1     -10.923  11.587  64.318  1.00  0.00    -0.341 A  
HETATM   12  C   UNL     1     -11.765  14.261  64.438  1.00  0.00    -0.405 A  
HETATM   13  C   UNL     1     -11.988  12.035  63.509  1.00  0.00    -0.605 A  
HETATM   14  C   UNL     1     -12.405  13.372  63.581  1.00  0.00    -0.422 A  
BRANCH   7  15
HETATM   15  N   UNL     1      -8.527   9.386  65.592  1.00  0.00    -0.130 NA 
HETATM   16  N   UNL     1      -8.571   6.090  66.168  1.00  0.00    -0.137 NA 
HETATM   17  C   UNL     1      -7.883   7.425  64.104  1.00  0.00    -0.120 C  
HETATM   18  C   UNL     1      -9.418   7.240  66.523  1.00  0.00    -0.163 C  
HETATM   19  C   UNL     1      -7.650   8.884  64.519  1.00  0.00    -0.109 C  
HETATM   20  C   UNL     1      -9.410   4.978  65.724  1.00  0.00    -0.160 C  
HETATM   21  C   UNL     1      -8.643   8.543  66.785  1.00  0.00    -0.114 C  
HETATM   22  C   UNL     1      -7.520   6.407  65.193  1.00  0.00    -0.083 C  
ENDBRANCH   7  15
ENDBRANCH   5   6
ENDBRANCH   4   5
ENDBRANCH   3   4
ENDBRANCH   2   3
TORSDOF 5
ENDMDL
MODEL      182
REMARK 921   NORMALIZED FREE ENERGY PREDICTED BY IDOCK:   -3.50 KCAL/MOL
REMARK 922        TOTAL FREE ENERGY PREDICTED BY IDOCK:   -5.15 KCAL/MOL
REMARK 923 INTER-LIGAND FREE ENERGY PREDICTED BY IDOCK:   -4.76 KCAL/MOL
REMARK 924 INTRA-LIGAND FREE ENERGY PREDICTED BY IDOCK:   -0.39 KCAL/MOL
REMARK 927      BINDING AFFINITY PREDICTED BY RF-SCORE:    0.00 PKD
ROOT
HETATM    1  C   UNL     1     -11.859  12.591  63.438  1.00  0.00    -0.587 C  
HETATM    2  C   UNL     1     -10.795  11.534  63.595  1.00  0.00    -0.415 C  
ENDROOT
BRANCH   2   3
HETATM    3  O   UNL     1     -10.100  11.748  64.829  1.00  0.00    -0.250 OA 
BRANCH   3   4
HETATM    4  C   UNL     1     -10.906  11.252  65.896  1.00  0.00    -0.202 C  
BRANCH   4   5
HETATM    5  C   UNL     1     -10.442  11.748  67.249  1.00  0.00    -0.214 C  
BRANCH   5   6
HETATM    6  N   UNL     1      -9.175  12.458  67.294  1.00  0.00    -0.181 NA 
HETATM    7  C   UNL     1      -7.959  11.912  67.732  1.00  0.00    -0.144 A  
HETATM    8  N   UNL     1      -7.039  12.857  67.772  1.00  0.00    -0.121 NA 
HETATM    9  C   UNL     1      -8.969  13.808  67.028  1.00  0.00    -0.238 A  
HETATM   10  C   UNL     1      -9.772  14.880  66.580  1.00  0.00    -0.294 A  
HETATM   11  C   UNL     1      -7.629  14.012  67.334  1.00  0.00    -0.148 A  
HETATM   12  C   UNL     1      -9.212  16.149  66.439  1.00  0.00    -0.334 A  
HETATM   13  C   UNL     1      -7.072  15.299  67.191  1.00  0.00    -0.090 A  
HETATM   14  C   UNL     1      -7.870  16.359  66.737  1.00  0.00    -0.301 A  
BRANCH   7  15
HETATM   15  N   UNL     1      -7.784  10.624  68.174  1.00  0.00    -0.098 NA 
HETATM   16  N   UNL     1      -9.314   8.358  70.105  1.00  0.00    -0.162 NA 
HETATM   17  C   UNL     1      -9.180   8.584  67.566  1.00  0.00    -0.151 C  
HETATM   18  C   UNL     1      -9.072   9.809  70.160  1.00  0.00    -0.197 C  
HETATM   19  C   UNL     1      -8.019   9.527  67.219  1.00  0.00    -0.106 C  
HETATM   20  C   UNL     1     -10.705   8.076  70.458  1.00  0.00    -0.229 C  
HETATM   21  C   UNL     1      -7.713  10.249  69.590  1.00  0.00    -0.160 C  
HETATM   22  C   UNL     1      -8.937   7.743  68.826  1.00  0.00    -0.141 C  
ENDBRANCH   7  15
ENDBRANCH   5   6
ENDBRANCH   4   5
ENDBRANCH   3   4
ENDBRANCH   2   3
TORSDOF 5
ENDMDL
MODEL      183
REMARK 921   NORMALIZED FREE ENERGY PREDICTED BY IDOCK:   -3.47 KCAL/MOL
REMARK 922        TOTAL FREE ENERGY PREDICTED BY IDOCK:   -5.12 KCAL/MOL
REMARK 923 INTER-LIGAND FREE ENERGY PREDICTED BY IDOCK:   -4.62 KCAL/MOL
REMARK 924 INTRA-LIGAND FREE ENERGY PREDICTED BY IDOCK:   -0.50 KCAL/MOL
REMARK 927      BINDING AFFINITY PREDICTED BY RF-SCORE:    0.00 PKD
ROOT
HETATM    1  C   UNL     1      -9.711   2.311  72.212  1.00  0.00    -0.193 C  
HETATM    2  C   UNL     1     -10.032   3.710  71.749  1.00  0.00    -0.140 C  
ENDROOT
BRANCH   2   3
HETATM    3  O   UNL     1      -8.815   4.379  71.401  1.00  0.00    -0.109 OA 
BRANCH   3   4
HETATM    4  C   UNL     1      -9.048   5.787  71.426  1.00  0.00    -0.140 C  
BRANCH   4   5
HETATM    5  C   UNL     1     -10.068   6.222  70.395  1.00  0.00    -0.185 C  
BRANCH   5   6
HETATM    6  N   UNL     1     -10.527   7.600  70.461  1.00  0.00    -0.217 NA 
HETATM    7  C   UNL     1      -9.754   8.723  70.134  1.00  0.00    -0.172 A  
HETATM    8  N   UNL     1     -10.422   9.822  70.431  1.00  0.00    -0.281 NA 
HETATM    9  C   UNL     1     -11.746   8.047  70.961  1.00  0.00    -0.277 A  
HETATM   10  C   UNL     1     -12.917   7.433  71.457  1.00  0.00    -0.421 A  
HETATM   11  C   UNL     1     -11.640   9.432  70.920  1.00  0.00    -0.312 A  
HETATM   12  C   UNL     1     -13.974   8.225  71.903  1.00  0.00    -0.468 A  
HETATM   13  C   UNL     1     -12.713  10.225  71.375  1.00  0.00    -0.547 A  
HETATM   14  C   UNL     1     -13.878   9.612  71.859  1.00  0.00    -0.291 A  
BRANCH   7  15
HETATM   15  N   UNL     1      -8.453   8.688  69.694  1.00  0.00    -0.126 NA 
HETATM   16  N   UNL     1      -6.573   9.864  67.188  1.00  0.00    -0.069 NA 
HETATM   17  C   UNL     1      -6.802  10.623  69.614  1.00  0.00    -0.124 C  
HETATM   18  C   UNL     1      -7.926   9.304  67.326  1.00  0.00    -0.106 C  
HETATM   19  C   UNL     1      -7.456   9.493  70.421  1.00  0.00    -0.151 C  
HETATM   20  C   UNL     1      -6.615  11.054  66.339  1.00  0.00    -0.126 C  
HETATM   21  C   UNL     1      -8.049   8.188  68.377  1.00  0.00    -0.128 C  
HETATM   22  C   UNL     1      -5.908  10.129  68.470  1.00  0.00    -0.041 C  
ENDBRANCH   7  15
ENDBRANCH   5   6
ENDBRANCH   4   5
ENDBRANCH   3   4
ENDBRANCH   2   3
TORSDOF 5
ENDMDL
MODEL      184
REMARK 921   NORMALIZED FREE ENERGY PREDICTED BY IDOCK:   -3.47 KCAL/MOL
REMARK 922        TOTAL FREE ENERGY PREDICTED BY IDOCK:   -5.12 KCAL/MOL
REMARK 923 INTER-LIGAND FREE ENERGY PREDICTED BY IDOCK:   -4.88 KCAL/MOL
REMARK 924 INTRA-LIGAND FREE ENERGY PREDICTED BY IDOCK:   -0.24 KCAL/MOL
REMARK 927      BINDING AFFINITY PREDICTED BY RF-SCORE:    0.00 PKD
ROOT
HETATM    1  C   UNL     1      -7.401  14.593  67.954  1.00  0.00    -0.164 C  
HETATM    2  C   UNL     1      -6.967  13.314  68.625  1.00  0.00    -0.101 C  
ENDROOT
BRANCH   2   3
HETATM    3  O   UNL     1      -8.046  12.374  68.584  1.00  0.00    -0.114 OA 
BRANCH   3   4
HETATM    4  C   UNL     1      -8.626  12.404  67.281  1.00  0.00    -0.185 C  
BRANCH   4   5
HETATM    5  C   UNL     1     -10.082  11.989  67.287  1.00  0.00    -0.194 C  
BRANCH   5   6
HETATM    6  N   UNL     1     -10.653  11.597  68.565  1.00  0.00    -0.208 NA 
HETATM    7  C   UNL     1     -10.691  10.287  69.063  1.00  0.00    -0.227 A  
HETATM    8  N   UNL     1     -11.393  10.259  70.180  1.00  0.00    -0.294 NA 
HETATM    9  C   UNL     1     -11.351  12.414  69.449  1.00  0.00    -0.220 A  
HETATM   10  C   UNL     1     -11.672  13.788  69.511  1.00  0.00    -0.380 A  
HETATM   11  C   UNL     1     -11.789  11.543  70.439  1.00  0.00    -0.320 A  
HETATM   12  C   UNL     1     -12.431  14.271  70.576  1.00  0.00    -0.428 A  
HETATM   13  C   UNL     1     -12.557  12.040  71.511  1.00  0.00    -0.279 A  
HETATM   14  C   UNL     1     -12.867  13.407  71.574  1.00  0.00    -0.427 A  
BRANCH   7  15
HETATM   15  N   UNL     1     -10.188   9.181  68.421  1.00  0.00    -0.194 NA 
HETATM   16  N   UNL     1      -8.705   8.359  65.536  1.00  0.00    -0.176 NA 
HETATM   17  C   UNL     1      -7.750   8.693  67.879  1.00  0.00    -0.102 C  
HETATM   18  C   UNL     1      -9.800   9.251  65.949  1.00  0.00    -0.265 C  
HETATM   19  C   UNL     1      -8.903   8.635  68.891  1.00  0.00    -0.138 C  
HETATM   20  C   UNL     1      -7.832   9.055  64.592  1.00  0.00    -0.121 C  
HETATM   21  C   UNL     1     -10.653   8.715  67.112  1.00  0.00    -0.234 C  
HETATM   22  C   UNL     1      -7.953   7.786  66.659  1.00  0.00    -0.107 C  
ENDBRANCH   7  15
ENDBRANCH   5   6
ENDBRANCH   4   5
ENDBRANCH   3   4
ENDBRANCH   2   3
TORSDOF 5
ENDMDL
MODEL      185
REMARK 921   NORMALIZED FREE ENERGY PREDICTED BY IDOCK:   -3.43 KCAL/MOL
REMARK 922        TOTAL FREE ENERGY PREDICTED BY IDOCK:   -5.07 KCAL/MOL
REMARK 923 INTER-LIGAND FREE ENERGY PREDICTED BY IDOCK:   -4.32 KCAL/MOL
REMARK 924 INTRA-LIGAND FREE ENERGY PREDICTED BY IDOCK:   -0.75 KCAL/MOL
REMARK 927      BINDING AFFINITY PREDICTED BY RF-SCORE:    0.00 PKD
ROOT
HETATM    1  C   UNL     1      -8.961  10.639  63.208  1.00  0.00    -0.229 C  
HETATM    2  C   UNL     1      -8.048   9.476  63.505  1.00  0.00    -0.151 C  
ENDROOT
BRANCH   2   3
HETATM    3  O   UNL     1      -8.423   8.893  64.757  1.00  0.00    -0.167 OA 
BRANCH   3   4
HETATM    4  C   UNL     1      -9.553   9.598  65.266  1.00  0.00    -0.277 C  
BRANCH   4   5
HETATM    5  C   UNL     1     -10.176   8.907  66.461  1.00  0.00    -0.249 C  
BRANCH   5   6
HETATM    6  N   UNL     1      -9.546   9.124  67.753  1.00  0.00    -0.143 NA 
HETATM    7  C   UNL     1      -9.803  10.210  68.603  1.00  0.00    -0.162 A  
HETATM    8  N   UNL     1      -8.971  10.177  69.626  1.00  0.00    -0.196 NA 
HETATM    9  C   UNL     1      -8.514   8.377  68.310  1.00  0.00    -0.135 A  
HETATM   10  C   UNL     1      -7.809   7.207  67.950  1.00  0.00    -0.114 A  
HETATM   11  C   UNL     1      -8.190   9.063  69.474  1.00  0.00    -0.114 A  
HETATM   12  C   UNL     1      -6.786   6.737  68.772  1.00  0.00    -0.056 A  
HETATM   13  C   UNL     1      -7.152   8.582  70.298  1.00  0.00    -0.043 A  
HETATM   14  C   UNL     1      -6.461   7.416  69.941  1.00  0.00    -0.035 A  
BRANCH   7  15
HETATM   15  N   UNL     1     -10.695  11.222  68.346  1.00  0.00    -0.191 NA 
HETATM   16  N   UNL     1     -12.329  13.655  69.960  1.00  0.00    -0.309 NA 
HETATM   17  C   UNL     1     -10.258  13.726  68.470  1.00  0.00    -0.235 C  
HETATM   18  C   UNL     1     -11.981  12.252  70.231  1.00  0.00    -0.290 C  
HETATM   19  C   UNL     1     -10.195  12.426  67.658  1.00  0.00    -0.207 C  
HETATM   20  C   UNL     1     -12.058  14.468  71.145  1.00  0.00    -0.344 C  
HETATM   21  C   UNL     1     -12.005  11.341  68.992  1.00  0.00    -0.325 C  
HETATM   22  C   UNL     1     -11.687  14.205  68.760  1.00  0.00    -0.345 C  
ENDBRANCH   7  15
ENDBRANCH   5   6
ENDBRANCH   4   5
ENDBRANCH   3   4
ENDBRANCH   2   3
TORSDOF 5
ENDMDL
MODEL      186
REMARK 921   NORMALIZED FREE ENERGY PREDICTED BY IDOCK:   -3.42 KCAL/MOL
REMARK 922        TOTAL FREE ENERGY PREDICTED BY IDOCK:   -5.06 KCAL/MOL
REMARK 923 INTER-LIGAND FREE ENERGY PREDICTED BY IDOCK:   -5.67 KCAL/MOL
REMARK 924 INTRA-LIGAND FREE ENERGY PREDICTED BY IDOCK:    0.62 KCAL/MOL
REMARK 927      BINDING AFFINITY PREDICTED BY RF-SCORE:    0.00 PKD
ROOT
HETATM    1  C   UNL     1      -8.067  17.487  66.725  1.00  0.00    -0.275 C  
HETATM    2  C   UNL     1      -8.685  16.268  66.086  1.00  0.00    -0.318 C  
ENDROOT
BRANCH   2   3
HETATM    3  O   UNL     1     -10.093  16.267  66.345  1.00  0.00    -0.274 OA 
BRANCH   3   4
HETATM    4  C   UNL     1     -10.500  14.931  66.639  1.00  0.00    -0.292 C  
BRANCH   4   5
HETATM    5  C   UNL     1     -10.776  14.722  68.113  1.00  0.00    -0.247 C  
BRANCH   5   6
HETATM    6  N   UNL     1     -11.244  13.406  68.516  1.00  0.00    -0.266 NA 
HETATM    7  C   UNL     1     -12.222  13.163  69.492  1.00  0.00    -0.158 A  
HETATM    8  N   UNL     1     -12.314  11.865  69.711  1.00  0.00    -0.135 NA 
HETATM    9  C   UNL     1     -10.735  12.180  68.102  1.00  0.00    -0.211 A  
HETATM   10  C   UNL     1      -9.754  11.756  67.178  1.00  0.00    -0.194 A  
HETATM   11  C   UNL     1     -11.431  11.251  68.865  1.00  0.00    -0.297 A  
HETATM   12  C   UNL     1      -9.487  10.396  67.031  1.00  0.00    -0.189 A  
HETATM   13  C   UNL     1     -11.153   9.877  68.712  1.00  0.00    -0.179 A  
HETATM   14  C   UNL     1     -10.183   9.460  67.787  1.00  0.00    -0.273 A  
BRANCH   7  15
HETATM   15  N   UNL     1     -12.887  14.131  70.204  1.00  0.00    -0.177 NA 
HETATM   16  N   UNL     1     -13.270  15.166  73.363  1.00  0.00    -0.494 NA 
HETATM   17  C   UNL     1     -11.866  16.102  71.448  1.00  0.00    -0.490 C  
HETATM   18  C   UNL     1     -13.186  13.868  72.676  1.00  0.00    -0.494 C  
HETATM   19  C   UNL     1     -12.384  15.513  70.128  1.00  0.00    -0.353 C  
HETATM   20  C   UNL     1     -12.434  15.144  74.564  1.00  0.00    -0.272 C  
HETATM   21  C   UNL     1     -13.837  13.843  71.283  1.00  0.00    -0.040 C  
HETATM   22  C   UNL     1     -12.961  16.314  72.502  1.00  0.00    -0.046 C  
ENDBRANCH   7  15
ENDBRANCH   5   6
ENDBRANCH   4   5
ENDBRANCH   3   4
ENDBRANCH   2   3
TORSDOF 5
ENDMDL
MODEL      187
REMARK 921   NORMALIZED FREE ENERGY PREDICTED BY IDOCK:   -3.41 KCAL/MOL
REMARK 922        TOTAL FREE ENERGY PREDICTED BY IDOCK:   -5.05 KCAL/MOL
REMARK 923 INTER-LIGAND FREE ENERGY PREDICTED BY IDOCK:   -4.70 KCAL/MOL
REMARK 924 INTRA-LIGAND FREE ENERGY PREDICTED BY IDOCK:   -0.34 KCAL/MOL
REMARK 927      BINDING AFFINITY PREDICTED BY RF-SCORE:    0.00 PKD
ROOT
HETATM    1  C   UNL     1      -8.719   9.177  64.812  1.00  0.00    -0.208 C  
HETATM    2  C   UNL     1      -9.351  10.050  65.868  1.00  0.00    -0.185 C  
ENDROOT
BRANCH   2   3
HETATM    3  O   UNL     1      -8.354  10.427  66.824  1.00  0.00    -0.123 OA 
BRANCH   3   4
HETATM    4  C   UNL     1      -8.884  10.231  68.134  1.00  0.00    -0.123 C  
BRANCH   4   5
HETATM    5  C   UNL     1      -9.974   9.179  68.165  1.00  0.00    -0.176 C  
BRANCH   5   6
HETATM    6  N   UNL     1     -10.561   8.875  69.460  1.00  0.00    -0.232 NA 
HETATM    7  C   UNL     1     -10.424   7.657  70.141  1.00  0.00    -0.227 A  
HETATM    8  N   UNL     1     -11.188   7.664  71.217  1.00  0.00    -0.250 NA 
HETATM    9  C   UNL     1     -11.440   9.676  70.182  1.00  0.00    -0.189 A  
HETATM   10  C   UNL     1     -11.981  10.972  70.028  1.00  0.00    -0.430 A  
HETATM   11  C   UNL     1     -11.801   8.887  71.267  1.00  0.00    -0.310 A  
HETATM   12  C   UNL     1     -12.878  11.462  70.976  1.00  0.00    -0.381 A  
HETATM   13  C   UNL     1     -12.711   9.389  72.219  1.00  0.00    -0.416 A  
HETATM   14  C   UNL     1     -13.239  10.680  72.068  1.00  0.00    -0.473 A  
BRANCH   7  15
HETATM   15  N   UNL     1      -9.708   6.575  69.691  1.00  0.00    -0.156 NA 
HETATM   16  N   UNL     1      -6.908   4.890  70.409  1.00  0.00    -0.036 NA 
HETATM   17  C   UNL     1      -9.357   4.357  70.887  1.00  0.00    -0.218 C  
HETATM   18  C   UNL     1      -7.313   6.304  70.368  1.00  0.00    -0.089 C  
HETATM   19  C   UNL     1     -10.235   5.230  69.979  1.00  0.00    -0.288 C  
HETATM   20  C   UNL     1      -6.145   4.632  71.630  1.00  0.00    -0.018 C  
HETATM   21  C   UNL     1      -8.312   6.646  69.249  1.00  0.00    -0.124 C  
HETATM   22  C   UNL     1      -8.023   3.949  70.250  1.00  0.00    -0.050 C  
ENDBRANCH   7  15
ENDBRANCH   5   6
ENDBRANCH   4   5
ENDBRANCH   3   4
ENDBRANCH   2   3
TORSDOF 5
ENDMDL
MODEL      188
REMARK 921   NORMALIZED FREE ENERGY PREDICTED BY IDOCK:   -3.38 KCAL/MOL
REMARK 922        TOTAL FREE ENERGY PREDICTED BY IDOCK:   -5.01 KCAL/MOL
REMARK 923 INTER-LIGAND FREE ENERGY PREDICTED BY IDOCK:   -4.24 KCAL/MOL
REMARK 924 INTRA-LIGAND FREE ENERGY PREDICTED BY IDOCK:   -0.76 KCAL/MOL
REMARK 927      BINDING AFFINITY PREDICTED BY RF-SCORE:    0.00 PKD
ROOT
HETATM    1  C   UNL     1      -8.123   8.864  64.488  1.00  0.00    -0.150 C  
HETATM    2  C   UNL     1      -8.403  10.026  65.407  1.00  0.00    -0.151 C  
ENDROOT
BRANCH   2   3
HETATM    3  O   UNL     1      -7.550   9.934  66.553  1.00  0.00    -0.101 OA 
BRANCH   3   4
HETATM    4  C   UNL     1      -8.334  10.165  67.723  1.00  0.00    -0.114 C  
BRANCH   4   5
HETATM    5  C   UNL     1      -9.725   9.576  67.612  1.00  0.00    -0.154 C  
BRANCH   5   6
HETATM    6  N   UNL     1     -10.154   8.690  68.682  1.00  0.00    -0.185 NA 
HETATM    7  C   UNL     1      -9.968   7.300  68.701  1.00  0.00    -0.166 A  
HETATM    8  N   UNL     1     -10.591   6.786  69.744  1.00  0.00    -0.215 NA 
HETATM    9  C   UNL     1     -10.913   9.039  69.795  1.00  0.00    -0.166 A  
HETATM   10  C   UNL     1     -11.430  10.241  70.325  1.00  0.00    -0.395 A  
HETATM   11  C   UNL     1     -11.157   7.827  70.428  1.00  0.00    -0.251 A  
HETATM   12  C   UNL     1     -12.188  10.209  71.495  1.00  0.00    -0.473 A  
HETATM   13  C   UNL     1     -11.926   7.803  71.610  1.00  0.00    -0.330 A  
HETATM   14  C   UNL     1     -12.432   9.001  72.138  1.00  0.00    -0.450 A  
BRANCH   7  15
HETATM   15  N   UNL     1      -9.346   6.572  67.717  1.00  0.00    -0.119 NA 
HETATM   16  N   UNL     1      -7.162   4.056  67.400  1.00  0.00    -0.067 NA 
HETATM   17  C   UNL     1      -9.702   4.114  67.163  1.00  0.00    -0.224 C  
HETATM   18  C   UNL     1      -7.303   5.234  68.269  1.00  0.00    -0.072 C  
HETATM   19  C   UNL     1     -10.145   5.573  66.986  1.00  0.00    -0.194 C  
HETATM   20  C   UNL     1      -6.813   2.887  68.206  1.00  0.00    -0.048 C  
HETATM   21  C   UNL     1      -7.890   6.473  67.571  1.00  0.00    -0.113 C  
HETATM   22  C   UNL     1      -8.331   3.805  66.548  1.00  0.00    -0.104 C  
ENDBRANCH   7  15
ENDBRANCH   5   6
ENDBRANCH   4   5
ENDBRANCH   3   4
ENDBRANCH   2   3
TORSDOF 5
ENDMDL
MODEL      189
REMARK 921   NORMALIZED FREE ENERGY PREDICTED BY IDOCK:   -3.37 KCAL/MOL
REMARK 922        TOTAL FREE ENERGY PREDICTED BY IDOCK:   -4.98 KCAL/MOL
REMARK 923 INTER-LIGAND FREE ENERGY PREDICTED BY IDOCK:   -4.64 KCAL/MOL
REMARK 924 INTRA-LIGAND FREE ENERGY PREDICTED BY IDOCK:   -0.34 KCAL/MOL
REMARK 927      BINDING AFFINITY PREDICTED BY RF-SCORE:    0.00 PKD
ROOT
HETATM    1  C   UNL     1      -6.089   7.726  73.462  1.00  0.00    -0.063 C  
HETATM    2  C   UNL     1      -6.555   8.628  72.347  1.00  0.00    -0.053 C  
ENDROOT
BRANCH   2   3
HETATM    3  O   UNL     1      -6.807   7.839  71.180  1.00  0.00    -0.047 OA 
BRANCH   3   4
HETATM    4  C   UNL     1      -7.523   8.636  70.238  1.00  0.00    -0.066 C  
BRANCH   4   5
HETATM    5  C   UNL     1      -8.852   8.022  69.852  1.00  0.00    -0.144 C  
BRANCH   5   6
HETATM    6  N   UNL     1      -9.954   8.193  70.785  1.00  0.00    -0.187 NA 
HETATM    7  C   UNL     1     -10.286   7.297  71.812  1.00  0.00    -0.194 A  
HETATM    8  N   UNL     1     -11.412   7.679  72.384  1.00  0.00    -0.319 NA 
HETATM    9  C   UNL     1     -10.923   9.190  70.753  1.00  0.00    -0.270 A  
HETATM   10  C   UNL     1     -11.158  10.342  69.970  1.00  0.00    -0.373 A  
HETATM   11  C   UNL     1     -11.806   8.835  71.765  1.00  0.00    -0.344 A  
HETATM   12  C   UNL     1     -12.281  11.128  70.220  1.00  0.00    -0.436 A  
HETATM   13  C   UNL     1     -12.941   9.634  72.010  1.00  0.00    -0.518 A  
HETATM   14  C   UNL     1     -13.166  10.782  71.236  1.00  0.00    -0.326 A  
BRANCH   7  15
HETATM   15  N   UNL     1      -9.615   6.132  72.094  1.00  0.00    -0.152 NA 
HETATM   16  N   UNL     1     -10.180   3.128  73.456  1.00  0.00    -0.119 NA 
HETATM   17  C   UNL     1      -9.969   3.853  71.019  1.00  0.00    -0.149 C  
HETATM   18  C   UNL     1     -10.579   4.515  73.744  1.00  0.00    -0.254 C  
HETATM   19  C   UNL     1      -9.294   5.231  70.974  1.00  0.00    -0.150 C  
HETATM   20  C   UNL     1     -11.343   2.247  73.564  1.00  0.00    -0.209 C  
HETATM   21  C   UNL     1      -9.496   5.564  73.440  1.00  0.00    -0.138 C  
HETATM   22  C   UNL     1      -9.486   2.965  72.173  1.00  0.00    -0.128 C  
ENDBRANCH   7  15
ENDBRANCH   5   6
ENDBRANCH   4   5
ENDBRANCH   3   4
ENDBRANCH   2   3
TORSDOF 5
ENDMDL
MODEL      190
REMARK 921   NORMALIZED FREE ENERGY PREDICTED BY IDOCK:   -3.27 KCAL/MOL
REMARK 922        TOTAL FREE ENERGY PREDICTED BY IDOCK:   -4.86 KCAL/MOL
REMARK 923 INTER-LIGAND FREE ENERGY PREDICTED BY IDOCK:   -5.00 KCAL/MOL
REMARK 924 INTRA-LIGAND FREE ENERGY PREDICTED BY IDOCK:    0.13 KCAL/MOL
REMARK 927      BINDING AFFINITY PREDICTED BY RF-SCORE:    0.00 PKD
ROOT
HETATM    1  C   UNL     1      -5.609  13.467  68.407  1.00  0.00    -0.094 C  
HETATM    2  C   UNL     1      -7.033  13.469  68.906  1.00  0.00    -0.108 C  
ENDROOT
BRANCH   2   3
HETATM    3  O   UNL     1      -7.613  12.182  68.673  1.00  0.00    -0.117 OA 
BRANCH   3   4
HETATM    4  C   UNL     1      -8.130  12.151  67.343  1.00  0.00    -0.171 C  
BRANCH   4   5
HETATM    5  C   UNL     1      -9.632  12.340  67.303  1.00  0.00    -0.187 C  
BRANCH   5   6
HETATM    6  N   UNL     1     -10.215  13.218  68.305  1.00  0.00    -0.246 NA 
HETATM    7  C   UNL     1     -11.085  12.808  69.326  1.00  0.00    -0.133 A  
HETATM    8  N   UNL     1     -11.532  13.867  69.975  1.00  0.00    -0.191 NA 
HETATM    9  C   UNL     1     -10.110  14.603  68.358  1.00  0.00    -0.237 A  
HETATM   10  C   UNL     1      -9.418  15.591  67.622  1.00  0.00    -0.208 A  
HETATM   11  C   UNL     1     -10.939  14.964  69.412  1.00  0.00    -0.271 A  
HETATM   12  C   UNL     1      -9.567  16.935  67.960  1.00  0.00    -0.247 A  
HETATM   13  C   UNL     1     -11.086  16.326  69.746  1.00  0.00    -0.337 A  
HETATM   14  C   UNL     1     -10.391  17.303  69.018  1.00  0.00    -0.330 A  
BRANCH   7  15
HETATM   15  N   UNL     1     -11.508  11.519  69.536  1.00  0.00    -0.290 NA 
HETATM   16  N   UNL     1     -10.619   8.788  71.254  1.00  0.00    -0.239 NA 
HETATM   17  C   UNL     1     -12.429  10.533  71.694  1.00  0.00    -0.443 C  
HETATM   18  C   UNL     1      -9.921   9.831  70.485  1.00  0.00    -0.193 C  
HETATM   19  C   UNL     1     -12.686  11.310  70.395  1.00  0.00    -0.130 C  
HETATM   20  C   UNL     1      -9.913   8.547  72.512  1.00  0.00    -0.252 C  
HETATM   21  C   UNL     1     -10.691  10.335  69.253  1.00  0.00    -0.234 C  
HETATM   22  C   UNL     1     -12.044   9.065  71.470  1.00  0.00    -0.340 C  
ENDBRANCH   7  15
ENDBRANCH   5   6
ENDBRANCH   4   5
ENDBRANCH   3   4
ENDBRANCH   2   3
TORSDOF 5
ENDMDL
MODEL      191
REMARK 921   NORMALIZED FREE ENERGY PREDICTED BY IDOCK:   -3.27 KCAL/MOL
REMARK 922        TOTAL FREE ENERGY PREDICTED BY IDOCK:   -4.86 KCAL/MOL
REMARK 923 INTER-LIGAND FREE ENERGY PREDICTED BY IDOCK:   -4.32 KCAL/MOL
REMARK 924 INTRA-LIGAND FREE ENERGY PREDICTED BY IDOCK:   -0.55 KCAL/MOL
REMARK 927      BINDING AFFINITY PREDICTED BY RF-SCORE:    0.00 PKD
ROOT
HETATM    1  C   UNL     1      -6.894  11.287  69.427  1.00  0.00    -0.121 C  
HETATM    2  C   UNL     1      -7.322  10.058  70.189  1.00  0.00    -0.163 C  
ENDROOT
BRANCH   2   3
HETATM    3  O   UNL     1      -7.903   9.119  69.277  1.00  0.00    -0.090 OA 
BRANCH   3   4
HETATM    4  C   UNL     1      -8.689   8.190  70.021  1.00  0.00    -0.131 C  
BRANCH   4   5
HETATM    5  C   UNL     1     -10.086   8.033  69.458  1.00  0.00    -0.196 C  
BRANCH   5   6
HETATM    6  N   UNL     1     -10.462   8.919  68.369  1.00  0.00    -0.207 NA 
HETATM    7  C   UNL     1     -10.397   8.594  67.007  1.00  0.00    -0.298 A  
HETATM    8  N   UNL     1     -10.680   9.661  66.284  1.00  0.00     0.041 NA 
HETATM    9  C   UNL     1     -10.834  10.255  68.476  1.00  0.00    -0.240 A  
HETATM   10  C   UNL     1     -11.059  11.157  69.540  1.00  0.00    -0.311 A  
HETATM   11  C   UNL     1     -10.964  10.675  67.158  1.00  0.00    -0.247 A  
HETATM   12  C   UNL     1     -11.417  12.475  69.263  1.00  0.00    -0.353 A  
HETATM   13  C   UNL     1     -11.324  12.011  66.887  1.00  0.00    -0.400 A  
HETATM   14  C   UNL     1     -11.555  12.901  67.946  1.00  0.00    -0.391 A  
BRANCH   7  15
HETATM   15  N   UNL     1      -9.976   7.389  66.500  1.00  0.00    -0.170 NA 
HETATM   16  N   UNL     1      -7.530   5.148  66.942  1.00  0.00    -0.086 NA 
HETATM   17  C   UNL     1      -9.971   5.137  67.685  1.00  0.00    -0.203 C  
HETATM   18  C   UNL     1      -7.633   6.616  66.922  1.00  0.00    -0.095 C  
HETATM   19  C   UNL     1     -10.739   6.182  66.863  1.00  0.00    -0.340 C  
HETATM   20  C   UNL     1      -6.713   4.726  68.079  1.00  0.00    -0.054 C  
HETATM   21  C   UNL     1      -8.652   7.168  65.911  1.00  0.00    -0.148 C  
HETATM   22  C   UNL     1      -8.828   4.463  66.916  1.00  0.00    -0.114 C  
ENDBRANCH   7  15
ENDBRANCH   5   6
ENDBRANCH   4   5
ENDBRANCH   3   4
ENDBRANCH   2   3
TORSDOF 5
ENDMDL
MODEL      192
REMARK 921   NORMALIZED FREE ENERGY PREDICTED BY IDOCK:   -3.25 KCAL/MOL
REMARK 922        TOTAL FREE ENERGY PREDICTED BY IDOCK:   -4.84 KCAL/MOL
REMARK 923 INTER-LIGAND FREE ENERGY PREDICTED BY IDOCK:   -4.27 KCAL/MOL
REMARK 924 INTRA-LIGAND FREE ENERGY PREDICTED BY IDOCK:   -0.57 KCAL/MOL
REMARK 927      BINDING AFFINITY PREDICTED BY RF-SCORE:    0.00 PKD
ROOT
HETATM    1  C   UNL     1      -6.819  10.418  65.108  1.00  0.00    -0.085 C  
HETATM    2  C   UNL     1      -7.906   9.385  65.266  1.00  0.00    -0.109 C  
ENDROOT
BRANCH   2   3
HETATM    3  O   UNL     1      -8.431   9.456  66.597  1.00  0.00    -0.124 OA 
BRANCH   3   4
HETATM    4  C   UNL     1      -7.361   9.251  67.518  1.00  0.00    -0.087 C  
BRANCH   4   5
HETATM    5  C   UNL     1      -7.458   7.919  68.231  1.00  0.00    -0.104 C  
BRANCH   5   6
HETATM    6  N   UNL     1      -8.650   7.124  67.985  1.00  0.00    -0.128 NA 
HETATM    7  C   UNL     1      -9.723   6.982  68.877  1.00  0.00    -0.144 A  
HETATM    8  N   UNL     1     -10.574   6.090  68.406  1.00  0.00    -0.235 NA 
HETATM    9  C   UNL     1      -8.880   6.286  66.898  1.00  0.00    -0.115 A  
HETATM   10  C   UNL     1      -8.193   5.973  65.704  1.00  0.00    -0.139 A  
HETATM   11  C   UNL     1     -10.087   5.668  67.198  1.00  0.00    -0.183 A  
HETATM   12  C   UNL     1      -8.735   5.041  64.821  1.00  0.00    -0.149 A  
HETATM   13  C   UNL     1     -10.627   4.724  66.301  1.00  0.00    -0.246 A  
HETATM   14  C   UNL     1      -9.946   4.422  65.112  1.00  0.00    -0.191 A  
BRANCH   7  15
HETATM   15  N   UNL     1      -9.811   7.581  70.109  1.00  0.00    -0.180 NA 
HETATM   16  N   UNL     1     -12.025   9.252  71.982  1.00  0.00    -0.352 NA 
HETATM   17  C   UNL     1     -11.226   6.830  72.087  1.00  0.00    -0.294 C  
HETATM   18  C   UNL     1     -11.644   9.225  70.561  1.00  0.00    -0.217 C  
HETATM   19  C   UNL     1      -9.917   6.711  71.294  1.00  0.00    -0.180 C  
HETATM   20  C   UNL     1     -13.483   9.249  72.103  1.00  0.00    -0.473 C  
HETATM   21  C   UNL     1     -10.145   8.995  70.309  1.00  0.00    -0.198 C  
HETATM   22  C   UNL     1     -11.407   8.186  72.781  1.00  0.00    -0.336 C  
ENDBRANCH   7  15
ENDBRANCH   5   6
ENDBRANCH   4   5
ENDBRANCH   3   4
ENDBRANCH   2   3
TORSDOF 5
ENDMDL
MODEL      193
REMARK 921   NORMALIZED FREE ENERGY PREDICTED BY IDOCK:   -3.24 KCAL/MOL
REMARK 922        TOTAL FREE ENERGY PREDICTED BY IDOCK:   -4.82 KCAL/MOL
REMARK 923 INTER-LIGAND FREE ENERGY PREDICTED BY IDOCK:   -4.38 KCAL/MOL
REMARK 924 INTRA-LIGAND FREE ENERGY PREDICTED BY IDOCK:   -0.45 KCAL/MOL
REMARK 927      BINDING AFFINITY PREDICTED BY RF-SCORE:    0.00 PKD
ROOT
HETATM    1  C   UNL     1     -13.130   9.402  72.045  1.00  0.00    -0.516 C  
HETATM    2  C   UNL     1     -12.413  10.513  71.318  1.00  0.00    -0.419 C  
ENDROOT
BRANCH   2   3
HETATM    3  O   UNL     1     -12.932  10.614  69.988  1.00  0.00    -0.173 OA 
BRANCH   3   4
HETATM    4  C   UNL     1     -11.844  10.823  69.089  1.00  0.00    -0.275 C  
BRANCH   4   5
HETATM    5  C   UNL     1     -10.553  10.211  69.593  1.00  0.00    -0.257 C  
BRANCH   5   6
HETATM    6  N   UNL     1      -9.371  10.392  68.767  1.00  0.00    -0.167 NA 
HETATM    7  C   UNL     1      -8.538   9.358  68.315  1.00  0.00    -0.120 A  
HETATM    8  N   UNL     1      -7.486   9.872  67.707  1.00  0.00    -0.089 NA 
HETATM    9  C   UNL     1      -8.800  11.602  68.387  1.00  0.00    -0.161 A  
HETATM   10  C   UNL     1      -9.133  12.966  68.541  1.00  0.00    -0.049 A  
HETATM   11  C   UNL     1      -7.635  11.232  67.727  1.00  0.00    -0.104 A  
HETATM   12  C   UNL     1      -8.287  13.945  68.024  1.00  0.00    -0.166 A  
HETATM   13  C   UNL     1      -6.784  12.230  67.208  1.00  0.00    -0.143 A  
HETATM   14  C   UNL     1      -7.122  13.583  67.357  1.00  0.00    -0.098 A  
BRANCH   7  15
HETATM   15  N   UNL     1      -8.722   8.022  68.576  1.00  0.00    -0.131 NA 
HETATM   16  N   UNL     1     -10.204   6.043  70.831  1.00  0.00    -0.199 NA 
HETATM   17  C   UNL     1     -10.905   6.719  68.472  1.00  0.00    -0.280 C  
HETATM   18  C   UNL     1      -9.426   7.291  70.864  1.00  0.00    -0.159 C  
HETATM   19  C   UNL     1      -9.679   7.279  67.738  1.00  0.00    -0.140 C  
HETATM   20  C   UNL     1     -11.373   6.166  71.701  1.00  0.00    -0.284 C  
HETATM   21  C   UNL     1      -8.301   7.368  69.818  1.00  0.00    -0.134 C  
HETATM   22  C   UNL     1     -10.571   5.609  69.477  1.00  0.00    -0.314 C  
ENDBRANCH   7  15
ENDBRANCH   5   6
ENDBRANCH   4   5
ENDBRANCH   3   4
ENDBRANCH   2   3
TORSDOF 5
ENDMDL
MODEL      194
REMARK 921   NORMALIZED FREE ENERGY PREDICTED BY IDOCK:   -3.22 KCAL/MOL
REMARK 922        TOTAL FREE ENERGY PREDICTED BY IDOCK:   -4.79 KCAL/MOL
REMARK 923 INTER-LIGAND FREE ENERGY PREDICTED BY IDOCK:   -4.55 KCAL/MOL
REMARK 924 INTRA-LIGAND FREE ENERGY PREDICTED BY IDOCK:   -0.25 KCAL/MOL
REMARK 927      BINDING AFFINITY PREDICTED BY RF-SCORE:    0.00 PKD
ROOT
HETATM    1  C   UNL     1      -5.125  14.144  73.345  1.00  0.00    -0.366 C  
HETATM    2  C   UNL     1      -5.998  14.411  72.143  1.00  0.00     0.239 C  
ENDROOT
BRANCH   2   3
HETATM    3  O   UNL     1      -5.214  14.268  70.954  1.00  0.00    -0.111 OA 
BRANCH   3   4
HETATM    4  C   UNL     1      -5.558  15.319  70.053  1.00  0.00    -0.126 C  
BRANCH   4   5
HETATM    5  C   UNL     1      -7.040  15.353  69.744  1.00  0.00    -0.139 C  
BRANCH   5   6
HETATM    6  N   UNL     1      -7.456  16.134  68.590  1.00  0.00    -0.168 NA 
HETATM    7  C   UNL     1      -8.488  15.781  67.708  1.00  0.00    -0.155 A  
HETATM    8  N   UNL     1      -8.517  16.632  66.700  1.00  0.00    -0.231 NA 
HETATM    9  C   UNL     1      -6.844  17.282  68.100  1.00  0.00    -0.182 A  
HETATM   10  C   UNL     1      -5.772  18.106  68.509  1.00  0.00    -0.179 A  
HETATM   11  C   UNL     1      -7.537  17.560  66.928  1.00  0.00    -0.213 A  
HETATM   12  C   UNL     1      -5.412  19.206  67.733  1.00  0.00    -0.176 A  
HETATM   13  C   UNL     1      -7.165  18.673  66.148  1.00  0.00    -0.296 A  
HETATM   14  C   UNL     1      -6.105  19.494  66.562  1.00  0.00    -0.168 A  
BRANCH   7  15
HETATM   15  N   UNL     1      -9.262  14.651  67.807  1.00  0.00    -0.192 NA 
HETATM   16  N   UNL     1     -12.017  13.318  66.452  1.00  0.00    -0.403 NA 
HETATM   17  C   UNL     1      -9.544  12.819  66.063  1.00  0.00    -0.182 C  
HETATM   18  C   UNL     1     -11.590  14.658  66.885  1.00  0.00    -0.362 C  
HETATM   19  C   UNL     1      -8.737  13.400  67.232  1.00  0.00    -0.218 C  
HETATM   20  C   UNL     1     -12.668  13.405  65.146  1.00  0.00    -0.399 C  
HETATM   21  C   UNL     1     -10.691  14.667  68.133  1.00  0.00    -0.242 C  
HETATM   22  C   UNL     1     -10.939  12.321  66.462  1.00  0.00    -0.279 C  
ENDBRANCH   7  15
ENDBRANCH   5   6
ENDBRANCH   4   5
ENDBRANCH   3   4
ENDBRANCH   2   3
TORSDOF 5
ENDMDL
MODEL      195
REMARK 921   NORMALIZED FREE ENERGY PREDICTED BY IDOCK:   -3.19 KCAL/MOL
REMARK 922        TOTAL FREE ENERGY PREDICTED BY IDOCK:   -4.75 KCAL/MOL
REMARK 923 INTER-LIGAND FREE ENERGY PREDICTED BY IDOCK:   -4.22 KCAL/MOL
REMARK 924 INTRA-LIGAND FREE ENERGY PREDICTED BY IDOCK:   -0.53 KCAL/MOL
REMARK 927      BINDING AFFINITY PREDICTED BY RF-SCORE:    0.00 PKD
ROOT
HETATM    1  C   UNL     1      -8.015   8.555  64.344  1.00  0.00    -0.147 C  
HETATM    2  C   UNL     1      -7.311   9.057  65.580  1.00  0.00    -0.086 C  
ENDROOT
BRANCH   2   3
HETATM    3  O   UNL     1      -8.277   9.279  66.613  1.00  0.00    -0.113 OA 
BRANCH   3   4
HETATM    4  C   UNL     1      -8.228   8.183  67.525  1.00  0.00    -0.123 C  
BRANCH   4   5
HETATM    5  C   UNL     1      -9.605   7.664  67.880  1.00  0.00    -0.144 C  
BRANCH   5   6
HETATM    6  N   UNL     1     -10.114   7.992  69.201  1.00  0.00    -0.196 NA 
HETATM    7  C   UNL     1     -10.000   7.173  70.335  1.00  0.00    -0.187 A  
HETATM    8  N   UNL     1     -10.683   7.703  71.332  1.00  0.00    -0.222 NA 
HETATM    9  C   UNL     1     -10.890   9.095  69.543  1.00  0.00    -0.180 A  
HETATM   10  C   UNL     1     -11.363  10.242  68.868  1.00  0.00    -0.230 A  
HETATM   11  C   UNL     1     -11.217   8.877  70.875  1.00  0.00    -0.279 A  
HETATM   12  C   UNL     1     -12.159  11.163  69.547  1.00  0.00    -0.396 A  
HETATM   13  C   UNL     1     -12.025   9.812  71.554  1.00  0.00    -0.488 A  
HETATM   14  C   UNL     1     -12.486  10.955  70.883  1.00  0.00    -0.507 A  
BRANCH   7  15
HETATM   15  N   UNL     1      -9.384   5.947  70.366  1.00  0.00    -0.157 NA 
HETATM   16  N   UNL     1      -8.383   3.538  68.270  1.00  0.00    -0.081 NA 
HETATM   17  C   UNL     1      -7.071   5.363  69.479  1.00  0.00    -0.063 C  
HETATM   18  C   UNL     1      -9.554   4.421  68.389  1.00  0.00    -0.140 C  
HETATM   19  C   UNL     1      -7.934   5.909  70.625  1.00  0.00    -0.110 C  
HETATM   20  C   UNL     1      -7.930   3.504  66.880  1.00  0.00    -0.080 C  
HETATM   21  C   UNL     1      -9.982   4.718  69.836  1.00  0.00    -0.236 C  
HETATM   22  C   UNL     1      -7.293   3.872  69.194  1.00  0.00    -0.054 C  
ENDBRANCH   7  15
ENDBRANCH   5   6
ENDBRANCH   4   5
ENDBRANCH   3   4
ENDBRANCH   2   3
TORSDOF 5
ENDMDL
MODEL      196
REMARK 921   NORMALIZED FREE ENERGY PREDICTED BY IDOCK:   -3.19 KCAL/MOL
REMARK 922        TOTAL FREE ENERGY PREDICTED BY IDOCK:   -4.75 KCAL/MOL
REMARK 923 INTER-LIGAND FREE ENERGY PREDICTED BY IDOCK:   -4.21 KCAL/MOL
REMARK 924 INTRA-LIGAND FREE ENERGY PREDICTED BY IDOCK:   -0.54 KCAL/MOL
REMARK 927      BINDING AFFINITY PREDICTED BY RF-SCORE:    0.00 PKD
ROOT
HETATM    1  C   UNL     1      -6.236   8.695  72.178  1.00  0.00    -0.073 C  
HETATM    2  C   UNL     1      -5.791   9.306  70.872  1.00  0.00    -0.055 C  
ENDROOT
BRANCH   2   3
HETATM    3  O   UNL     1      -6.780   9.043  69.871  1.00  0.00    -0.043 OA 
BRANCH   3   4
HETATM    4  C   UNL     1      -6.799   7.641  69.607  1.00  0.00    -0.044 C  
BRANCH   4   5
HETATM    5  C   UNL     1      -8.164   7.153  69.171  1.00  0.00    -0.122 C  
BRANCH   5   6
HETATM    6  N   UNL     1      -9.021   8.109  68.490  1.00  0.00    -0.137 NA 
HETATM    7  C   UNL     1     -10.248   8.582  68.978  1.00  0.00    -0.207 A  
HETATM    8  N   UNL     1     -10.830   9.329  68.059  1.00  0.00    -0.163 NA 
HETATM    9  C   UNL     1      -8.839   8.623  67.210  1.00  0.00    -0.133 A  
HETATM   10  C   UNL     1      -7.843   8.519  66.215  1.00  0.00    -0.098 A  
HETATM   11  C   UNL     1      -9.983   9.379  66.985  1.00  0.00    -0.221 A  
HETATM   12  C   UNL     1      -8.008   9.184  65.001  1.00  0.00    -0.120 A  
HETATM   13  C   UNL     1     -10.144  10.046  65.753  1.00  0.00    -0.320 A  
HETATM   14  C   UNL     1      -9.148   9.947  64.770  1.00  0.00    -0.283 A  
BRANCH   7  15
HETATM   15  N   UNL     1     -10.817   8.220  70.174  1.00  0.00    -0.241 NA 
HETATM   16  N   UNL     1     -10.605   5.794  72.470  1.00  0.00    -0.210 NA 
HETATM   17  C   UNL     1      -9.700   8.180  72.460  1.00  0.00    -0.357 C  
HETATM   18  C   UNL     1     -10.576   5.869  71.001  1.00  0.00    -0.250 C  
HETATM   19  C   UNL     1     -10.438   8.980  71.378  1.00  0.00    -0.324 C  
HETATM   20  C   UNL     1      -9.539   4.911  72.940  1.00  0.00    -0.137 C  
HETATM   21  C   UNL     1     -11.499   6.942  70.400  1.00  0.00    -0.338 C  
HETATM   22  C   UNL     1     -10.563   7.104  73.131  1.00  0.00    -0.336 C  
ENDBRANCH   7  15
ENDBRANCH   5   6
ENDBRANCH   4   5
ENDBRANCH   3   4
ENDBRANCH   2   3
TORSDOF 5
ENDMDL
MODEL      197
REMARK 921   NORMALIZED FREE ENERGY PREDICTED BY IDOCK:   -3.15 KCAL/MOL
REMARK 922        TOTAL FREE ENERGY PREDICTED BY IDOCK:   -4.70 KCAL/MOL
REMARK 923 INTER-LIGAND FREE ENERGY PREDICTED BY IDOCK:   -4.39 KCAL/MOL
REMARK 924 INTRA-LIGAND FREE ENERGY PREDICTED BY IDOCK:   -0.31 KCAL/MOL
REMARK 927      BINDING AFFINITY PREDICTED BY RF-SCORE:    0.00 PKD
ROOT
HETATM    1  C   UNL     1     -12.041  14.469  70.203  1.00  0.00    -0.394 C  
HETATM    2  C   UNL     1     -12.291  13.100  70.785  1.00  0.00    -0.321 C  
ENDROOT
BRANCH   2   3
HETATM    3  O   UNL     1     -12.086  12.114  69.768  1.00  0.00    -0.290 OA 
BRANCH   3   4
HETATM    4  C   UNL     1     -12.017  10.831  70.387  1.00  0.00    -0.357 C  
BRANCH   4   5
HETATM    5  C   UNL     1     -11.071   9.892  69.668  1.00  0.00    -0.241 C  
BRANCH   5   6
HETATM    6  N   UNL     1      -9.823   9.570  70.339  1.00  0.00    -0.257 NA 
HETATM    7  C   UNL     1      -8.553  10.007  69.932  1.00  0.00    -0.146 A  
HETATM    8  N   UNL     1      -7.628   9.429  70.675  1.00  0.00    -0.161 NA 
HETATM    9  C   UNL     1      -9.655   8.696  71.407  1.00  0.00    -0.243 A  
HETATM   10  C   UNL     1     -10.514   7.935  72.231  1.00  0.00    -0.322 A  
HETATM   11  C   UNL     1      -8.279   8.641  71.586  1.00  0.00    -0.144 A  
HETATM   12  C   UNL     1      -9.975   7.128  73.231  1.00  0.00    -0.296 A  
HETATM   13  C   UNL     1      -7.741   7.820  72.598  1.00  0.00    -0.129 A  
HETATM   14  C   UNL     1      -8.598   7.073  73.420  1.00  0.00    -0.154 A  
BRANCH   7  15
HETATM   15  N   UNL     1      -8.303  10.811  68.847  1.00  0.00    -0.146 NA 
HETATM   16  N   UNL     1      -9.905  12.122  66.218  1.00  0.00    -0.229 NA 
HETATM   17  C   UNL     1      -9.188  13.161  68.435  1.00  0.00    -0.141 C  
HETATM   18  C   UNL     1      -9.902  10.829  66.922  1.00  0.00    -0.187 C  
HETATM   19  C   UNL     1      -8.131  12.255  69.082  1.00  0.00     0.429 C  
HETATM   20  C   UNL     1     -11.282  12.536  65.952  1.00  0.00    -0.320 C  
HETATM   21  C   UNL     1      -8.526  10.400  67.458  1.00  0.00    -0.115 C  
HETATM   22  C   UNL     1      -9.139  13.171  66.902  1.00  0.00    -0.229 C  
ENDBRANCH   7  15
ENDBRANCH   5   6
ENDBRANCH   4   5
ENDBRANCH   3   4
ENDBRANCH   2   3
TORSDOF 5
ENDMDL
MODEL      198
REMARK 921   NORMALIZED FREE ENERGY PREDICTED BY IDOCK:   -3.10 KCAL/MOL
REMARK 922        TOTAL FREE ENERGY PREDICTED BY IDOCK:   -4.64 KCAL/MOL
REMARK 923 INTER-LIGAND FREE ENERGY PREDICTED BY IDOCK:   -4.00 KCAL/MOL
REMARK 924 INTRA-LIGAND FREE ENERGY PREDICTED BY IDOCK:   -0.64 KCAL/MOL
REMARK 927      BINDING AFFINITY PREDICTED BY RF-SCORE:    0.00 PKD
ROOT
HETATM    1  C   UNL     1     -11.609  11.529  68.162  1.00  0.00    -0.378 C  
HETATM    2  C   UNL     1     -10.471  10.586  67.857  1.00  0.00    -0.210 C  
ENDROOT
BRANCH   2   3
HETATM    3  O   UNL     1     -10.995   9.400  67.250  1.00  0.00    -0.183 OA 
BRANCH   3   4
HETATM    4  C   UNL     1      -9.998   8.381  67.309  1.00  0.00    -0.227 C  
BRANCH   4   5
HETATM    5  C   UNL     1     -10.568   7.037  67.712  1.00  0.00    -0.233 C  
BRANCH   5   6
HETATM    6  N   UNL     1     -10.166   6.510  69.006  1.00  0.00    -0.167 NA 
HETATM    7  C   UNL     1      -9.476   5.306  69.206  1.00  0.00    -0.134 A  
HETATM    8  N   UNL     1      -9.387   5.058  70.499  1.00  0.00    -0.147 NA 
HETATM    9  C   UNL     1     -10.490   7.034  70.253  1.00  0.00    -0.208 A  
HETATM   10  C   UNL     1     -11.169   8.182  70.719  1.00  0.00    -0.275 A  
HETATM   11  C   UNL     1      -9.983   6.104  71.151  1.00  0.00    -0.183 A  
HETATM   12  C   UNL     1     -11.326   8.382  72.089  1.00  0.00    -0.437 A  
HETATM   13  C   UNL     1     -10.148   6.313  72.536  1.00  0.00    -0.193 A  
HETATM   14  C   UNL     1     -10.815   7.458  72.995  1.00  0.00    -0.423 A  
BRANCH   7  15
HETATM   15  N   UNL     1      -9.069   4.452  68.211  1.00  0.00    -0.120 NA 
HETATM   16  N   UNL     1      -6.316   2.845  67.193  1.00  0.00    -0.035 NA 
HETATM   17  C   UNL     1      -8.370   2.018  68.462  1.00  0.00    -0.078 C  
HETATM   18  C   UNL     1      -6.628   4.179  67.731  1.00  0.00    -0.042 C  
HETATM   19  C   UNL     1      -9.498   3.045  68.291  1.00  0.00    -0.154 C  
HETATM   20  C   UNL     1      -5.130   2.309  67.860  1.00  0.00    -0.012 C  
HETATM   21  C   UNL     1      -7.981   4.748  67.274  1.00  0.00    -0.102 C  
HETATM   22  C   UNL     1      -7.444   1.907  67.244  1.00  0.00    -0.059 C  
ENDBRANCH   7  15
ENDBRANCH   5   6
ENDBRANCH   4   5
ENDBRANCH   3   4
ENDBRANCH   2   3
TORSDOF 5
ENDMDL
MODEL      199
REMARK 921   NORMALIZED FREE ENERGY PREDICTED BY IDOCK:   -3.02 KCAL/MOL
REMARK 922        TOTAL FREE ENERGY PREDICTED BY IDOCK:   -4.54 KCAL/MOL
REMARK 923 INTER-LIGAND FREE ENERGY PREDICTED BY IDOCK:   -3.98 KCAL/MOL
REMARK 924 INTRA-LIGAND FREE ENERGY PREDICTED BY IDOCK:   -0.56 KCAL/MOL
REMARK 927      BINDING AFFINITY PREDICTED BY RF-SCORE:    0.00 PKD
ROOT
HETATM    1  C   UNL     1     -10.265   8.159  72.316  1.00  0.00    -0.348 C  
HETATM    2  C   UNL     1     -10.305   6.726  71.847  1.00  0.00    -0.197 C  
ENDROOT
BRANCH   2   3
HETATM    3  O   UNL     1      -9.120   6.446  71.095  1.00  0.00    -0.149 OA 
BRANCH   3   4
HETATM    4  C   UNL     1      -8.575   7.680  70.629  1.00  0.00    -0.135 C  
BRANCH   4   5
HETATM    5  C   UNL     1      -8.146   7.611  69.178  1.00  0.00    -0.125 C  
BRANCH   5   6
HETATM    6  N   UNL     1      -9.067   8.149  68.191  1.00  0.00    -0.135 NA 
HETATM    7  C   UNL     1      -9.341   7.569  66.943  1.00  0.00    -0.157 A  
HETATM    8  N   UNL     1     -10.113   8.377  66.241  1.00  0.00    -0.179 NA 
HETATM    9  C   UNL     1      -9.735   9.368  68.255  1.00  0.00    -0.145 A  
HETATM   10  C   UNL     1      -9.855  10.402  69.210  1.00  0.00    -0.243 A  
HETATM   11  C   UNL     1     -10.376   9.467  67.026  1.00  0.00    -0.252 A  
HETATM   12  C   UNL     1     -10.625  11.526  68.916  1.00  0.00    -0.236 A  
HETATM   13  C   UNL     1     -11.150  10.608  66.736  1.00  0.00    -0.103 A  
HETATM   14  C   UNL     1     -11.274  11.629  67.690  1.00  0.00    -0.345 A  
BRANCH   7  15
HETATM   15  N   UNL     1      -8.788   6.403  66.474  1.00  0.00    -0.131 NA 
HETATM   16  N   UNL     1      -9.628   3.742  64.628  1.00  0.00    -0.162 NA 
HETATM   17  C   UNL     1      -8.256   5.816  64.056  1.00  0.00    -0.084 C  
HETATM   18  C   UNL     1     -10.277   4.562  65.662  1.00  0.00    -0.253 C  
HETATM   19  C   UNL     1      -7.824   6.494  65.363  1.00  0.00    -0.106 C  
HETATM   20  C   UNL     1     -10.563   3.504  63.528  1.00  0.00    -0.261 C  
HETATM   21  C   UNL     1      -9.327   5.071  66.760  1.00  0.00    -0.135 C  
HETATM   22  C   UNL     1      -8.351   4.288  64.153  1.00  0.00    -0.102 C  
ENDBRANCH   7  15
ENDBRANCH   5   6
ENDBRANCH   4   5
ENDBRANCH   3   4
ENDBRANCH   2   3
TORSDOF 5
ENDMDL
MODEL      200
REMARK 921   NORMALIZED FREE ENERGY PREDICTED BY IDOCK:   -3.01 KCAL/MOL
REMARK 922        TOTAL FREE ENERGY PREDICTED BY IDOCK:   -4.53 KCAL/MOL
REMARK 923 INTER-LIGAND FREE ENERGY PREDICTED BY IDOCK:   -4.12 KCAL/MOL
REMARK 924 INTRA-LIGAND FREE ENERGY PREDICTED BY IDOCK:   -0.41 KCAL/MOL
REMARK 927      BINDING AFFINITY PREDICTED BY RF-SCORE:    0.00 PKD
ROOT
HETATM    1  C   UNL     1      -8.004   5.172  68.305  1.00  0.00    -0.087 C  
HETATM    2  C   UNL     1      -9.182   4.859  69.194  1.00  0.00    -0.118 C  
ENDROOT
BRANCH   2   3
HETATM    3  O   UNL     1      -9.964   6.045  69.370  1.00  0.00    -0.158 OA 
BRANCH   3   4
HETATM    4  C   UNL     1      -9.084   7.133  69.647  1.00  0.00    -0.140 C  
BRANCH   4   5
HETATM    5  C   UNL     1      -9.223   7.643  71.066  1.00  0.00    -0.148 C  
BRANCH   5   6
HETATM    6  N   UNL     1     -10.470   8.306  71.410  1.00  0.00    -0.211 NA 
HETATM    7  C   UNL     1     -11.327   7.920  72.451  1.00  0.00    -0.369 A  
HETATM    8  N   UNL     1     -12.430   8.644  72.407  1.00  0.00    -0.387 NA 
HETATM    9  C   UNL     1     -11.080   9.342  70.712  1.00  0.00    -0.300 A  
HETATM   10  C   UNL     1     -10.748  10.135  69.590  1.00  0.00    -0.295 A  
HETATM   11  C   UNL     1     -12.292   9.524  71.367  1.00  0.00    -0.364 A  
HETATM   12  C   UNL     1     -11.642  11.106  69.143  1.00  0.00    -0.393 A  
HETATM   13  C   UNL     1     -13.191  10.507  70.907  1.00  0.00    -0.281 A  
HETATM   14  C   UNL     1     -12.854  11.297  69.798  1.00  0.00     0.196 A  
BRANCH   7  15
HETATM   15  N   UNL     1     -11.111   6.866  73.305  1.00  0.00    -0.219 NA 
HETATM   16  N   UNL     1      -9.629   3.866  73.332  1.00  0.00    -0.110 NA 
HETATM   17  C   UNL     1      -8.888   6.113  74.289  1.00  0.00    -0.135 C  
HETATM   18  C   UNL     1     -10.444   4.638  72.380  1.00  0.00    -0.185 C  
HETATM   19  C   UNL     1     -10.111   7.037  74.374  1.00  0.00    -0.053 C  
HETATM   20  C   UNL     1      -8.486   3.275  72.637  1.00  0.00    -0.084 C  
HETATM   21  C   UNL     1     -11.544   5.493  73.032  1.00  0.00    -0.170 C  
HETATM   22  C   UNL     1      -9.216   4.631  74.514  1.00  0.00    -0.110 C  
ENDBRANCH   7  15
ENDBRANCH   5   6
ENDBRANCH   4   5
ENDBRANCH   3   4
ENDBRANCH   2   3
TORSDOF 5
ENDMDL
MODEL      201
REMARK 921   NORMALIZED FREE ENERGY PREDICTED BY IDOCK:   -3.00 KCAL/MOL
REMARK 922        TOTAL FREE ENERGY PREDICTED BY IDOCK:   -4.51 KCAL/MOL
REMARK 923 INTER-LIGAND FREE ENERGY PREDICTED BY IDOCK:   -3.84 KCAL/MOL
REMARK 924 INTRA-LIGAND FREE ENERGY PREDICTED BY IDOCK:   -0.67 KCAL/MOL
REMARK 927      BINDING AFFINITY PREDICTED BY RF-SCORE:    0.00 PKD
ROOT
HETATM    1  C   UNL     1      -5.341   7.367  66.926  1.00  0.00    -0.023 C  
HETATM    2  C   UNL     1      -5.440   8.590  67.803  1.00  0.00    -0.035 C  
ENDROOT
BRANCH   2   3
HETATM    3  O   UNL     1      -6.636   9.306  67.476  1.00  0.00    -0.063 OA 
BRANCH   3   4
HETATM    4  C   UNL     1      -6.716   9.433  66.058  1.00  0.00    -0.081 C  
BRANCH   4   5
HETATM    5  C   UNL     1      -8.132   9.669  65.577  1.00  0.00    -0.122 C  
BRANCH   5   6
HETATM    6  N   UNL     1      -9.172   8.831  66.150  1.00  0.00    -0.200 NA 
HETATM    7  C   UNL     1     -10.242   9.293  66.930  1.00  0.00    -0.256 A  
HETATM    8  N   UNL     1     -10.923   8.265  67.400  1.00  0.00    -0.012 NA 
HETATM    9  C   UNL     1      -9.226   7.441  66.126  1.00  0.00    -0.099 A  
HETATM   10  C   UNL     1      -8.454   6.413  65.541  1.00  0.00    -0.141 A  
HETATM   11  C   UNL     1     -10.330   7.133  66.910  1.00  0.00    -0.279 A  
HETATM   12  C   UNL     1      -8.807   5.081  65.750  1.00  0.00    -0.139 A  
HETATM   13  C   UNL     1     -10.679   5.783  67.119  1.00  0.00    -0.358 A  
HETATM   14  C   UNL     1      -9.915   4.765  66.530  1.00  0.00    -0.262 A  
BRANCH   7  15
HETATM   15  N   UNL     1     -10.471  10.606  67.261  1.00  0.00    -0.231 NA 
HETATM   16  N   UNL     1      -8.763  13.414  67.893  1.00  0.00    -0.176 NA 
HETATM   17  C   UNL     1     -10.038  12.656  65.816  1.00  0.00    -0.284 C  
HETATM   18  C   UNL     1      -8.614  11.986  68.217  1.00  0.00    -0.174 C  
HETATM   19  C   UNL     1     -10.976  11.506  66.209  1.00  0.00    -0.275 C  
HETATM   20  C   UNL     1      -7.478  13.958  67.457  1.00  0.00    -0.169 C  
HETATM   21  C   UNL     1      -9.940  11.249  68.466  1.00  0.00    -0.202 C  
HETATM   22  C   UNL     1      -9.833  13.693  66.927  1.00  0.00    -0.261 C  
ENDBRANCH   7  15
ENDBRANCH   5   6
ENDBRANCH   4   5
ENDBRANCH   3   4
ENDBRANCH   2   3
TORSDOF 5
ENDMDL
MODEL      202
REMARK 921   NORMALIZED FREE ENERGY PREDICTED BY IDOCK:   -2.98 KCAL/MOL
REMARK 922        TOTAL FREE ENERGY PREDICTED BY IDOCK:   -4.49 KCAL/MOL
REMARK 923 INTER-LIGAND FREE ENERGY PREDICTED BY IDOCK:   -3.70 KCAL/MOL
REMARK 924 INTRA-LIGAND FREE ENERGY PREDICTED BY IDOCK:   -0.79 KCAL/MOL
REMARK 927      BINDING AFFINITY PREDICTED BY RF-SCORE:    0.00 PKD
ROOT
HETATM    1  C   UNL     1      -6.192   7.953  73.198  1.00  0.00    -0.069 C  
HETATM    2  C   UNL     1      -5.696   8.781  72.039  1.00  0.00    -0.060 C  
ENDROOT
BRANCH   2   3
HETATM    3  O   UNL     1      -6.298   8.304  70.831  1.00  0.00    -0.036 OA 
BRANCH   3   4
HETATM    4  C   UNL     1      -6.073   6.899  70.735  1.00  0.00    -0.032 C  
BRANCH   4   5
HETATM    5  C   UNL     1      -7.304   6.147  70.275  1.00  0.00    -0.088 C  
BRANCH   5   6
HETATM    6  N   UNL     1      -8.066   6.731  69.184  1.00  0.00    -0.119 NA 
HETATM    7  C   UNL     1      -9.268   7.439  69.329  1.00  0.00    -0.147 A  
HETATM    8  N   UNL     1      -9.765   7.714  68.137  1.00  0.00    -0.150 NA 
HETATM    9  C   UNL     1      -7.808   6.594  67.824  1.00  0.00    -0.112 A  
HETATM   10  C   UNL     1      -6.793   5.994  67.046  1.00  0.00    -0.063 A  
HETATM   11  C   UNL     1      -8.885   7.223  67.211  1.00  0.00    -0.124 A  
HETATM   12  C   UNL     1      -6.872   6.040  65.655  1.00  0.00    -0.056 A  
HETATM   13  C   UNL     1      -8.958   7.262  65.804  1.00  0.00    -0.052 A  
HETATM   14  C   UNL     1      -7.943   6.673  65.035  1.00  0.00    -0.124 A  
BRANCH   7  15
HETATM   15  N   UNL     1      -9.898   7.693  70.522  1.00  0.00    -0.183 NA 
HETATM   16  N   UNL     1     -12.204   9.753  71.804  1.00  0.00    -0.388 NA 
HETATM   17  C   UNL     1     -12.351   7.310  71.080  1.00  0.00    -0.381 C  
HETATM   18  C   UNL     1     -11.080   9.874  70.862  1.00  0.00    -0.348 C  
HETATM   19  C   UNL     1     -10.928   6.743  70.976  1.00  0.00    -0.255 C  
HETATM   20  C   UNL     1     -13.373  10.451  71.270  1.00  0.00    -0.246 C  
HETATM   21  C   UNL     1      -9.867   8.992  71.202  1.00  0.00    -0.300 C  
HETATM   22  C   UNL     1     -12.516   8.368  72.178  1.00  0.00    -0.370 C  
ENDBRANCH   7  15
ENDBRANCH   5   6
ENDBRANCH   4   5
ENDBRANCH   3   4
ENDBRANCH   2   3
TORSDOF 5
ENDMDL
MODEL      203
REMARK 921   NORMALIZED FREE ENERGY PREDICTED BY IDOCK:   -2.97 KCAL/MOL
REMARK 922        TOTAL FREE ENERGY PREDICTED BY IDOCK:   -4.46 KCAL/MOL
REMARK 923 INTER-LIGAND FREE ENERGY PREDICTED BY IDOCK:   -3.96 KCAL/MOL
REMARK 924 INTRA-LIGAND FREE ENERGY PREDICTED BY IDOCK:   -0.50 KCAL/MOL
REMARK 927      BINDING AFFINITY PREDICTED BY RF-SCORE:    0.00 PKD
ROOT
HETATM    1  C   UNL     1      -9.733  11.972  68.380  1.00  0.00    -0.199 C  
HETATM    2  C   UNL     1     -10.815  11.117  68.991  1.00  0.00    -0.231 C  
ENDROOT
BRANCH   2   3
HETATM    3  O   UNL     1     -10.209  10.099  69.794  1.00  0.00    -0.234 OA 
BRANCH   3   4
HETATM    4  C   UNL     1      -9.052   9.613  69.116  1.00  0.00    -0.154 C  
BRANCH   4   5
HETATM    5  C   UNL     1      -8.648   8.229  69.579  1.00  0.00    -0.134 C  
BRANCH   5   6
HETATM    6  N   UNL     1      -8.600   7.183  68.571  1.00  0.00    -0.124 NA 
HETATM    7  C   UNL     1      -9.358   6.003  68.597  1.00  0.00    -0.117 A  
HETATM    8  N   UNL     1      -8.978   5.213  67.610  1.00  0.00    -0.109 NA 
HETATM    9  C   UNL     1      -7.729   7.112  67.489  1.00  0.00    -0.111 A  
HETATM   10  C   UNL     1      -6.732   7.950  66.941  1.00  0.00    -0.068 A  
HETATM   11  C   UNL     1      -8.000   5.875  66.918  1.00  0.00    -0.102 A  
HETATM   12  C   UNL     1      -6.021   7.532  65.818  1.00  0.00    -0.038 A  
HETATM   13  C   UNL     1      -7.275   5.459  65.783  1.00  0.00    -0.069 A  
HETATM   14  C   UNL     1      -6.292   6.297  65.237  1.00  0.00    -0.038 A  
BRANCH   7  15
HETATM   15  N   UNL     1     -10.264   5.666  69.572  1.00  0.00    -0.225 NA 
HETATM   16  N   UNL     1     -10.682   5.960  72.879  1.00  0.00    -0.233 NA 
HETATM   17  C   UNL     1     -11.720   7.246  70.934  1.00  0.00    -0.348 C  
HETATM   18  C   UNL     1      -9.559   5.669  71.974  1.00  0.00    -0.151 C  
HETATM   19  C   UNL     1     -11.518   6.435  69.647  1.00  0.00    -0.378 C  
HETATM   20  C   UNL     1     -10.264   6.932  73.888  1.00  0.00    -0.367 C  
HETATM   21  C   UNL     1      -9.938   4.838  70.737  1.00  0.00    -0.221 C  
HETATM   22  C   UNL     1     -11.907   6.381  72.187  1.00  0.00    -0.314 C  
ENDBRANCH   7  15
ENDBRANCH   5   6
ENDBRANCH   4   5
ENDBRANCH   3   4
ENDBRANCH   2   3
TORSDOF 5
ENDMDL
MODEL      204
REMARK 921   NORMALIZED FREE ENERGY PREDICTED BY IDOCK:   -2.96 KCAL/MOL
REMARK 922        TOTAL FREE ENERGY PREDICTED BY IDOCK:   -4.45 KCAL/MOL
REMARK 923 INTER-LIGAND FREE ENERGY PREDICTED BY IDOCK:   -4.94 KCAL/MOL
REMARK 924 INTRA-LIGAND FREE ENERGY PREDICTED BY IDOCK:    0.49 KCAL/MOL
REMARK 927      BINDING AFFINITY PREDICTED BY RF-SCORE:    0.00 PKD
ROOT
HETATM    1  C   UNL     1     -12.202  14.182  69.519  1.00  0.00    -0.351 C  
HETATM    2  C   UNL     1     -12.139  12.677  69.440  1.00  0.00    -0.179 C  
ENDROOT
BRANCH   2   3
HETATM    3  O   UNL     1     -11.930  12.287  68.079  1.00  0.00    -0.425 OA 
BRANCH   3   4
HETATM    4  C   UNL     1     -11.428  10.952  68.060  1.00  0.00    -0.281 C  
BRANCH   4   5
HETATM    5  C   UNL     1      -9.925  10.902  67.881  1.00  0.00    -0.176 C  
BRANCH   5   6
HETATM    6  N   UNL     1      -9.416  10.072  66.801  1.00  0.00    -0.163 NA 
HETATM    7  C   UNL     1      -8.616   8.932  66.970  1.00  0.00    -0.116 A  
HETATM    8  N   UNL     1      -8.218   8.494  65.790  1.00  0.00    -0.118 NA 
HETATM    9  C   UNL     1      -9.529  10.321  65.438  1.00  0.00    -0.232 A  
HETATM   10  C   UNL     1     -10.172  11.294  64.641  1.00  0.00    -0.357 A  
HETATM   11  C   UNL     1      -8.775   9.315  64.847  1.00  0.00    -0.192 A  
HETATM   12  C   UNL     1     -10.051  11.239  63.253  1.00  0.00    -0.428 A  
HETATM   13  C   UNL     1      -8.656   9.268  63.443  1.00  0.00    -0.206 A  
HETATM   14  C   UNL     1      -9.303  10.232  62.655  1.00  0.00    -0.335 A  
BRANCH   7  15
HETATM   15  N   UNL     1      -8.204   8.426  68.178  1.00  0.00    -0.123 NA 
HETATM   16  N   UNL     1      -9.058   8.525  71.412  1.00  0.00    -0.185 NA 
HETATM   17  C   UNL     1      -9.422   6.731  69.633  1.00  0.00    -0.146 C  
HETATM   18  C   UNL     1      -8.993   9.489  70.303  1.00  0.00    -0.248 C  
HETATM   19  C   UNL     1      -8.472   7.005  68.459  1.00  0.00    -0.121 C  
HETATM   20  C   UNL     1     -10.314   8.696  72.141  1.00  0.00    -0.333 C  
HETATM   21  C   UNL     1      -7.828   9.256  69.326  1.00  0.00    -0.085 C  
HETATM   22  C   UNL     1      -8.849   7.131  70.999  1.00  0.00    -0.145 C  
ENDBRANCH   7  15
ENDBRANCH   5   6
ENDBRANCH   4   5
ENDBRANCH   3   4
ENDBRANCH   2   3
TORSDOF 5
ENDMDL
MODEL      205
REMARK 921   NORMALIZED FREE ENERGY PREDICTED BY IDOCK:   -2.95 KCAL/MOL
REMARK 922        TOTAL FREE ENERGY PREDICTED BY IDOCK:   -4.45 KCAL/MOL
REMARK 923 INTER-LIGAND FREE ENERGY PREDICTED BY IDOCK:   -4.26 KCAL/MOL
REMARK 924 INTRA-LIGAND FREE ENERGY PREDICTED BY IDOCK:   -0.19 KCAL/MOL
REMARK 927      BINDING AFFINITY PREDICTED BY RF-SCORE:    0.00 PKD
ROOT
HETATM    1  C   UNL     1      -6.620   3.101  66.383  1.00  0.00    -0.040 C  
HETATM    2  C   UNL     1      -7.620   3.898  67.182  1.00  0.00    -0.080 C  
ENDROOT
BRANCH   2   3
HETATM    3  O   UNL     1      -8.868   3.921  66.482  1.00  0.00    -0.115 OA 
BRANCH   3   4
HETATM    4  C   UNL     1      -9.656   4.996  66.991  1.00  0.00    -0.152 C  
BRANCH   4   5
HETATM    5  C   UNL     1      -8.838   5.977  67.805  1.00  0.00    -0.106 C  
BRANCH   5   6
HETATM    6  N   UNL     1      -9.082   7.391  67.575  1.00  0.00    -0.125 NA 
HETATM    7  C   UNL     1      -9.676   8.267  68.497  1.00  0.00    -0.156 A  
HETATM    8  N   UNL     1      -9.872   9.441  67.927  1.00  0.00    -0.158 NA 
HETATM    9  C   UNL     1      -8.885   8.086  66.387  1.00  0.00    -0.157 A  
HETATM   10  C   UNL     1      -8.354   7.777  65.115  1.00  0.00    -0.113 A  
HETATM   11  C   UNL     1      -9.385   9.355  66.651  1.00  0.00    -0.163 A  
HETATM   12  C   UNL     1      -8.329   8.755  64.121  1.00  0.00    -0.155 A  
HETATM   13  C   UNL     1      -9.358  10.337  65.640  1.00  0.00    -0.241 A  
HETATM   14  C   UNL     1      -8.822  10.029  64.381  1.00  0.00    -0.239 A  
BRANCH   7  15
HETATM   15  N   UNL     1     -10.105   7.920  69.754  1.00  0.00    -0.195 NA 
HETATM   16  N   UNL     1     -12.242   8.975  72.103  1.00  0.00    -0.369 NA 
HETATM   17  C   UNL     1     -12.411   7.070  70.414  1.00  0.00    -0.061 C  
HETATM   18  C   UNL     1     -11.299   9.607  71.166  1.00  0.00    -0.386 C  
HETATM   19  C   UNL     1     -11.004   6.760  69.882  1.00  0.00    -0.291 C  
HETATM   20  C   UNL     1     -13.512   9.701  72.090  1.00  0.00    -0.429 C  
HETATM   21  C   UNL     1     -10.012   8.803  70.921  1.00  0.00    -0.222 C  
HETATM   22  C   UNL     1     -12.430   7.538  71.875  1.00  0.00    -0.303 C  
ENDBRANCH   7  15
ENDBRANCH   5   6
ENDBRANCH   4   5
ENDBRANCH   3   4
ENDBRANCH   2   3
TORSDOF 5
ENDMDL
MODEL      206
REMARK 921   NORMALIZED FREE ENERGY PREDICTED BY IDOCK:   -2.93 KCAL/MOL
REMARK 922        TOTAL FREE ENERGY PREDICTED BY IDOCK:   -4.42 KCAL/MOL
REMARK 923 INTER-LIGAND FREE ENERGY PREDICTED BY IDOCK:   -3.86 KCAL/MOL
REMARK 924 INTRA-LIGAND FREE ENERGY PREDICTED BY IDOCK:   -0.56 KCAL/MOL
REMARK 927      BINDING AFFINITY PREDICTED BY RF-SCORE:    0.00 PKD
ROOT
HETATM    1  C   UNL     1      -6.274  10.843  67.579  1.00  0.00    -0.053 C  
HETATM    2  C   UNL     1      -6.990   9.518  67.668  1.00  0.00    -0.080 C  
ENDROOT
BRANCH   2   3
HETATM    3  O   UNL     1      -8.225   9.700  68.368  1.00  0.00    -0.104 OA 
BRANCH   3   4
HETATM    4  C   UNL     1      -9.301   9.448  67.465  1.00  0.00    -0.127 C  
BRANCH   4   5
HETATM    5  C   UNL     1      -9.938   8.093  67.688  1.00  0.00    -0.185 C  
BRANCH   5   6
HETATM    6  N   UNL     1     -10.097   7.657  69.066  1.00  0.00    -0.192 NA 
HETATM    7  C   UNL     1      -9.630   6.441  69.585  1.00  0.00    -0.146 A  
HETATM    8  N   UNL     1     -10.056   6.297  70.826  1.00  0.00    -0.186 NA 
HETATM    9  C   UNL     1     -10.827   8.298  70.061  1.00  0.00    -0.232 A  
HETATM   10  C   UNL     1     -11.540   9.513  70.163  1.00  0.00    -0.156 A  
HETATM   11  C   UNL     1     -10.772   7.422  71.138  1.00  0.00    -0.231 A  
HETATM   12  C   UNL     1     -12.188   9.835  71.355  1.00  0.00    -0.486 A  
HETATM   13  C   UNL     1     -11.431   7.754  72.339  1.00  0.00    -0.418 A  
HETATM   14  C   UNL     1     -12.131   8.965  72.439  1.00  0.00    -0.344 A  
BRANCH   7  15
HETATM   15  N   UNL     1      -8.944   5.487  68.874  1.00  0.00    -0.113 NA 
HETATM   16  N   UNL     1      -8.548   4.454  65.715  1.00  0.00    -0.114 NA 
HETATM   17  C   UNL     1      -7.048   5.867  67.220  1.00  0.00    -0.074 C  
HETATM   18  C   UNL     1      -9.671   4.915  66.547  1.00  0.00    -0.186 C  
HETATM   19  C   UNL     1      -7.497   5.679  68.676  1.00  0.00    -0.084 C  
HETATM   20  C   UNL     1      -8.606   5.100  64.405  1.00  0.00    -0.118 C  
HETATM   21  C   UNL     1      -9.589   4.484  68.021  1.00  0.00    -0.154 C  
HETATM   22  C   UNL     1      -7.234   4.618  66.349  1.00  0.00    -0.076 C  
ENDBRANCH   7  15
ENDBRANCH   5   6
ENDBRANCH   4   5
ENDBRANCH   3   4
ENDBRANCH   2   3
TORSDOF 5
ENDMDL
MODEL      207
REMARK 921   NORMALIZED FREE ENERGY PREDICTED BY IDOCK:   -2.92 KCAL/MOL
REMARK 922        TOTAL FREE ENERGY PREDICTED BY IDOCK:   -4.40 KCAL/MOL
REMARK 923 INTER-LIGAND FREE ENERGY PREDICTED BY IDOCK:   -3.76 KCAL/MOL
REMARK 924 INTRA-LIGAND FREE ENERGY PREDICTED BY IDOCK:   -0.64 KCAL/MOL
REMARK 927      BINDING AFFINITY PREDICTED BY RF-SCORE:    0.00 PKD
ROOT
HETATM    1  C   UNL     1     -13.906   8.931  71.802  1.00  0.00    -0.465 C  
HETATM    2  C   UNL     1     -13.101  10.028  71.149  1.00  0.00    -0.386 C  
ENDROOT
BRANCH   2   3
HETATM    3  O   UNL     1     -11.717   9.844  71.463  1.00  0.00    -0.380 OA 
BRANCH   3   4
HETATM    4  C   UNL     1     -11.099   9.134  70.392  1.00  0.00    -0.253 C  
BRANCH   4   5
HETATM    5  C   UNL     1      -9.612   9.405  70.301  1.00  0.00    -0.249 C  
BRANCH   5   6
HETATM    6  N   UNL     1      -8.777   8.338  69.771  1.00  0.00    -0.133 NA 
HETATM    7  C   UNL     1      -8.266   8.288  68.466  1.00  0.00    -0.131 A  
HETATM    8  N   UNL     1      -7.666   7.128  68.272  1.00  0.00    -0.118 NA 
HETATM    9  C   UNL     1      -8.442   7.150  70.412  1.00  0.00    -0.140 A  
HETATM   10  C   UNL     1      -8.663   6.599  71.694  1.00  0.00    -0.130 A  
HETATM   11  C   UNL     1      -7.749   6.431  69.446  1.00  0.00    -0.101 A  
HETATM   12  C   UNL     1      -8.177   5.327  71.990  1.00  0.00    -0.118 A  
HETATM   13  C   UNL     1      -7.263   5.144  69.754  1.00  0.00    -0.060 A  
HETATM   14  C   UNL     1      -7.477   4.603  71.031  1.00  0.00    -0.067 A  
BRANCH   7  15
HETATM   15  N   UNL     1      -8.470   9.240  67.499  1.00  0.00    -0.115 NA 
HETATM   16  N   UNL     1      -6.900  10.580  64.864  1.00  0.00    -0.032 NA 
HETATM   17  C   UNL     1      -8.778   8.857  65.002  1.00  0.00    -0.200 C  
HETATM   18  C   UNL     1      -6.519  10.145  66.217  1.00  0.00    -0.085 C  
HETATM   19  C   UNL     1      -9.402   8.924  66.402  1.00  0.00    -0.204 C  
HETATM   20  C   UNL     1      -5.917  10.097  63.895  1.00  0.00    -0.140 C  
HETATM   21  C   UNL     1      -7.591  10.395  67.291  1.00  0.00    -0.095 C  
HETATM   22  C   UNL     1      -8.270  10.210  64.487  1.00  0.00    -0.162 C  
ENDBRANCH   7  15
ENDBRANCH   5   6
ENDBRANCH   4   5
ENDBRANCH   3   4
ENDBRANCH   2   3
TORSDOF 5
ENDMDL
MODEL      208
REMARK 921   NORMALIZED FREE ENERGY PREDICTED BY IDOCK:   -2.90 KCAL/MOL
REMARK 922        TOTAL FREE ENERGY PREDICTED BY IDOCK:   -4.37 KCAL/MOL
REMARK 923 INTER-LIGAND FREE ENERGY PREDICTED BY IDOCK:   -3.64 KCAL/MOL
REMARK 924 INTRA-LIGAND FREE ENERGY PREDICTED BY IDOCK:   -0.74 KCAL/MOL
REMARK 927      BINDING AFFINITY PREDICTED BY RF-SCORE:    0.00 PKD
ROOT
HETATM    1  C   UNL     1      -9.726   7.111  73.579  1.00  0.00    -0.293 C  
HETATM    2  C   UNL     1      -8.618   8.032  74.024  1.00  0.00    -0.234 C  
ENDROOT
BRANCH   2   3
HETATM    3  O   UNL     1      -8.136   8.766  72.894  1.00  0.00    -0.404 OA 
BRANCH   3   4
HETATM    4  C   UNL     1      -8.742   8.237  71.716  1.00  0.00    -0.164 C  
BRANCH   4   5
HETATM    5  C   UNL     1      -7.722   7.738  70.714  1.00  0.00    -0.084 C  
BRANCH   5   6
HETATM    6  N   UNL     1      -8.172   6.748  69.750  1.00  0.00    -0.126 NA 
HETATM    7  C   UNL     1      -8.504   7.017  68.414  1.00  0.00    -0.123 A  
HETATM    8  N   UNL     1      -9.000   5.929  67.855  1.00  0.00    -0.112 NA 
HETATM    9  C   UNL     1      -8.459   5.411  70.005  1.00  0.00    -0.111 A  
HETATM   10  C   UNL     1      -8.360   4.555  71.124  1.00  0.00    -0.095 A  
HETATM   11  C   UNL     1      -8.966   4.940  68.800  1.00  0.00    -0.104 A  
HETATM   12  C   UNL     1      -8.772   3.227  71.015  1.00  0.00    -0.124 A  
HETATM   13  C   UNL     1      -9.382   3.597  68.699  1.00  0.00    -0.228 A  
HETATM   14  C   UNL     1      -9.275   2.747  69.810  1.00  0.00    -0.206 A  
BRANCH   7  15
HETATM   15  N   UNL     1      -8.446   8.252  67.818  1.00  0.00    -0.130 NA 
HETATM   16  N   UNL     1      -8.333   9.607  64.759  1.00  0.00    -0.141 NA 
HETATM   17  C   UNL     1     -10.254   9.376  66.424  1.00  0.00    -0.300 C  
HETATM   18  C   UNL     1      -7.730   8.442  65.426  1.00  0.00    -0.099 C  
HETATM   19  C   UNL     1      -9.668   9.075  67.810  1.00  0.00    -0.156 C  
HETATM   20  C   UNL     1      -8.832   9.217  63.441  1.00  0.00    -0.126 C  
HETATM   21  C   UNL     1      -7.376   8.669  66.906  1.00  0.00    -0.079 C  
HETATM   22  C   UNL     1      -9.365  10.278  65.559  1.00  0.00    -0.199 C  
ENDBRANCH   7  15
ENDBRANCH   5   6
ENDBRANCH   4   5
ENDBRANCH   3   4
ENDBRANCH   2   3
TORSDOF 5
ENDMDL
MODEL      209
REMARK 921   NORMALIZED FREE ENERGY PREDICTED BY IDOCK:   -2.87 KCAL/MOL
REMARK 922        TOTAL FREE ENERGY PREDICTED BY IDOCK:   -4.35 KCAL/MOL
REMARK 923 INTER-LIGAND FREE ENERGY PREDICTED BY IDOCK:   -3.86 KCAL/MOL
REMARK 924 INTRA-LIGAND FREE ENERGY PREDICTED BY IDOCK:   -0.48 KCAL/MOL
REMARK 927      BINDING AFFINITY PREDICTED BY RF-SCORE:    0.00 PKD
ROOT
HETATM    1  C   UNL     1      -8.946   2.645  63.690  1.00  0.00    -0.093 C  
HETATM    2  C   UNL     1      -8.215   3.354  64.802  1.00  0.00    -0.090 C  
ENDROOT
BRANCH   2   3
HETATM    3  O   UNL     1      -8.655   4.715  64.860  1.00  0.00    -0.128 OA 
BRANCH   3   4
HETATM    4  C   UNL     1      -9.274   4.940  66.125  1.00  0.00    -0.146 C  
BRANCH   4   5
HETATM    5  C   UNL     1      -8.613   6.059  66.902  1.00  0.00    -0.108 C  
BRANCH   5   6
HETATM    6  N   UNL     1      -9.312   6.549  68.078  1.00  0.00    -0.111 NA 
HETATM    7  C   UNL     1      -9.689   7.883  68.294  1.00  0.00    -0.160 A  
HETATM    8  N   UNL     1     -10.181   8.011  69.512  1.00  0.00    -0.205 NA 
HETATM    9  C   UNL     1      -9.619   5.824  69.224  1.00  0.00    -0.139 A  
HETATM   10  C   UNL     1      -9.485   4.478  69.631  1.00  0.00    -0.244 A  
HETATM   11  C   UNL     1     -10.161   6.769  70.086  1.00  0.00    -0.195 A  
HETATM   12  C   UNL     1      -9.903   4.097  70.905  1.00  0.00    -0.247 A  
HETATM   13  C   UNL     1     -10.580   6.376  71.374  1.00  0.00    -0.274 A  
HETATM   14  C   UNL     1     -10.452   5.037  71.771  1.00  0.00    -0.246 A  
BRANCH   7  15
HETATM   15  N   UNL     1      -9.462   8.921  67.424  1.00  0.00    -0.141 NA 
HETATM   16  N   UNL     1     -10.329  12.124  66.989  1.00  0.00    -0.210 NA 
HETATM   17  C   UNL     1      -8.186  11.072  67.893  1.00  0.00    -0.119 C  
HETATM   18  C   UNL     1     -11.009  10.888  67.409  1.00  0.00    -0.293 C  
HETATM   19  C   UNL     1      -8.153   9.595  67.478  1.00  0.00    -0.114 C  
HETATM   20  C   UNL     1     -10.702  13.220  67.882  1.00  0.00    -0.239 C  
HETATM   21  C   UNL     1     -10.522   9.619  66.691  1.00  0.00    -0.163 C  
HETATM   22  C   UNL     1      -8.872  11.986  66.869  1.00  0.00    -0.197 C  
ENDBRANCH   7  15
ENDBRANCH   5   6
ENDBRANCH   4   5
ENDBRANCH   3   4
ENDBRANCH   2   3
TORSDOF 5
ENDMDL
MODEL      210
REMARK 921   NORMALIZED FREE ENERGY PREDICTED BY IDOCK:   -2.86 KCAL/MOL
REMARK 922        TOTAL FREE ENERGY PREDICTED BY IDOCK:   -4.33 KCAL/MOL
REMARK 923 INTER-LIGAND FREE ENERGY PREDICTED BY IDOCK:   -4.20 KCAL/MOL
REMARK 924 INTRA-LIGAND FREE ENERGY PREDICTED BY IDOCK:   -0.13 KCAL/MOL
REMARK 927      BINDING AFFINITY PREDICTED BY RF-SCORE:    0.00 PKD
ROOT
HETATM    1  C   UNL     1      -6.394   8.015  73.142  1.00  0.00    -0.080 C  
HETATM    2  C   UNL     1      -6.264   9.132  72.137  1.00  0.00     0.052 C  
ENDROOT
BRANCH   2   3
HETATM    3  O   UNL     1      -7.110   8.855  71.016  1.00  0.00    -0.072 OA 
BRANCH   3   4
HETATM    4  C   UNL     1      -7.240  10.044  70.239  1.00  0.00    -0.147 C  
BRANCH   4   5
HETATM    5  C   UNL     1      -7.410   9.755  68.762  1.00  0.00    -0.074 C  
BRANCH   5   6
HETATM    6  N   UNL     1      -8.580   8.987  68.370  1.00  0.00    -0.129 NA 
HETATM    7  C   UNL     1      -9.683   9.499  67.672  1.00  0.00    -0.154 A  
HETATM    8  N   UNL     1     -10.624   8.576  67.595  1.00  0.00    -0.230 NA 
HETATM    9  C   UNL     1      -8.861   7.668  68.712  1.00  0.00    -0.131 A  
HETATM   10  C   UNL     1      -8.183   6.640  69.405  1.00  0.00    -0.124 A  
HETATM   11  C   UNL     1     -10.137   7.453  68.207  1.00  0.00    -0.177 A  
HETATM   12  C   UNL     1      -8.800   5.402  69.579  1.00  0.00    -0.118 A  
HETATM   13  C   UNL     1     -10.754   6.199  68.389  1.00  0.00    -0.361 A  
HETATM   14  C   UNL     1     -10.075   5.178  69.071  1.00  0.00    -0.257 A  
BRANCH   7  15
HETATM   15  N   UNL     1      -9.818  10.798  67.247  1.00  0.00    -0.176 NA 
HETATM   16  N   UNL     1     -11.412  12.561  64.892  1.00  0.00    -0.315 NA 
HETATM   17  C   UNL     1     -11.902  12.251  67.377  1.00  0.00    -0.327 C  
HETATM   18  C   UNL     1     -10.712  11.268  64.957  1.00  0.00    -0.256 C  
HETATM   19  C   UNL     1     -10.640  11.709  68.062  1.00  0.00    -0.202 C  
HETATM   20  C   UNL     1     -12.670  12.405  64.163  1.00  0.00    -0.347 C  
HETATM   21  C   UNL     1      -9.492  11.252  65.892  1.00  0.00    -0.222 C  
HETATM   22  C   UNL     1     -11.612  13.193  66.201  1.00  0.00    -0.355 C  
ENDBRANCH   7  15
ENDBRANCH   5   6
ENDBRANCH   4   5
ENDBRANCH   3   4
ENDBRANCH   2   3
TORSDOF 5
ENDMDL
MODEL      211
REMARK 921   NORMALIZED FREE ENERGY PREDICTED BY IDOCK:   -2.86 KCAL/MOL
REMARK 922        TOTAL FREE ENERGY PREDICTED BY IDOCK:   -4.33 KCAL/MOL
REMARK 923 INTER-LIGAND FREE ENERGY PREDICTED BY IDOCK:   -4.40 KCAL/MOL
REMARK 924 INTRA-LIGAND FREE ENERGY PREDICTED BY IDOCK:    0.07 KCAL/MOL
REMARK 927      BINDING AFFINITY PREDICTED BY RF-SCORE:    0.00 PKD
ROOT
HETATM    1  C   UNL     1     -12.824  13.814  65.224  1.00  0.00    -0.430 C  
HETATM    2  C   UNL     1     -11.718  12.830  65.517  1.00  0.00    -0.395 C  
ENDROOT
BRANCH   2   3
HETATM    3  O   UNL     1     -12.107  12.002  66.618  1.00  0.00    -0.615 OA 
BRANCH   3   4
HETATM    4  C   UNL     1     -11.028  11.951  67.551  1.00  0.00    -0.247 C  
BRANCH   4   5
HETATM    5  C   UNL     1      -9.977  10.932  67.163  1.00  0.00    -0.189 C  
BRANCH   5   6
HETATM    6  N   UNL     1      -8.925  10.668  68.131  1.00  0.00    -0.136 NA 
HETATM    7  C   UNL     1      -8.829   9.514  68.923  1.00  0.00    -0.137 A  
HETATM    8  N   UNL     1      -7.839   9.651  69.785  1.00  0.00    -0.124 NA 
HETATM    9  C   UNL     1      -7.916  11.542  68.520  1.00  0.00    -0.143 A  
HETATM   10  C   UNL     1      -7.494  12.832  68.128  1.00  0.00    -0.124 A  
HETATM   11  C   UNL     1      -7.263  10.869  69.545  1.00  0.00    -0.113 A  
HETATM   12  C   UNL     1      -6.412  13.429  68.774  1.00  0.00    -0.098 A  
HETATM   13  C   UNL     1      -6.172  11.481  70.194  1.00  0.00    -0.132 A  
HETATM   14  C   UNL     1      -5.750  12.759  69.797  1.00  0.00    -0.110 A  
BRANCH   7  15
HETATM   15  N   UNL     1      -9.709   8.460  68.896  1.00  0.00    -0.164 NA 
HETATM   16  N   UNL     1     -10.446   5.799  67.005  1.00  0.00    -0.249 NA 
HETATM   17  C   UNL     1      -9.166   5.993  69.205  1.00  0.00    -0.131 C  
HETATM   18  C   UNL     1     -10.071   7.200  66.763  1.00  0.00    -0.208 C  
HETATM   19  C   UNL     1      -9.490   7.352  69.841  1.00  0.00    -0.153 C  
HETATM   20  C   UNL     1      -9.683   4.922  66.117  1.00  0.00    -0.190 C  
HETATM   21  C   UNL     1     -10.634   8.197  67.790  1.00  0.00    -0.165 C  
HETATM   22  C   UNL     1     -10.332   5.390  68.411  1.00  0.00    -0.146 C  
ENDBRANCH   7  15
ENDBRANCH   5   6
ENDBRANCH   4   5
ENDBRANCH   3   4
ENDBRANCH   2   3
TORSDOF 5
ENDMDL
MODEL      212
REMARK 921   NORMALIZED FREE ENERGY PREDICTED BY IDOCK:   -2.85 KCAL/MOL
REMARK 922        TOTAL FREE ENERGY PREDICTED BY IDOCK:   -4.31 KCAL/MOL
REMARK 923 INTER-LIGAND FREE ENERGY PREDICTED BY IDOCK:   -4.10 KCAL/MOL
REMARK 924 INTRA-LIGAND FREE ENERGY PREDICTED BY IDOCK:   -0.22 KCAL/MOL
REMARK 927      BINDING AFFINITY PREDICTED BY RF-SCORE:    0.00 PKD
ROOT
HETATM    1  C   UNL     1      -5.315  20.114  65.656  1.00  0.00    -0.184 C  
HETATM    2  C   UNL     1      -5.176  18.655  65.300  1.00  0.00    -0.171 C  
ENDROOT
BRANCH   2   3
HETATM    3  O   UNL     1      -6.478  18.094  65.102  1.00  0.00    -0.349 OA 
BRANCH   3   4
HETATM    4  C   UNL     1      -6.727  17.146  66.138  1.00  0.00    -0.093 C  
BRANCH   4   5
HETATM    5  C   UNL     1      -8.176  16.707  66.184  1.00  0.00    -0.260 C  
BRANCH   5   6
HETATM    6  N   UNL     1      -9.006  17.281  67.230  1.00  0.00    -0.224 NA 
HETATM    7  C   UNL     1      -9.887  16.557  68.047  1.00  0.00    -0.240 A  
HETATM    8  N   UNL     1     -10.582  17.392  68.796  1.00  0.00    -0.324 NA 
HETATM    9  C   UNL     1      -9.160  18.632  67.522  1.00  0.00    -0.280 A  
HETATM   10  C   UNL     1      -8.587  19.835  67.055  1.00  0.00    -0.378 A  
HETATM   11  C   UNL     1     -10.144  18.655  68.502  1.00  0.00    -0.382 A  
HETATM   12  C   UNL     1      -9.010  21.053  67.585  1.00  0.00     0.011 A  
HETATM   13  C   UNL     1     -10.568  19.891  69.032  1.00  0.00     0.149 A  
HETATM   14  C   UNL     1      -9.991  21.083  68.571  1.00  0.00     0.635 A  
BRANCH   7  15
HETATM   15  N   UNL     1     -10.089  15.200  67.986  1.00  0.00    -0.221 NA 
HETATM   16  N   UNL     1     -10.597  12.795  65.715  1.00  0.00    -0.269 NA 
HETATM   17  C   UNL     1      -8.509  13.450  67.028  1.00  0.00    -0.137 C  
HETATM   18  C   UNL     1     -11.050  14.181  65.911  1.00  0.00    -0.306 C  
HETATM   19  C   UNL     1      -8.933  14.318  68.221  1.00  0.00    -0.187 C  
HETATM   20  C   UNL     1     -10.206  12.596  64.320  1.00  0.00    -0.332 C  
HETATM   21  C   UNL     1     -11.270  14.576  67.381  1.00  0.00    -0.327 C  
HETATM   22  C   UNL     1      -9.539  12.380  66.645  1.00  0.00    -0.229 C  
ENDBRANCH   7  15
ENDBRANCH   5   6
ENDBRANCH   4   5
ENDBRANCH   3   4
ENDBRANCH   2   3
TORSDOF 5
ENDMDL
MODEL      213
REMARK 921   NORMALIZED FREE ENERGY PREDICTED BY IDOCK:   -2.83 KCAL/MOL
REMARK 922        TOTAL FREE ENERGY PREDICTED BY IDOCK:   -4.29 KCAL/MOL
REMARK 923 INTER-LIGAND FREE ENERGY PREDICTED BY IDOCK:   -4.42 KCAL/MOL
REMARK 924 INTRA-LIGAND FREE ENERGY PREDICTED BY IDOCK:    0.14 KCAL/MOL
REMARK 927      BINDING AFFINITY PREDICTED BY RF-SCORE:    0.00 PKD
ROOT
HETATM    1  C   UNL     1      -6.401  16.630  69.068  1.00  0.00    -0.183 C  
HETATM    2  C   UNL     1      -7.607  15.767  68.790  1.00  0.00    -0.173 C  
ENDROOT
BRANCH   2   3
HETATM    3  O   UNL     1      -7.372  15.000  67.605  1.00  0.00    -0.152 OA 
BRANCH   3   4
HETATM    4  C   UNL     1      -8.628  14.717  66.990  1.00  0.00    -0.224 C  
BRANCH   4   5
HETATM    5  C   UNL     1      -9.358  13.575  67.667  1.00  0.00    -0.216 C  
BRANCH   5   6
HETATM    6  N   UNL     1      -8.701  12.279  67.667  1.00  0.00    -0.166 NA 
HETATM    7  C   UNL     1      -9.064  11.191  66.860  1.00  0.00    -0.159 A  
HETATM    8  N   UNL     1      -8.357  10.131  67.203  1.00  0.00    -0.124 NA 
HETATM    9  C   UNL     1      -7.696  11.857  68.531  1.00  0.00    -0.135 A  
HETATM   10  C   UNL     1      -6.935  12.455  69.560  1.00  0.00     0.161 A  
HETATM   11  C   UNL     1      -7.510  10.520  68.205  1.00  0.00    -0.090 A  
HETATM   12  C   UNL     1      -5.990  11.697  70.249  1.00  0.00    -0.159 A  
HETATM   13  C   UNL     1      -6.553   9.759  68.908  1.00  0.00    -0.046 A  
HETATM   14  C   UNL     1      -5.795  10.359  69.924  1.00  0.00    -0.055 A  
BRANCH   7  15
HETATM   15  N   UNL     1     -10.088  11.192  65.944  1.00  0.00    -0.238 NA 
HETATM   16  N   UNL     1     -12.422  13.258  64.727  1.00  0.00    -0.575 NA 
HETATM   17  C   UNL     1     -10.192  12.485  63.755  1.00  0.00    -0.360 C  
HETATM   18  C   UNL     1     -11.846  12.970  66.050  1.00  0.00    -0.417 C  
HETATM   19  C   UNL     1      -9.735  11.232  64.514  1.00  0.00    -0.253 C  
HETATM   20  C   UNL     1     -12.518  14.704  64.534  1.00  0.00    -0.292 C  
HETATM   21  C   UNL     1     -11.483  11.493  66.278  1.00  0.00    -0.049 C  
HETATM   22  C   UNL     1     -11.716  12.603  63.619  1.00  0.00    -0.522 C  
ENDBRANCH   7  15
ENDBRANCH   5   6
ENDBRANCH   4   5
ENDBRANCH   3   4
ENDBRANCH   2   3
TORSDOF 5
ENDMDL
MODEL      214
REMARK 921   NORMALIZED FREE ENERGY PREDICTED BY IDOCK:   -2.80 KCAL/MOL
REMARK 922        TOTAL FREE ENERGY PREDICTED BY IDOCK:   -4.26 KCAL/MOL
REMARK 923 INTER-LIGAND FREE ENERGY PREDICTED BY IDOCK:   -3.83 KCAL/MOL
REMARK 924 INTRA-LIGAND FREE ENERGY PREDICTED BY IDOCK:   -0.43 KCAL/MOL
REMARK 927      BINDING AFFINITY PREDICTED BY RF-SCORE:    0.00 PKD
ROOT
HETATM    1  C   UNL     1      -9.019   9.503  64.661  1.00  0.00    -0.266 C  
HETATM    2  C   UNL     1      -9.354   9.422  66.129  1.00  0.00    -0.205 C  
ENDROOT
BRANCH   2   3
HETATM    3  O   UNL     1      -8.604   8.357  66.723  1.00  0.00    -0.114 OA 
BRANCH   3   4
HETATM    4  C   UNL     1      -8.865   8.345  68.126  1.00  0.00    -0.142 C  
BRANCH   4   5
HETATM    5  C   UNL     1      -8.302   7.117  68.808  1.00  0.00    -0.126 C  
BRANCH   5   6
HETATM    6  N   UNL     1      -8.730   5.824  68.300  1.00  0.00    -0.111 NA 
HETATM    7  C   UNL     1      -9.711   5.012  68.887  1.00  0.00    -0.167 A  
HETATM    8  N   UNL     1      -9.762   3.854  68.256  1.00  0.00    -0.104 NA 
HETATM    9  C   UNL     1      -8.174   5.125  67.234  1.00  0.00    -0.107 A  
HETATM   10  C   UNL     1      -7.167   5.380  66.276  1.00  0.00    -0.077 A  
HETATM   11  C   UNL     1      -8.847   3.910  67.239  1.00  0.00    -0.122 A  
HETATM   12  C   UNL     1      -6.852   4.406  65.330  1.00  0.00    -0.057 A  
HETATM   13  C   UNL     1      -8.521   2.929  66.280  1.00  0.00    -0.105 A  
HETATM   14  C   UNL     1      -7.526   3.190  65.326  1.00  0.00    -0.076 A  
BRANCH   7  15
HETATM   15  N   UNL     1     -10.418   5.321  70.023  1.00  0.00    -0.300 NA 
HETATM   16  N   UNL     1     -10.014   6.954  72.916  1.00  0.00    -0.173 NA 
HETATM   17  C   UNL     1     -11.211   7.623  70.764  1.00  0.00    -0.282 C  
HETATM   18  C   UNL     1      -9.199   6.057  72.082  1.00  0.00    -0.145 C  
HETATM   19  C   UNL     1     -11.459   6.360  69.928  1.00  0.00    -0.415 C  
HETATM   20  C   UNL     1      -9.206   8.092  73.353  1.00  0.00    -0.263 C  
HETATM   21  C   UNL     1      -9.995   4.947  71.376  1.00  0.00    -0.197 C  
HETATM   22  C   UNL     1     -11.265   7.383  72.278  1.00  0.00    -0.272 C  
ENDBRANCH   7  15
ENDBRANCH   5   6
ENDBRANCH   4   5
ENDBRANCH   3   4
ENDBRANCH   2   3
TORSDOF 5
ENDMDL
MODEL      215
REMARK 921   NORMALIZED FREE ENERGY PREDICTED BY IDOCK:   -2.80 KCAL/MOL
REMARK 922        TOTAL FREE ENERGY PREDICTED BY IDOCK:   -4.25 KCAL/MOL
REMARK 923 INTER-LIGAND FREE ENERGY PREDICTED BY IDOCK:   -4.47 KCAL/MOL
REMARK 924 INTRA-LIGAND FREE ENERGY PREDICTED BY IDOCK:    0.22 KCAL/MOL
REMARK 927      BINDING AFFINITY PREDICTED BY RF-SCORE:    0.00 PKD
ROOT
HETATM    1  C   UNL     1      -8.157  10.165  64.275  1.00  0.00    -0.159 C  
HETATM    2  C   UNL     1      -8.758  10.480  65.622  1.00  0.00    -0.180 C  
ENDROOT
BRANCH   2   3
HETATM    3  O   UNL     1      -7.808  11.218  66.398  1.00  0.00    -0.158 OA 
BRANCH   3   4
HETATM    4  C   UNL     1      -8.414  11.577  67.638  1.00  0.00    -0.135 C  
BRANCH   4   5
HETATM    5  C   UNL     1      -9.841  11.083  67.748  1.00  0.00    -0.173 C  
BRANCH   5   6
HETATM    6  N   UNL     1     -10.650  11.633  68.823  1.00  0.00    -0.211 NA 
HETATM    7  C   UNL     1     -11.148  10.902  69.912  1.00  0.00    -0.241 A  
HETATM    8  N   UNL     1     -11.950  11.668  70.628  1.00  0.00    -0.329 NA 
HETATM    9  C   UNL     1     -11.161  12.924  68.902  1.00  0.00    -0.255 A  
HETATM   10  C   UNL     1     -11.048  14.101  68.128  1.00  0.00    -0.276 A  
HETATM   11  C   UNL     1     -11.958  12.903  70.039  1.00  0.00    -0.309 A  
HETATM   12  C   UNL     1     -11.740  15.248  68.514  1.00  0.00    -0.352 A  
HETATM   13  C   UNL     1     -12.656  14.067  70.420  1.00  0.00    -0.374 A  
HETATM   14  C   UNL     1     -12.535  15.236  69.654  1.00  0.00    -0.174 A  
BRANCH   7  15
HETATM   15  N   UNL     1     -10.939   9.562  70.128  1.00  0.00    -0.249 NA 
HETATM   16  N   UNL     1      -9.086   7.043  68.936  1.00  0.00    -0.135 NA 
HETATM   17  C   UNL     1      -8.835   8.461  71.043  1.00  0.00    -0.193 C  
HETATM   18  C   UNL     1      -9.824   8.180  68.363  1.00  0.00    -0.171 C  
HETATM   19  C   UNL     1     -10.170   9.166  71.321  1.00  0.00    -0.329 C  
HETATM   20  C   UNL     1      -7.770   6.941  68.305  1.00  0.00    -0.113 C  
HETATM   21  C   UNL     1     -11.126   8.531  69.103  1.00  0.00     0.200 C  
HETATM   22  C   UNL     1      -8.990   7.077  70.400  1.00  0.00    -0.155 C  
ENDBRANCH   7  15
ENDBRANCH   5   6
ENDBRANCH   4   5
ENDBRANCH   3   4
ENDBRANCH   2   3
TORSDOF 5
ENDMDL
MODEL      216
REMARK 921   NORMALIZED FREE ENERGY PREDICTED BY IDOCK:   -2.78 KCAL/MOL
REMARK 922        TOTAL FREE ENERGY PREDICTED BY IDOCK:   -4.23 KCAL/MOL
REMARK 923 INTER-LIGAND FREE ENERGY PREDICTED BY IDOCK:   -3.58 KCAL/MOL
REMARK 924 INTRA-LIGAND FREE ENERGY PREDICTED BY IDOCK:   -0.64 KCAL/MOL
REMARK 927      BINDING AFFINITY PREDICTED BY RF-SCORE:    0.00 PKD
ROOT
HETATM    1  C   UNL     1      -6.518  13.250  68.774  1.00  0.00    -0.099 C  
HETATM    2  C   UNL     1      -6.516  12.532  67.448  1.00  0.00    -0.153 C  
ENDROOT
BRANCH   2   3
HETATM    3  O   UNL     1      -5.869  11.264  67.601  1.00  0.00    -0.046 OA 
BRANCH   3   4
HETATM    4  C   UNL     1      -6.754  10.383  68.291  1.00  0.00    -0.061 C  
BRANCH   4   5
HETATM    5  C   UNL     1      -7.242   9.250  67.413  1.00  0.00    -0.080 C  
BRANCH   5   6
HETATM    6  N   UNL     1      -8.169   9.593  66.347  1.00  0.00    -0.118 NA 
HETATM    7  C   UNL     1      -9.566   9.504  66.433  1.00  0.00    -0.213 A  
HETATM    8  N   UNL     1     -10.098   9.759  65.253  1.00  0.00    -0.198 NA 
HETATM    9  C   UNL     1      -7.840   9.950  65.043  1.00  0.00    -0.131 A  
HETATM   10  C   UNL     1      -6.640  10.185  64.335  1.00  0.00    -0.116 A  
HETATM   11  C   UNL     1      -9.067  10.047  64.400  1.00  0.00    -0.247 A  
HETATM   12  C   UNL     1      -6.692  10.520  62.983  1.00  0.00    -0.040 A  
HETATM   13  C   UNL     1      -9.110  10.385  63.032  1.00  0.00    -0.279 A  
HETATM   14  C   UNL     1      -7.918  10.626  62.334  1.00  0.00    -0.217 A  
BRANCH   7  15
HETATM   15  N   UNL     1     -10.265   9.088  67.540  1.00  0.00    -0.225 NA 
HETATM   16  N   UNL     1      -9.838   7.202  70.270  1.00  0.00    -0.176 NA 
HETATM   17  C   UNL     1      -9.838   9.735  69.963  1.00  0.00    -0.295 C  
HETATM   18  C   UNL     1      -9.455   7.117  68.852  1.00  0.00    -0.142 C  
HETATM   19  C   UNL     1     -10.498  10.066  68.617  1.00  0.00    -0.204 C  
HETATM   20  C   UNL     1      -8.694   6.851  71.112  1.00  0.00    -0.135 C  
HETATM   21  C   UNL     1     -10.501   7.681  67.876  1.00  0.00    -0.207 C  
HETATM   22  C   UNL     1     -10.422   8.494  70.650  1.00  0.00    -0.201 C  
ENDBRANCH   7  15
ENDBRANCH   5   6
ENDBRANCH   4   5
ENDBRANCH   3   4
ENDBRANCH   2   3
TORSDOF 5
ENDMDL
MODEL      217
REMARK 921   NORMALIZED FREE ENERGY PREDICTED BY IDOCK:   -2.77 KCAL/MOL
REMARK 922        TOTAL FREE ENERGY PREDICTED BY IDOCK:   -4.22 KCAL/MOL
REMARK 923 INTER-LIGAND FREE ENERGY PREDICTED BY IDOCK:   -4.53 KCAL/MOL
REMARK 924 INTRA-LIGAND FREE ENERGY PREDICTED BY IDOCK:    0.31 KCAL/MOL
REMARK 927      BINDING AFFINITY PREDICTED BY RF-SCORE:    0.00 PKD
ROOT
HETATM    1  C   UNL     1     -12.473   8.423  72.056  1.00  0.00    -0.407 C  
HETATM    2  C   UNL     1     -11.544   9.529  71.623  1.00  0.00    -0.381 C  
ENDROOT
BRANCH   2   3
HETATM    3  O   UNL     1     -10.472   8.969  70.859  1.00  0.00    -0.215 OA 
BRANCH   3   4
HETATM    4  C   UNL     1     -10.869   8.914  69.490  1.00  0.00    -0.153 C  
BRANCH   4   5
HETATM    5  C   UNL     1     -11.079  10.290  68.893  1.00  0.00    -0.231 C  
BRANCH   5   6
HETATM    6  N   UNL     1      -9.925  10.927  68.280  1.00  0.00    -0.170 NA 
HETATM    7  C   UNL     1      -9.860  12.273  67.891  1.00  0.00    -0.201 A  
HETATM    8  N   UNL     1      -8.728  12.492  67.249  1.00  0.00    -0.185 NA 
HETATM    9  C   UNL     1      -8.751  10.303  67.872  1.00  0.00    -0.122 A  
HETATM   10  C   UNL     1      -8.224   8.995  67.954  1.00  0.00    -0.110 A  
HETATM   11  C   UNL     1      -8.035  11.312  67.241  1.00  0.00    -0.141 A  
HETATM   12  C   UNL     1      -6.975   8.719  67.400  1.00  0.00    -0.075 A  
HETATM   13  C   UNL     1      -6.773  11.024  66.681  1.00  0.00    -0.134 A  
HETATM   14  C   UNL     1      -6.249   9.726  66.772  1.00  0.00    -0.064 A  
BRANCH   7  15
HETATM   15  N   UNL     1     -10.872  13.189  68.039  1.00  0.00    -0.235 NA 
HETATM   16  N   UNL     1     -11.957  15.459  70.246  1.00  0.00    -0.328 NA 
HETATM   17  C   UNL     1     -10.660  15.725  68.065  1.00  0.00    -0.279 C  
HETATM   18  C   UNL     1     -11.399  14.099  70.311  1.00  0.00    -0.034 C  
HETATM   19  C   UNL     1     -10.799  14.432  67.250  1.00  0.00    -0.290 C  
HETATM   20  C   UNL     1     -11.318  16.303  71.255  1.00  0.00    -0.213 C  
HETATM   21  C   UNL     1     -11.825  13.181  69.152  1.00  0.00    -0.314 C  
HETATM   22  C   UNL     1     -11.896  16.061  68.909  1.00  0.00    -0.242 C  
ENDBRANCH   7  15
ENDBRANCH   5   6
ENDBRANCH   4   5
ENDBRANCH   3   4
ENDBRANCH   2   3
TORSDOF 5
ENDMDL
MODEL      218
REMARK 921   NORMALIZED FREE ENERGY PREDICTED BY IDOCK:   -2.76 KCAL/MOL
REMARK 922        TOTAL FREE ENERGY PREDICTED BY IDOCK:   -4.19 KCAL/MOL
REMARK 923 INTER-LIGAND FREE ENERGY PREDICTED BY IDOCK:   -3.38 KCAL/MOL
REMARK 924 INTRA-LIGAND FREE ENERGY PREDICTED BY IDOCK:   -0.82 KCAL/MOL
REMARK 927      BINDING AFFINITY PREDICTED BY RF-SCORE:    0.00 PKD
ROOT
HETATM    1  C   UNL     1      -5.792   5.310  66.955  1.00  0.00    -0.018 C  
HETATM    2  C   UNL     1      -6.843   4.282  67.293  1.00  0.00    -0.052 C  
ENDROOT
BRANCH   2   3
HETATM    3  O   UNL     1      -7.636   4.764  68.383  1.00  0.00    -0.075 OA 
BRANCH   3   4
HETATM    4  C   UNL     1      -8.942   4.198  68.279  1.00  0.00    -0.118 C  
BRANCH   4   5
HETATM    5  C   UNL     1     -10.034   5.212  68.550  1.00  0.00    -0.154 C  
BRANCH   5   6
HETATM    6  N   UNL     1      -9.720   6.291  69.472  1.00  0.00    -0.145 NA 
HETATM    7  C   UNL     1      -9.412   7.607  69.097  1.00  0.00    -0.154 A  
HETATM    8  N   UNL     1      -9.047   8.296  70.162  1.00  0.00    -0.146 NA 
HETATM    9  C   UNL     1      -9.556   6.186  70.849  1.00  0.00    -0.173 A  
HETATM   10  C   UNL     1      -9.696   5.156  71.805  1.00  0.00    -0.212 A  
HETATM   11  C   UNL     1      -9.143   7.454  71.237  1.00  0.00    -0.142 A  
HETATM   12  C   UNL     1      -9.422   5.417  73.146  1.00  0.00    -0.149 A  
HETATM   13  C   UNL     1      -8.865   7.710  72.596  1.00  0.00    -0.198 A  
HETATM   14  C   UNL     1      -9.014   6.686  73.543  1.00  0.00    -0.143 A  
BRANCH   7  15
HETATM   15  N   UNL     1      -9.371   8.073  67.806  1.00  0.00    -0.137 NA 
HETATM   16  N   UNL     1      -9.883  10.905  66.097  1.00  0.00    -0.214 NA 
HETATM   17  C   UNL     1      -7.727   9.750  66.826  1.00  0.00    -0.098 C  
HETATM   18  C   UNL     1     -10.532  10.213  67.222  1.00  0.00    -0.256 C  
HETATM   19  C   UNL     1      -8.050   8.295  67.193  1.00  0.00    -0.108 C  
HETATM   20  C   UNL     1      -9.754  12.330  66.402  1.00  0.00    -0.234 C  
HETATM   21  C   UNL     1     -10.516   8.679  67.120  1.00  0.00    -0.289 C  
HETATM   22  C   UNL     1      -8.601  10.312  65.698  1.00  0.00    -0.161 C  
ENDBRANCH   7  15
ENDBRANCH   5   6
ENDBRANCH   4   5
ENDBRANCH   3   4
ENDBRANCH   2   3
TORSDOF 5
ENDMDL
MODEL      219
REMARK 921   NORMALIZED FREE ENERGY PREDICTED BY IDOCK:   -2.75 KCAL/MOL
REMARK 922        TOTAL FREE ENERGY PREDICTED BY IDOCK:   -4.18 KCAL/MOL
REMARK 923 INTER-LIGAND FREE ENERGY PREDICTED BY IDOCK:   -3.64 KCAL/MOL
REMARK 924 INTRA-LIGAND FREE ENERGY PREDICTED BY IDOCK:   -0.54 KCAL/MOL
REMARK 927      BINDING AFFINITY PREDICTED BY RF-SCORE:    0.00 PKD
ROOT
HETATM    1  C   UNL     1      -9.340   4.043  70.819  1.00  0.00    -0.217 C  
HETATM    2  C   UNL     1     -10.240   4.998  71.563  1.00  0.00    -0.204 C  
ENDROOT
BRANCH   2   3
HETATM    3  O   UNL     1     -10.492   6.142  70.741  1.00  0.00    -0.210 OA 
BRANCH   3   4
HETATM    4  C   UNL     1      -9.689   6.043  69.566  1.00  0.00    -0.147 C  
BRANCH   4   5
HETATM    5  C   UNL     1      -8.833   7.273  69.346  1.00  0.00    -0.137 C  
BRANCH   5   6
HETATM    6  N   UNL     1      -8.639   7.705  67.971  1.00  0.00    -0.123 NA 
HETATM    7  C   UNL     1      -9.030   8.949  67.455  1.00  0.00    -0.132 A  
HETATM    8  N   UNL     1      -8.831   8.967  66.150  1.00  0.00    -0.154 NA 
HETATM    9  C   UNL     1      -8.150   6.936  66.921  1.00  0.00    -0.109 A  
HETATM   10  C   UNL     1      -7.625   5.632  66.785  1.00  0.00    -0.092 A  
HETATM   11  C   UNL     1      -8.282   7.760  65.810  1.00  0.00    -0.132 A  
HETATM   12  C   UNL     1      -7.234   5.173  65.528  1.00  0.00    -0.068 A  
HETATM   13  C   UNL     1      -7.887   7.287  64.542  1.00  0.00    -0.121 A  
HETATM   14  C   UNL     1      -7.359   5.994  64.413  1.00  0.00    -0.068 A  
BRANCH   7  15
HETATM   15  N   UNL     1      -9.646   9.945  68.171  1.00  0.00    -0.139 NA 
HETATM   16  N   UNL     1      -9.945  13.278  68.171  1.00  0.00    -0.229 NA 
HETATM   17  C   UNL     1     -11.547  11.449  67.397  1.00  0.00    -0.266 C  
HETATM   18  C   UNL     1      -8.862  12.311  67.933  1.00  0.00    -0.178 C  
HETATM   19  C   UNL     1     -11.101  10.115  68.010  1.00  0.00    -0.240 C  
HETATM   20  C   UNL     1      -9.915  14.315  67.140  1.00  0.00    -0.255 C  
HETATM   21  C   UNL     1      -8.930  11.051  68.813  1.00  0.00    -0.149 C  
HETATM   22  C   UNL     1     -11.272  12.664  68.292  1.00  0.00    -0.272 C  
ENDBRANCH   7  15
ENDBRANCH   5   6
ENDBRANCH   4   5
ENDBRANCH   3   4
ENDBRANCH   2   3
TORSDOF 5
ENDMDL
MODEL      220
REMARK 921   NORMALIZED FREE ENERGY PREDICTED BY IDOCK:   -2.73 KCAL/MOL
REMARK 922        TOTAL FREE ENERGY PREDICTED BY IDOCK:   -4.17 KCAL/MOL
REMARK 923 INTER-LIGAND FREE ENERGY PREDICTED BY IDOCK:   -3.56 KCAL/MOL
REMARK 924 INTRA-LIGAND FREE ENERGY PREDICTED BY IDOCK:   -0.60 KCAL/MOL
REMARK 927      BINDING AFFINITY PREDICTED BY RF-SCORE:    0.00 PKD
ROOT
HETATM    1  C   UNL     1      -9.853   8.035  71.346  1.00  0.00    -0.213 C  
HETATM    2  C   UNL     1      -9.428   7.688  69.940  1.00  0.00    -0.160 C  
ENDROOT
BRANCH   2   3
HETATM    3  O   UNL     1      -9.002   8.880  69.272  1.00  0.00    -0.140 OA 
BRANCH   3   4
HETATM    4  C   UNL     1      -7.996   9.511  70.063  1.00  0.00    -0.156 C  
BRANCH   4   5
HETATM    5  C   UNL     1      -6.975  10.247  69.221  1.00  0.00    -0.073 C  
BRANCH   5   6
HETATM    6  N   UNL     1      -7.295  11.613  68.840  1.00  0.00    -0.117 NA 
HETATM    7  C   UNL     1      -8.120  11.978  67.766  1.00  0.00    -0.149 A  
HETATM    8  N   UNL     1      -8.093  13.288  67.613  1.00  0.00    -0.160 NA 
HETATM    9  C   UNL     1      -6.760  12.775  69.386  1.00  0.00    -0.018 A  
HETATM   10  C   UNL     1      -5.878  13.076  70.448  1.00  0.00    -0.152 A  
HETATM   11  C   UNL     1      -7.285  13.791  68.597  1.00  0.00    -0.109 A  
HETATM   12  C   UNL     1      -5.538  14.403  70.707  1.00  0.00    -0.168 A  
HETATM   13  C   UNL     1      -6.934  15.130  68.865  1.00  0.00    -0.124 A  
HETATM   14  C   UNL     1      -6.065  15.426  69.925  1.00  0.00    -0.152 A  
BRANCH   7  15
HETATM   15  N   UNL     1      -8.754  11.100  66.921  1.00  0.00    -0.148 NA 
HETATM   16  N   UNL     1     -10.874  11.130  64.332  1.00  0.00    -0.320 NA 
HETATM   17  C   UNL     1      -8.345  10.796  64.427  1.00  0.00     0.052 C  
HETATM   18  C   UNL     1     -10.738  11.864  65.600  1.00  0.00    -0.280 C  
HETATM   19  C   UNL     1      -7.951  10.450  65.870  1.00  0.00    -0.151 C  
HETATM   20  C   UNL     1     -11.162  12.067  63.247  1.00  0.00    -0.318 C  
HETATM   21  C   UNL     1     -10.209  11.018  66.771  1.00  0.00    -0.229 C  
HETATM   22  C   UNL     1      -9.727  10.268  64.020  1.00  0.00    -0.278 C  
ENDBRANCH   7  15
ENDBRANCH   5   6
ENDBRANCH   4   5
ENDBRANCH   3   4
ENDBRANCH   2   3
TORSDOF 5
ENDMDL
MODEL      221
REMARK 921   NORMALIZED FREE ENERGY PREDICTED BY IDOCK:   -2.73 KCAL/MOL
REMARK 922        TOTAL FREE ENERGY PREDICTED BY IDOCK:   -4.16 KCAL/MOL
REMARK 923 INTER-LIGAND FREE ENERGY PREDICTED BY IDOCK:   -3.42 KCAL/MOL
REMARK 924 INTRA-LIGAND FREE ENERGY PREDICTED BY IDOCK:   -0.74 KCAL/MOL
REMARK 927      BINDING AFFINITY PREDICTED BY RF-SCORE:    0.00 PKD
ROOT
HETATM    1  C   UNL     1      -5.271   2.019  71.025  1.00  0.00    -0.004 C  
HETATM    2  C   UNL     1      -5.704   3.177  71.890  1.00  0.00    -0.009 C  
ENDROOT
BRANCH   2   3
HETATM    3  O   UNL     1      -6.648   3.974  71.168  1.00  0.00    -0.025 OA 
BRANCH   3   4
HETATM    4  C   UNL     1      -7.638   4.446  72.081  1.00  0.00    -0.080 C  
BRANCH   4   5
HETATM    5  C   UNL     1      -9.046   4.249  71.559  1.00  0.00    -0.127 C  
BRANCH   5   6
HETATM    6  N   UNL     1      -9.633   5.349  70.812  1.00  0.00    -0.166 NA 
HETATM    7  C   UNL     1      -9.463   5.571  69.437  1.00  0.00    -0.133 A  
HETATM    8  N   UNL     1     -10.015   6.722  69.104  1.00  0.00    -0.157 NA 
HETATM    9  C   UNL     1     -10.353   6.418  71.334  1.00  0.00    -0.206 A  
HETATM   10  C   UNL     1     -10.828   6.784  72.613  1.00  0.00    -0.282 A  
HETATM   11  C   UNL     1     -10.573   7.244  70.239  1.00  0.00    -0.229 A  
HETATM   12  C   UNL     1     -11.526   7.980  72.774  1.00  0.00    -0.420 A  
HETATM   13  C   UNL     1     -11.278   8.453  70.411  1.00  0.00    -0.220 A  
HETATM   14  C   UNL     1     -11.755   8.809  71.681  1.00  0.00    -0.402 A  
BRANCH   7  15
HETATM   15  N   UNL     1      -8.725   4.777  68.593  1.00  0.00    -0.096 NA 
HETATM   16  N   UNL     1      -8.780   3.666  65.437  1.00  0.00    -0.115 NA 
HETATM   17  C   UNL     1      -7.413   5.516  66.542  1.00  0.00    -0.087 C  
HETATM   18  C   UNL     1      -9.771   3.881  66.503  1.00  0.00    -0.164 C  
HETATM   19  C   UNL     1      -7.462   5.320  68.063  1.00  0.00    -0.076 C  
HETATM   20  C   UNL     1      -9.296   4.184  64.171  1.00  0.00    -0.158 C  
HETATM   21  C   UNL     1      -9.253   3.587  67.921  1.00  0.00    -0.183 C  
HETATM   22  C   UNL     1      -7.450   4.205  65.748  1.00  0.00    -0.081 C  
ENDBRANCH   7  15
ENDBRANCH   5   6
ENDBRANCH   4   5
ENDBRANCH   3   4
ENDBRANCH   2   3
TORSDOF 5
ENDMDL
MODEL      222
REMARK 921   NORMALIZED FREE ENERGY PREDICTED BY IDOCK:   -2.72 KCAL/MOL
REMARK 922        TOTAL FREE ENERGY PREDICTED BY IDOCK:   -4.14 KCAL/MOL
REMARK 923 INTER-LIGAND FREE ENERGY PREDICTED BY IDOCK:   -3.62 KCAL/MOL
REMARK 924 INTRA-LIGAND FREE ENERGY PREDICTED BY IDOCK:   -0.52 KCAL/MOL
REMARK 927      BINDING AFFINITY PREDICTED BY RF-SCORE:    0.00 PKD
ROOT
HETATM    1  C   UNL     1      -9.479   6.471  73.054  1.00  0.00    -0.152 C  
HETATM    2  C   UNL     1      -8.546   7.506  73.631  1.00  0.00    -0.196 C  
ENDROOT
BRANCH   2   3
HETATM    3  O   UNL     1      -8.877   8.790  73.090  1.00  0.00    -0.310 OA 
BRANCH   3   4
HETATM    4  C   UNL     1      -9.496   8.601  71.819  1.00  0.00    -0.284 C  
BRANCH   4   5
HETATM    5  C   UNL     1      -8.667   9.164  70.683  1.00  0.00    -0.229 C  
BRANCH   5   6
HETATM    6  N   UNL     1      -9.050   8.782  69.334  1.00  0.00    -0.144 NA 
HETATM    7  C   UNL     1      -8.957   7.486  68.806  1.00  0.00    -0.129 A  
HETATM    8  N   UNL     1      -9.256   7.509  67.521  1.00  0.00    -0.127 NA 
HETATM    9  C   UNL     1      -9.454   9.635  68.312  1.00  0.00    -0.136 A  
HETATM   10  C   UNL     1      -9.716  11.018  68.199  1.00  0.00    -0.180 A  
HETATM   11  C   UNL     1      -9.576   8.803  67.207  1.00  0.00    -0.165 A  
HETATM   12  C   UNL     1     -10.102  11.549  66.969  1.00  0.00    -0.237 A  
HETATM   13  C   UNL     1      -9.964   9.348  65.966  1.00  0.00    -0.352 A  
HETATM   14  C   UNL     1     -10.231  10.721  65.859  1.00  0.00    -0.319 A  
BRANCH   7  15
HETATM   15  N   UNL     1      -8.501   6.384  69.488  1.00  0.00    -0.132 NA 
HETATM   16  N   UNL     1      -8.123   3.088  69.052  1.00  0.00    -0.055 NA 
HETATM   17  C   UNL     1      -6.432   4.998  68.964  1.00  0.00    -0.036 C  
HETATM   18  C   UNL     1      -9.145   4.092  68.715  1.00  0.00    -0.134 C  
HETATM   19  C   UNL     1      -7.045   6.226  69.650  1.00  0.00    -0.073 C  
HETATM   20  C   UNL     1      -7.883   2.222  67.898  1.00  0.00    -0.059 C  
HETATM   21  C   UNL     1      -9.318   5.200  69.768  1.00  0.00    -0.129 C  
HETATM   22  C   UNL     1      -6.877   3.663  69.574  1.00  0.00    -0.041 C  
ENDBRANCH   7  15
ENDBRANCH   5   6
ENDBRANCH   4   5
ENDBRANCH   3   4
ENDBRANCH   2   3
TORSDOF 5
ENDMDL
MODEL      223
REMARK 921   NORMALIZED FREE ENERGY PREDICTED BY IDOCK:   -2.71 KCAL/MOL
REMARK 922        TOTAL FREE ENERGY PREDICTED BY IDOCK:   -4.13 KCAL/MOL
REMARK 923 INTER-LIGAND FREE ENERGY PREDICTED BY IDOCK:   -4.08 KCAL/MOL
REMARK 924 INTRA-LIGAND FREE ENERGY PREDICTED BY IDOCK:   -0.05 KCAL/MOL
REMARK 927      BINDING AFFINITY PREDICTED BY RF-SCORE:    0.00 PKD
ROOT
HETATM    1  C   UNL     1      -8.851  10.145  64.592  1.00  0.00    -0.220 C  
HETATM    2  C   UNL     1     -10.060   9.726  65.390  1.00  0.00    -0.126 C  
ENDROOT
BRANCH   2   3
HETATM    3  O   UNL     1      -9.632   9.224  66.661  1.00  0.00    -0.173 OA 
BRANCH   3   4
HETATM    4  C   UNL     1     -10.693   9.397  67.599  1.00  0.00    -0.230 C  
BRANCH   4   5
HETATM    5  C   UNL     1     -10.499  10.617  68.474  1.00  0.00    -0.191 C  
BRANCH   5   6
HETATM    6  N   UNL     1      -9.132  11.055  68.703  1.00  0.00    -0.172 NA 
HETATM    7  C   UNL     1      -8.641  12.340  68.429  1.00  0.00    -0.136 A  
HETATM    8  N   UNL     1      -7.335  12.364  68.624  1.00  0.00    -0.108 NA 
HETATM    9  C   UNL     1      -8.064  10.264  69.113  1.00  0.00    -0.138 A  
HETATM   10  C   UNL     1      -7.901   8.918  69.511  1.00  0.00    -0.094 A  
HETATM   11  C   UNL     1      -6.969  11.118  69.054  1.00  0.00    -0.101 A  
HETATM   12  C   UNL     1      -6.633   8.448  69.850  1.00  0.00    -0.038 A  
HETATM   13  C   UNL     1      -5.691  10.633  69.397  1.00  0.00    -0.038 A  
HETATM   14  C   UNL     1      -5.534   9.299  69.800  1.00  0.00    -0.033 A  
BRANCH   7  15
HETATM   15  N   UNL     1      -9.379  13.376  67.914  1.00  0.00    -0.208 NA 
HETATM   16  N   UNL     1     -11.740  13.928  65.607  1.00  0.00    -0.341 NA 
HETATM   17  C   UNL     1     -11.886  13.745  68.148  1.00  0.00    -0.411 C  
HETATM   18  C   UNL     1     -10.525  13.105  65.704  1.00  0.00    -0.282 C  
HETATM   19  C   UNL     1     -10.478  13.917  68.734  1.00  0.00    -0.221 C  
HETATM   20  C   UNL     1     -12.829  13.136  65.036  1.00  0.00    -0.302 C  
HETATM   21  C   UNL     1      -9.378  13.755  66.498  1.00  0.00    -0.233 C  
HETATM   22  C   UNL     1     -12.129  14.562  66.873  1.00  0.00    -0.281 C  
ENDBRANCH   7  15
ENDBRANCH   5   6
ENDBRANCH   4   5
ENDBRANCH   3   4
ENDBRANCH   2   3
TORSDOF 5
ENDMDL
MODEL      224
REMARK 921   NORMALIZED FREE ENERGY PREDICTED BY IDOCK:   -2.69 KCAL/MOL
REMARK 922        TOTAL FREE ENERGY PREDICTED BY IDOCK:   -4.11 KCAL/MOL
REMARK 923 INTER-LIGAND FREE ENERGY PREDICTED BY IDOCK:   -3.56 KCAL/MOL
REMARK 924 INTRA-LIGAND FREE ENERGY PREDICTED BY IDOCK:   -0.55 KCAL/MOL
REMARK 927      BINDING AFFINITY PREDICTED BY RF-SCORE:    0.00 PKD
ROOT
HETATM    1  C   UNL     1      -9.565   7.386  71.464  1.00  0.00    -0.163 C  
HETATM    2  C   UNL     1     -10.517   8.500  71.106  1.00  0.00    -0.221 C  
ENDROOT
BRANCH   2   3
HETATM    3  O   UNL     1     -10.079   9.119  69.892  1.00  0.00    -0.185 OA 
BRANCH   3   4
HETATM    4  C   UNL     1     -10.991   8.772  68.851  1.00  0.00     0.099 C  
BRANCH   4   5
HETATM    5  C   UNL     1     -10.470   9.144  67.479  1.00  0.00    -0.270 C  
BRANCH   5   6
HETATM    6  N   UNL     1      -9.795  10.425  67.353  1.00  0.00    -0.174 NA 
HETATM    7  C   UNL     1      -8.425  10.594  67.103  1.00  0.00    -0.128 A  
HETATM    8  N   UNL     1      -8.116  11.874  67.182  1.00  0.00    -0.166 NA 
HETATM    9  C   UNL     1     -10.351  11.681  67.569  1.00  0.00    -0.197 A  
HETATM   10  C   UNL     1     -11.641  12.175  67.868  1.00  0.00    -0.413 A  
HETATM   11  C   UNL     1      -9.275  12.552  67.449  1.00  0.00    -0.186 A  
HETATM   12  C   UNL     1     -11.833  13.545  68.039  1.00  0.00    -0.400 A  
HETATM   13  C   UNL     1      -9.478  13.936  67.626  1.00  0.00    -0.212 A  
HETATM   14  C   UNL     1     -10.761  14.423  67.914  1.00  0.00    -0.246 A  
BRANCH   7  15
HETATM   15  N   UNL     1      -7.521   9.575  66.932  1.00  0.00    -0.094 NA 
HETATM   16  N   UNL     1      -6.962   6.452  67.997  1.00  0.00    -0.074 NA 
HETATM   17  C   UNL     1      -7.926   7.330  65.804  1.00  0.00    -0.122 C  
HETATM   18  C   UNL     1      -7.418   7.713  68.603  1.00  0.00    -0.103 C  
HETATM   19  C   UNL     1      -7.565   8.816  65.670  1.00  0.00    -0.086 C  
HETATM   20  C   UNL     1      -7.811   5.351  68.452  1.00  0.00    -0.084 C  
HETATM   21  C   UNL     1      -6.752   8.973  68.025  1.00  0.00    -0.068 C  
HETATM   22  C   UNL     1      -6.863   6.499  66.534  1.00  0.00    -0.065 C  
ENDBRANCH   7  15
ENDBRANCH   5   6
ENDBRANCH   4   5
ENDBRANCH   3   4
ENDBRANCH   2   3
TORSDOF 5
ENDMDL
MODEL      225
REMARK 921   NORMALIZED FREE ENERGY PREDICTED BY IDOCK:   -2.69 KCAL/MOL
REMARK 922        TOTAL FREE ENERGY PREDICTED BY IDOCK:   -4.11 KCAL/MOL
REMARK 923 INTER-LIGAND FREE ENERGY PREDICTED BY IDOCK:   -3.40 KCAL/MOL
REMARK 924 INTRA-LIGAND FREE ENERGY PREDICTED BY IDOCK:   -0.71 KCAL/MOL
REMARK 927      BINDING AFFINITY PREDICTED BY RF-SCORE:    0.00 PKD
ROOT
HETATM    1  C   UNL     1      -9.561   2.977  70.374  1.00  0.00    -0.170 C  
HETATM    2  C   UNL     1      -8.360   3.868  70.573  1.00  0.00    -0.061 C  
ENDROOT
BRANCH   2   3
HETATM    3  O   UNL     1      -8.165   4.661  69.397  1.00  0.00    -0.072 OA 
BRANCH   3   4
HETATM    4  C   UNL     1      -9.409   4.762  68.706  1.00  0.00    -0.134 C  
BRANCH   4   5
HETATM    5  C   UNL     1      -9.841   6.199  68.502  1.00  0.00    -0.137 C  
BRANCH   5   6
HETATM    6  N   UNL     1      -8.799   7.166  68.197  1.00  0.00    -0.127 NA 
HETATM    7  C   UNL     1      -8.405   8.218  69.036  1.00  0.00    -0.120 A  
HETATM    8  N   UNL     1      -7.535   8.984  68.405  1.00  0.00    -0.082 NA 
HETATM    9  C   UNL     1      -8.106   7.289  66.997  1.00  0.00    -0.117 A  
HETATM   10  C   UNL     1      -8.062   6.573  65.780  1.00  0.00    -0.128 A  
HETATM   11  C   UNL     1      -7.329   8.427  67.172  1.00  0.00    -0.085 A  
HETATM   12  C   UNL     1      -7.230   7.011  64.752  1.00  0.00    -0.072 A  
HETATM   13  C   UNL     1      -6.492   8.865  66.125  1.00  0.00    -0.065 A  
HETATM   14  C   UNL     1      -6.445   8.146  64.922  1.00  0.00    -0.049 A  
BRANCH   7  15
HETATM   15  N   UNL     1      -8.937   8.485  70.274  1.00  0.00    -0.144 NA 
HETATM   16  N   UNL     1     -11.895   8.461  71.839  1.00  0.00    -0.312 NA 
HETATM   17  C   UNL     1      -9.944   6.816  71.910  1.00  0.00    -0.187 C  
HETATM   18  C   UNL     1     -11.402   8.855  70.510  1.00  0.00    -0.234 C  
HETATM   19  C   UNL     1      -8.695   7.514  71.355  1.00  0.00    -0.124 C  
HETATM   20  C   UNL     1     -13.129   7.688  71.699  1.00  0.00    -0.353 C  
HETATM   21  C   UNL     1      -9.994   9.473  70.512  1.00  0.00    -0.273 C  
HETATM   22  C   UNL     1     -10.898   7.758  72.656  1.00  0.00    -0.354 C  
ENDBRANCH   7  15
ENDBRANCH   5   6
ENDBRANCH   4   5
ENDBRANCH   3   4
ENDBRANCH   2   3
TORSDOF 5
ENDMDL
MODEL      226
REMARK 921   NORMALIZED FREE ENERGY PREDICTED BY IDOCK:   -2.68 KCAL/MOL
REMARK 922        TOTAL FREE ENERGY PREDICTED BY IDOCK:   -4.09 KCAL/MOL
REMARK 923 INTER-LIGAND FREE ENERGY PREDICTED BY IDOCK:   -3.45 KCAL/MOL
REMARK 924 INTRA-LIGAND FREE ENERGY PREDICTED BY IDOCK:   -0.64 KCAL/MOL
REMARK 927      BINDING AFFINITY PREDICTED BY RF-SCORE:    0.00 PKD
ROOT
HETATM    1  C   UNL     1      -7.497   1.763  70.821  1.00  0.00    -0.033 C  
HETATM    2  C   UNL     1      -8.171   3.013  71.331  1.00  0.00    -0.063 C  
ENDROOT
BRANCH   2   3
HETATM    3  O   UNL     1      -8.451   3.879  70.226  1.00  0.00    -0.059 OA 
BRANCH   3   4
HETATM    4  C   UNL     1      -9.866   3.980  70.075  1.00  0.00    -0.128 C  
BRANCH   4   5
HETATM    5  C   UNL     1     -10.279   5.227  69.321  1.00  0.00    -0.231 C  
BRANCH   5   6
HETATM    6  N   UNL     1      -9.372   5.707  68.291  1.00  0.00    -0.110 NA 
HETATM    7  C   UNL     1      -8.620   6.888  68.367  1.00  0.00    -0.125 A  
HETATM    8  N   UNL     1      -8.009   7.097  67.216  1.00  0.00    -0.110 NA 
HETATM    9  C   UNL     1      -9.182   5.156  67.028  1.00  0.00    -0.117 A  
HETATM   10  C   UNL     1      -9.652   4.011  66.347  1.00  0.00    -0.217 A  
HETATM   11  C   UNL     1      -8.325   6.048  66.396  1.00  0.00    -0.118 A  
HETATM   12  C   UNL     1      -9.249   3.775  65.034  1.00  0.00    -0.149 A  
HETATM   13  C   UNL     1      -7.924   5.803  65.067  1.00  0.00    -0.121 A  
HETATM   14  C   UNL     1      -8.387   4.661  64.397  1.00  0.00    -0.118 A  
BRANCH   7  15
HETATM   15  N   UNL     1      -8.622   7.761  69.427  1.00  0.00    -0.134 NA 
HETATM   16  N   UNL     1     -10.742   9.032  71.683  1.00  0.00    -0.348 NA 
HETATM   17  C   UNL     1      -8.977   7.199  71.883  1.00  0.00    -0.135 C  
HETATM   18  C   UNL     1     -10.788   8.711  70.248  1.00  0.00    -0.235 C  
HETATM   19  C   UNL     1      -8.015   7.313  70.692  1.00  0.00    -0.099 C  
HETATM   20  C   UNL     1     -11.961   8.554  72.335  1.00  0.00    -0.364 C  
HETATM   21  C   UNL     1      -9.467   8.957  69.499  1.00  0.00    -0.159 C  
HETATM   22  C   UNL     1      -9.533   8.547  72.360  1.00  0.00    -0.280 C  
ENDBRANCH   7  15
ENDBRANCH   5   6
ENDBRANCH   4   5
ENDBRANCH   3   4
ENDBRANCH   2   3
TORSDOF 5
ENDMDL
MODEL      227
REMARK 921   NORMALIZED FREE ENERGY PREDICTED BY IDOCK:   -2.64 KCAL/MOL
REMARK 922        TOTAL FREE ENERGY PREDICTED BY IDOCK:   -4.04 KCAL/MOL
REMARK 923 INTER-LIGAND FREE ENERGY PREDICTED BY IDOCK:   -3.80 KCAL/MOL
REMARK 924 INTRA-LIGAND FREE ENERGY PREDICTED BY IDOCK:   -0.24 KCAL/MOL
REMARK 927      BINDING AFFINITY PREDICTED BY RF-SCORE:    0.00 PKD
ROOT
HETATM    1  C   UNL     1     -11.550  12.572  66.751  1.00  0.00    -0.446 C  
HETATM    2  C   UNL     1     -11.651  11.531  67.838  1.00  0.00    -0.282 C  
ENDROOT
BRANCH   2   3
HETATM    3  O   UNL     1     -10.499  11.623  68.683  1.00  0.00    -0.203 OA 
BRANCH   3   4
HETATM    4  C   UNL     1     -10.515  10.526  69.595  1.00  0.00    -0.219 C  
BRANCH   4   5
HETATM    5  C   UNL     1      -9.178   9.820  69.674  1.00  0.00    -0.223 C  
BRANCH   5   6
HETATM    6  N   UNL     1      -8.810   8.975  68.549  1.00  0.00    -0.133 NA 
HETATM    7  C   UNL     1      -7.763   9.237  67.654  1.00  0.00    -0.092 A  
HETATM    8  N   UNL     1      -7.784   8.349  66.678  1.00  0.00    -0.089 NA 
HETATM    9  C   UNL     1      -9.487   7.846  68.102  1.00  0.00    -0.147 A  
HETATM   10  C   UNL     1     -10.602   7.099  68.542  1.00  0.00    -0.219 A  
HETATM   11  C   UNL     1      -8.814   7.487  66.940  1.00  0.00    -0.135 A  
HETATM   12  C   UNL     1     -11.026   5.993  67.807  1.00  0.00    -0.333 A  
HETATM   13  C   UNL     1      -9.250   6.368  66.202  1.00  0.00    -0.132 A  
HETATM   14  C   UNL     1     -10.353   5.624  66.647  1.00  0.00    -0.311 A  
BRANCH   7  15
HETATM   15  N   UNL     1      -6.926  10.324  67.711  1.00  0.00    -0.082 NA 
HETATM   16  N   UNL     1      -7.077  13.644  68.104  1.00  0.00    -0.102 NA 
HETATM   17  C   UNL     1      -6.440  11.788  69.735  1.00  0.00    -0.094 C  
HETATM   18  C   UNL     1      -7.856  12.625  67.383  1.00  0.00    -0.175 C  
HETATM   19  C   UNL     1      -6.126  10.517  68.933  1.00  0.00    -0.040 C  
HETATM   20  C   UNL     1      -7.983  14.560  68.797  1.00  0.00    -0.142 C  
HETATM   21  C   UNL     1      -7.017  11.474  66.805  1.00  0.00    -0.108 C  
HETATM   22  C   UNL     1      -6.065  13.086  69.009  1.00  0.00    -0.089 C  
ENDBRANCH   7  15
ENDBRANCH   5   6
ENDBRANCH   4   5
ENDBRANCH   3   4
ENDBRANCH   2   3
TORSDOF 5
ENDMDL
MODEL      228
REMARK 921   NORMALIZED FREE ENERGY PREDICTED BY IDOCK:   -2.62 KCAL/MOL
REMARK 922        TOTAL FREE ENERGY PREDICTED BY IDOCK:   -4.02 KCAL/MOL
REMARK 923 INTER-LIGAND FREE ENERGY PREDICTED BY IDOCK:   -3.85 KCAL/MOL
REMARK 924 INTRA-LIGAND FREE ENERGY PREDICTED BY IDOCK:   -0.17 KCAL/MOL
REMARK 927      BINDING AFFINITY PREDICTED BY RF-SCORE:    0.00 PKD
ROOT
HETATM    1  C   UNL     1     -10.215  18.590  67.997  1.00  0.00    -0.415 C  
HETATM    2  C   UNL     1     -10.954  17.474  68.693  1.00  0.00     0.076 C  
ENDROOT
BRANCH   2   3
HETATM    3  O   UNL     1     -10.367  16.222  68.323  1.00  0.00    -0.252 OA 
BRANCH   3   4
HETATM    4  C   UNL     1     -10.612  15.997  66.936  1.00  0.00    -0.300 C  
BRANCH   4   5
HETATM    5  C   UNL     1      -9.691  14.948  66.348  1.00  0.00    -0.285 C  
BRANCH   5   6
HETATM    6  N   UNL     1      -8.313  14.946  66.810  1.00  0.00    -0.188 NA 
HETATM    7  C   UNL     1      -7.710  13.914  67.544  1.00  0.00    -0.179 A  
HETATM    8  N   UNL     1      -6.500  14.285  67.917  1.00  0.00    -0.152 NA 
HETATM    9  C   UNL     1      -7.402  15.993  66.712  1.00  0.00    -0.151 A  
HETATM   10  C   UNL     1      -7.403  17.278  66.126  1.00  0.00    -0.316 A  
HETATM   11  C   UNL     1      -6.289  15.538  67.409  1.00  0.00    -0.072 A  
HETATM   12  C   UNL     1      -6.277  18.091  66.244  1.00  0.00    -0.245 A  
HETATM   13  C   UNL     1      -5.156  16.368  67.526  1.00  0.00    -0.149 A  
HETATM   14  C   UNL     1      -5.158  17.640  66.935  1.00  0.00    -0.170 A  
BRANCH   7  15
HETATM   15  N   UNL     1      -8.329  12.749  67.926  1.00  0.00    -0.160 NA 
HETATM   16  N   UNL     1      -8.971   9.689  66.733  1.00  0.00    -0.137 NA 
HETATM   17  C   UNL     1      -7.227  10.506  68.408  1.00  0.00    -0.080 C  
HETATM   18  C   UNL     1      -8.970  11.058  66.195  1.00  0.00    -0.191 C  
HETATM   19  C   UNL     1      -7.645  11.894  68.912  1.00  0.00    -0.036 C  
HETATM   20  C   UNL     1      -8.304   8.788  65.793  1.00  0.00    -0.134 C  
HETATM   21  C   UNL     1      -9.438  12.133  67.190  1.00  0.00    -0.190 C  
HETATM   22  C   UNL     1      -8.410   9.584  68.085  1.00  0.00    -0.118 C  
ENDBRANCH   7  15
ENDBRANCH   5   6
ENDBRANCH   4   5
ENDBRANCH   3   4
ENDBRANCH   2   3
TORSDOF 5
ENDMDL
MODEL      229
REMARK 921   NORMALIZED FREE ENERGY PREDICTED BY IDOCK:   -2.60 KCAL/MOL
REMARK 922        TOTAL FREE ENERGY PREDICTED BY IDOCK:   -3.99 KCAL/MOL
REMARK 923 INTER-LIGAND FREE ENERGY PREDICTED BY IDOCK:   -3.42 KCAL/MOL
REMARK 924 INTRA-LIGAND FREE ENERGY PREDICTED BY IDOCK:   -0.57 KCAL/MOL
REMARK 927      BINDING AFFINITY PREDICTED BY RF-SCORE:    0.00 PKD
ROOT
HETATM    1  C   UNL     1      -5.300   3.551  70.930  1.00  0.00    -0.008 C  
HETATM    2  C   UNL     1      -6.046   3.898  72.194  1.00  0.00    -0.013 C  
ENDROOT
BRANCH   2   3
HETATM    3  O   UNL     1      -7.301   4.496  71.849  1.00  0.00    -0.068 OA 
BRANCH   3   4
HETATM    4  C   UNL     1      -7.152   5.180  70.606  1.00  0.00    -0.057 C  
BRANCH   4   5
HETATM    5  C   UNL     1      -7.487   6.652  70.712  1.00  0.00    -0.087 C  
BRANCH   5   6
HETATM    6  N   UNL     1      -8.852   7.044  70.399  1.00  0.00    -0.154 NA 
HETATM    7  C   UNL     1      -9.220   7.944  69.388  1.00  0.00    -0.145 A  
HETATM    8  N   UNL     1     -10.516   8.180  69.458  1.00  0.00    -0.226 NA 
HETATM    9  C   UNL     1      -9.999   6.695  71.104  1.00  0.00    -0.182 A  
HETATM   10  C   UNL     1     -10.290   5.861  72.206  1.00  0.00    -0.236 A  
HETATM   11  C   UNL     1     -11.009   7.419  70.483  1.00  0.00    -0.253 A  
HETATM   12  C   UNL     1     -11.600   5.763  72.670  1.00  0.00    -0.304 A  
HETATM   13  C   UNL     1     -12.332   7.315  70.960  1.00  0.00    -0.335 A  
HETATM   14  C   UNL     1     -12.618   6.480  72.049  1.00  0.00    -0.212 A  
BRANCH   7  15
HETATM   15  N   UNL     1      -8.348   8.581  68.539  1.00  0.00    -0.123 NA 
HETATM   16  N   UNL     1      -8.185   9.636  65.368  1.00  0.00    -0.123 NA 
HETATM   17  C   UNL     1      -8.596  10.909  67.541  1.00  0.00    -0.127 C  
HETATM   18  C   UNL     1      -8.705   8.450  66.065  1.00  0.00    -0.157 C  
HETATM   19  C   UNL     1      -8.146  10.030  68.717  1.00  0.00    -0.106 C  
HETATM   20  C   UNL     1      -9.163  10.099  64.384  1.00  0.00    -0.258 C  
HETATM   21  C   UNL     1      -7.869   8.007  67.278  1.00  0.00    -0.109 C  
HETATM   22  C   UNL     1      -7.762  10.715  66.269  1.00  0.00    -0.143 C  
ENDBRANCH   7  15
ENDBRANCH   5   6
ENDBRANCH   4   5
ENDBRANCH   3   4
ENDBRANCH   2   3
TORSDOF 5
ENDMDL
MODEL      230
REMARK 921   NORMALIZED FREE ENERGY PREDICTED BY IDOCK:   -2.59 KCAL/MOL
REMARK 922        TOTAL FREE ENERGY PREDICTED BY IDOCK:   -3.98 KCAL/MOL
REMARK 923 INTER-LIGAND FREE ENERGY PREDICTED BY IDOCK:   -4.09 KCAL/MOL
REMARK 924 INTRA-LIGAND FREE ENERGY PREDICTED BY IDOCK:    0.10 KCAL/MOL
REMARK 927      BINDING AFFINITY PREDICTED BY RF-SCORE:    0.00 PKD
ROOT
HETATM    1  C   UNL     1      -6.622  11.361  69.564  1.00  0.00    -0.129 C  
HETATM    2  C   UNL     1      -6.702  10.053  70.311  1.00  0.00    -0.137 C  
ENDROOT
BRANCH   2   3
HETATM    3  O   UNL     1      -7.055   9.011  69.394  1.00  0.00    -0.055 OA 
BRANCH   3   4
HETATM    4  C   UNL     1      -7.902   8.081  70.067  1.00  0.00    -0.104 C  
BRANCH   4   5
HETATM    5  C   UNL     1      -9.109   7.694  69.239  1.00  0.00    -0.145 C  
BRANCH   5   6
HETATM    6  N   UNL     1     -10.162   8.688  69.100  1.00  0.00    -0.204 NA 
HETATM    7  C   UNL     1     -10.423   9.428  67.938  1.00  0.00    -0.243 A  
HETATM    8  N   UNL     1     -11.351  10.332  68.190  1.00  0.00    -0.256 NA 
HETATM    9  C   UNL     1     -11.000   9.155  70.107  1.00  0.00    -0.239 A  
HETATM   10  C   UNL     1     -11.214   8.840  71.467  1.00  0.00    -0.377 A  
HETATM   11  C   UNL     1     -11.725  10.171  69.497  1.00  0.00    -0.061 A  
HETATM   12  C   UNL     1     -12.162   9.554  72.199  1.00  0.00    -0.282 A  
HETATM   13  C   UNL     1     -12.680  10.889  70.245  1.00  0.00    -0.285 A  
HETATM   14  C   UNL     1     -12.895  10.569  71.594  1.00  0.00    -0.581 A  
BRANCH   7  15
HETATM   15  N   UNL     1      -9.731   9.318  66.757  1.00  0.00    -0.183 NA 
HETATM   16  N   UNL     1      -6.695   9.965  65.508  1.00  0.00    -0.087 NA 
HETATM   17  C   UNL     1      -7.769   7.776  66.261  1.00  0.00    -0.089 C  
HETATM   18  C   UNL     1      -7.631  10.638  66.423  1.00  0.00    -0.138 C  
HETATM   19  C   UNL     1      -9.289   7.977  66.338  1.00  0.00    -0.200 C  
HETATM   20  C   UNL     1      -5.342  10.015  66.062  1.00  0.00    -0.046 C  
HETATM   21  C   UNL     1      -9.115  10.452  66.063  1.00  0.00    -0.162 C  
HETATM   22  C   UNL     1      -7.092   8.597  65.156  1.00  0.00    -0.086 C  
ENDBRANCH   7  15
ENDBRANCH   5   6
ENDBRANCH   4   5
ENDBRANCH   3   4
ENDBRANCH   2   3
TORSDOF 5
ENDMDL
MODEL      231
REMARK 921   NORMALIZED FREE ENERGY PREDICTED BY IDOCK:   -2.55 KCAL/MOL
REMARK 922        TOTAL FREE ENERGY PREDICTED BY IDOCK:   -3.93 KCAL/MOL
REMARK 923 INTER-LIGAND FREE ENERGY PREDICTED BY IDOCK:   -3.63 KCAL/MOL
REMARK 924 INTRA-LIGAND FREE ENERGY PREDICTED BY IDOCK:   -0.30 KCAL/MOL
REMARK 927      BINDING AFFINITY PREDICTED BY RF-SCORE:    0.00 PKD
ROOT
HETATM    1  C   UNL     1      -5.546  17.291  70.392  1.00  0.00    -0.197 C  
HETATM    2  C   UNL     1      -5.479  15.792  70.240  1.00  0.00    -0.156 C  
ENDROOT
BRANCH   2   3
HETATM    3  O   UNL     1      -6.586  15.351  69.446  1.00  0.00    -0.133 OA 
BRANCH   3   4
HETATM    4  C   UNL     1      -6.123  14.363  68.528  1.00  0.00    -0.091 C  
BRANCH   4   5
HETATM    5  C   UNL     1      -7.205  13.910  67.571  1.00  0.00    -0.161 C  
BRANCH   5   6
HETATM    6  N   UNL     1      -7.781  12.595  67.799  1.00  0.00    -0.131 NA 
HETATM    7  C   UNL     1      -9.153  12.305  67.800  1.00  0.00    -0.191 A  
HETATM    8  N   UNL     1      -9.340  11.053  68.171  1.00  0.00    -0.166 NA 
HETATM    9  C   UNL     1      -7.097  11.441  68.166  1.00  0.00    -0.075 A  
HETATM   10  C   UNL     1      -5.742  11.089  68.354  1.00  0.00    -0.042 A  
HETATM   11  C   UNL     1      -8.103  10.507  68.383  1.00  0.00    -0.119 A  
HETATM   12  C   UNL     1      -5.414   9.794  68.754  1.00  0.00    -0.036 A  
HETATM   13  C   UNL     1      -7.763   9.201  68.790  1.00  0.00    -0.087 A  
HETATM   14  C   UNL     1      -6.416   8.853  68.967  1.00  0.00    -0.047 A  
BRANCH   7  15
HETATM   15  N   UNL     1     -10.155  13.218  67.576  1.00  0.00    -0.221 NA 
HETATM   16  N   UNL     1     -10.757  16.489  67.946  1.00  0.00    -0.335 NA 
HETATM   17  C   UNL     1     -10.157  15.116  65.881  1.00  0.00    -0.349 C  
HETATM   18  C   UNL     1     -10.092  15.437  68.732  1.00  0.00    -0.213 C  
HETATM   19  C   UNL     1     -10.413  13.633  66.186  1.00  0.00    -0.297 C  
HETATM   20  C   UNL     1      -9.932  17.696  67.939  1.00  0.00    -0.323 C  
HETATM   21  C   UNL     1     -10.750  14.051  68.625  1.00  0.00    -0.259 C  
HETATM   22  C   UNL     1     -11.128  16.069  66.589  1.00  0.00     0.006 C  
ENDBRANCH   7  15
ENDBRANCH   5   6
ENDBRANCH   4   5
ENDBRANCH   3   4
ENDBRANCH   2   3
TORSDOF 5
ENDMDL
MODEL      232
REMARK 921   NORMALIZED FREE ENERGY PREDICTED BY IDOCK:   -2.54 KCAL/MOL
REMARK 922        TOTAL FREE ENERGY PREDICTED BY IDOCK:   -3.91 KCAL/MOL
REMARK 923 INTER-LIGAND FREE ENERGY PREDICTED BY IDOCK:   -3.22 KCAL/MOL
REMARK 924 INTRA-LIGAND FREE ENERGY PREDICTED BY IDOCK:   -0.69 KCAL/MOL
REMARK 927      BINDING AFFINITY PREDICTED BY RF-SCORE:    0.00 PKD
ROOT
HETATM    1  C   UNL     1     -12.167   8.988  71.623  1.00  0.00    -0.418 C  
HETATM    2  C   UNL     1     -11.798  10.294  70.964  1.00  0.00    -0.377 C  
ENDROOT
BRANCH   2   3
HETATM    3  O   UNL     1     -10.756  10.061  70.011  1.00  0.00    -0.257 OA 
BRANCH   3   4
HETATM    4  C   UNL     1     -10.684   8.660  69.751  1.00  0.00    -0.215 C  
BRANCH   4   5
HETATM    5  C   UNL     1      -9.258   8.169  69.618  1.00  0.00    -0.155 C  
BRANCH   5   6
HETATM    6  N   UNL     1      -8.599   8.390  68.342  1.00  0.00    -0.138 NA 
HETATM    7  C   UNL     1      -8.459   7.429  67.330  1.00  0.00    -0.118 A  
HETATM    8  N   UNL     1      -7.698   7.911  66.365  1.00  0.00    -0.094 NA 
HETATM    9  C   UNL     1      -7.902   9.530  67.953  1.00  0.00    -0.091 A  
HETATM   10  C   UNL     1      -7.656  10.802  68.516  1.00  0.00    -0.104 A  
HETATM   11  C   UNL     1      -7.363   9.191  66.718  1.00  0.00    -0.086 A  
HETATM   12  C   UNL     1      -6.871  11.722  67.824  1.00  0.00    -0.090 A  
HETATM   13  C   UNL     1      -6.568  10.127  66.026  1.00  0.00    -0.102 A  
HETATM   14  C   UNL     1      -6.333  11.392  66.584  1.00  0.00    -0.127 A  
BRANCH   7  15
HETATM   15  N   UNL     1      -8.932   6.142  67.390  1.00  0.00    -0.113 NA 
HETATM   16  N   UNL     1     -10.359   3.850  65.412  1.00  0.00    -0.056 NA 
HETATM   17  C   UNL     1      -7.958   4.089  66.244  1.00  0.00    -0.098 C  
HETATM   18  C   UNL     1     -10.481   5.303  65.611  1.00  0.00     0.157 C  
HETATM   19  C   UNL     1      -7.948   5.046  67.444  1.00  0.00    -0.096 C  
HETATM   20  C   UNL     1     -10.311   3.551  63.982  1.00  0.00    -0.242 C  
HETATM   21  C   UNL     1     -10.311   5.762  67.070  1.00  0.00    -0.250 C  
HETATM   22  C   UNL     1      -9.235   3.245  66.137  1.00  0.00    -0.149 C  
ENDBRANCH   7  15
ENDBRANCH   5   6
ENDBRANCH   4   5
ENDBRANCH   3   4
ENDBRANCH   2   3
TORSDOF 5
ENDMDL
MODEL      233
REMARK 921   NORMALIZED FREE ENERGY PREDICTED BY IDOCK:   -2.54 KCAL/MOL
REMARK 922        TOTAL FREE ENERGY PREDICTED BY IDOCK:   -3.91 KCAL/MOL
REMARK 923 INTER-LIGAND FREE ENERGY PREDICTED BY IDOCK:   -4.58 KCAL/MOL
REMARK 924 INTRA-LIGAND FREE ENERGY PREDICTED BY IDOCK:    0.67 KCAL/MOL
REMARK 927      BINDING AFFINITY PREDICTED BY RF-SCORE:    0.00 PKD
ROOT
HETATM    1  C   UNL     1     -11.986  15.625  69.372  1.00  0.00    -0.349 C  
HETATM    2  C   UNL     1     -10.874  14.971  70.154  1.00  0.00    -0.190 C  
ENDROOT
BRANCH   2   3
HETATM    3  O   UNL     1     -10.489  13.759  69.496  1.00  0.00     0.063 OA 
BRANCH   3   4
HETATM    4  C   UNL     1      -9.253  13.983  68.819  1.00  0.00    -0.050 C  
BRANCH   4   5
HETATM    5  C   UNL     1      -9.245  13.397  67.423  1.00  0.00    -0.213 C  
BRANCH   5   6
HETATM    6  N   UNL     1     -10.030  14.087  66.413  1.00  0.00    -0.285 NA 
HETATM    7  C   UNL     1     -10.670  13.470  65.328  1.00  0.00    -0.323 A  
HETATM    8  N   UNL     1     -11.179  14.391  64.533  1.00  0.00    -0.342 NA 
HETATM    9  C   UNL     1     -10.186  15.463  66.278  1.00  0.00    -0.290 A  
HETATM   10  C   UNL     1      -9.782  16.600  67.013  1.00  0.00    -0.253 A  
HETATM   11  C   UNL     1     -10.909  15.607  65.101  1.00  0.00    -0.431 A  
HETATM   12  C   UNL     1     -10.116  17.873  66.554  1.00  0.00    -0.370 A  
HETATM   13  C   UNL     1     -11.241  16.898  64.642  1.00  0.00     0.245 A  
HETATM   14  C   UNL     1     -10.845  18.024  65.379  1.00  0.00     0.242 A  
BRANCH   7  15
HETATM   15  N   UNL     1     -10.657  12.122  65.064  1.00  0.00    -0.280 NA 
HETATM   16  N   UNL     1      -9.061   9.917  63.117  1.00  0.00    -0.259 NA 
HETATM   17  C   UNL     1      -8.798  10.468  65.595  1.00  0.00    -0.197 C  
HETATM   18  C   UNL     1      -9.594  11.280  62.960  1.00  0.00    -0.377 C  
HETATM   19  C   UNL     1     -10.046  11.228  66.064  1.00  0.00    -0.239 C  
HETATM   20  C   UNL     1      -7.724   9.840  62.530  1.00  0.00    -0.118 C  
HETATM   21  C   UNL     1     -10.894  11.547  63.737  1.00  0.00    -0.416 C  
HETATM   22  C   UNL     1      -9.080   9.430  64.502  1.00  0.00    -0.150 C  
ENDBRANCH   7  15
ENDBRANCH   5   6
ENDBRANCH   4   5
ENDBRANCH   3   4
ENDBRANCH   2   3
TORSDOF 5
ENDMDL
MODEL      234
REMARK 921   NORMALIZED FREE ENERGY PREDICTED BY IDOCK:   -2.53 KCAL/MOL
REMARK 922        TOTAL FREE ENERGY PREDICTED BY IDOCK:   -3.90 KCAL/MOL
REMARK 923 INTER-LIGAND FREE ENERGY PREDICTED BY IDOCK:   -3.40 KCAL/MOL
REMARK 924 INTRA-LIGAND FREE ENERGY PREDICTED BY IDOCK:   -0.50 KCAL/MOL
REMARK 927      BINDING AFFINITY PREDICTED BY RF-SCORE:    0.00 PKD
ROOT
HETATM    1  C   UNL     1      -8.311   5.214  63.552  1.00  0.00    -0.128 C  
HETATM    2  C   UNL     1      -7.891   5.724  64.908  1.00  0.00    -0.113 C  
ENDROOT
BRANCH   2   3
HETATM    3  O   UNL     1      -8.982   6.438  65.499  1.00  0.00    -0.079 OA 
BRANCH   3   4
HETATM    4  C   UNL     1      -8.872   6.342  66.918  1.00  0.00    -0.115 C  
BRANCH   4   5
HETATM    5  C   UNL     1      -8.136   7.520  67.522  1.00  0.00    -0.113 C  
BRANCH   5   6
HETATM    6  N   UNL     1      -8.807   8.241  68.591  1.00  0.00    -0.134 NA 
HETATM    7  C   UNL     1      -9.280   9.558  68.501  1.00  0.00    -0.131 A  
HETATM    8  N   UNL     1      -9.713   9.953  69.683  1.00  0.00    -0.218 NA 
HETATM    9  C   UNL     1      -8.991   7.805  69.899  1.00  0.00    -0.146 A  
HETATM   10  C   UNL     1      -8.725   6.615  70.611  1.00  0.00    -0.143 A  
HETATM   11  C   UNL     1      -9.561   8.898  70.541  1.00  0.00    -0.202 A  
HETATM   12  C   UNL     1      -9.040   6.538  71.967  1.00  0.00    -0.140 A  
HETATM   13  C   UNL     1      -9.874   8.811  71.913  1.00  0.00    -0.395 A  
HETATM   14  C   UNL     1      -9.616   7.625  72.615  1.00  0.00    -0.235 A  
BRANCH   7  15
HETATM   15  N   UNL     1      -9.186  10.359  67.389  1.00  0.00    -0.142 NA 
HETATM   16  N   UNL     1      -7.390  10.623  64.578  1.00  0.00     0.101 NA 
HETATM   17  C   UNL     1      -9.745   9.729  64.988  1.00  0.00    -0.303 C  
HETATM   18  C   UNL     1      -7.114  10.296  65.986  1.00  0.00    -0.128 C  
HETATM   19  C   UNL     1     -10.229  10.230  66.355  1.00  0.00    -0.225 C  
HETATM   20  C   UNL     1      -6.696   9.676  63.706  1.00  0.00    -0.112 C  
HETATM   21  C   UNL     1      -7.969  11.076  66.999  1.00  0.00    -0.137 C  
HETATM   22  C   UNL     1      -8.821  10.713  64.260  1.00  0.00    -0.164 C  
ENDBRANCH   7  15
ENDBRANCH   5   6
ENDBRANCH   4   5
ENDBRANCH   3   4
ENDBRANCH   2   3
TORSDOF 5
ENDMDL
MODEL      235
REMARK 921   NORMALIZED FREE ENERGY PREDICTED BY IDOCK:   -2.52 KCAL/MOL
REMARK 922        TOTAL FREE ENERGY PREDICTED BY IDOCK:   -3.89 KCAL/MOL
REMARK 923 INTER-LIGAND FREE ENERGY PREDICTED BY IDOCK:   -3.27 KCAL/MOL
REMARK 924 INTRA-LIGAND FREE ENERGY PREDICTED BY IDOCK:   -0.62 KCAL/MOL
REMARK 927      BINDING AFFINITY PREDICTED BY RF-SCORE:    0.00 PKD
ROOT
HETATM    1  C   UNL     1      -5.962   8.387  72.916  1.00  0.00    -0.073 C  
HETATM    2  C   UNL     1      -5.363   7.418  71.927  1.00  0.00    -0.036 C  
ENDROOT
BRANCH   2   3
HETATM    3  O   UNL     1      -6.361   6.470  71.536  1.00  0.00    -0.041 OA 
BRANCH   3   4
HETATM    4  C   UNL     1      -6.484   5.490  72.565  1.00  0.00    -0.060 C  
BRANCH   4   5
HETATM    5  C   UNL     1      -7.746   4.663  72.428  1.00  0.00    -0.086 C  
BRANCH   5   6
HETATM    6  N   UNL     1      -8.406   4.676  71.133  1.00  0.00    -0.101 NA 
HETATM    7  C   UNL     1      -9.311   5.656  70.699  1.00  0.00    -0.159 A  
HETATM    8  N   UNL     1      -9.825   5.299  69.537  1.00  0.00    -0.180 NA 
HETATM    9  C   UNL     1      -8.352   3.681  70.163  1.00  0.00    -0.059 A  
HETATM   10  C   UNL     1      -7.659   2.459  70.010  1.00  0.00    -0.043 A  
HETATM   11  C   UNL     1      -9.244   4.110  69.188  1.00  0.00    -0.147 A  
HETATM   12  C   UNL     1      -7.871   1.684  68.871  1.00  0.00    -0.050 A  
HETATM   13  C   UNL     1      -9.454   3.319  68.040  1.00  0.00    -0.217 A  
HETATM   14  C   UNL     1      -8.758   2.110  67.889  1.00  0.00    -0.130 A  
BRANCH   7  15
HETATM   15  N   UNL     1      -9.699   6.753  71.428  1.00  0.00    -0.172 NA 
HETATM   16  N   UNL     1     -11.183   9.719  70.982  1.00  0.00    -0.358 NA 
HETATM   17  C   UNL     1     -12.078   7.517  71.910  1.00  0.00    -0.338 C  
HETATM   18  C   UNL     1     -10.190   8.911  70.257  1.00  0.00    -0.201 C  
HETATM   19  C   UNL     1     -10.888   6.625  72.289  1.00  0.00    -0.229 C  
HETATM   20  C   UNL     1     -12.172  10.246  70.042  1.00  0.00    -0.120 C  
HETATM   21  C   UNL     1      -9.233   8.117  71.162  1.00  0.00    -0.154 C  
HETATM   22  C   UNL     1     -11.814   9.016  72.105  1.00  0.00    -0.313 C  
ENDBRANCH   7  15
ENDBRANCH   5   6
ENDBRANCH   4   5
ENDBRANCH   3   4
ENDBRANCH   2   3
TORSDOF 5
ENDMDL
MODEL      236
REMARK 921   NORMALIZED FREE ENERGY PREDICTED BY IDOCK:   -2.51 KCAL/MOL
REMARK 922        TOTAL FREE ENERGY PREDICTED BY IDOCK:   -3.88 KCAL/MOL
REMARK 923 INTER-LIGAND FREE ENERGY PREDICTED BY IDOCK:   -3.35 KCAL/MOL
REMARK 924 INTRA-LIGAND FREE ENERGY PREDICTED BY IDOCK:   -0.54 KCAL/MOL
REMARK 927      BINDING AFFINITY PREDICTED BY RF-SCORE:    0.00 PKD
ROOT
HETATM    1  C   UNL     1      -6.609   4.109  73.575  1.00  0.00    -0.051 C  
HETATM    2  C   UNL     1      -7.353   5.300  74.125  1.00  0.00    -0.086 C  
ENDROOT
BRANCH   2   3
HETATM    3  O   UNL     1      -7.881   6.066  73.037  1.00  0.00    -0.104 OA 
BRANCH   3   4
HETATM    4  C   UNL     1      -9.303   5.948  73.046  1.00  0.00    -0.140 C  
BRANCH   4   5
HETATM    5  C   UNL     1      -9.934   6.456  71.767  1.00  0.00    -0.177 C  
BRANCH   5   6
HETATM    6  N   UNL     1      -9.569   5.775  70.535  1.00  0.00    -0.169 NA 
HETATM    7  C   UNL     1      -9.359   6.404  69.299  1.00  0.00    -0.137 A  
HETATM    8  N   UNL     1      -9.175   5.491  68.364  1.00  0.00    -0.111 NA 
HETATM    9  C   UNL     1      -9.481   4.401  70.340  1.00  0.00    -0.175 A  
HETATM   10  C   UNL     1      -9.601   3.257  71.160  1.00  0.00    -0.230 A  
HETATM   11  C   UNL     1      -9.231   4.269  68.980  1.00  0.00    -0.145 A  
HETATM   12  C   UNL     1      -9.463   1.989  70.598  1.00  0.00    -0.182 A  
HETATM   13  C   UNL     1      -9.095   2.983  68.420  1.00  0.00    -0.214 A  
HETATM   14  C   UNL     1      -9.206   1.849  69.238  1.00  0.00    -0.185 A  
BRANCH   7  15
HETATM   15  N   UNL     1      -9.457   7.755  69.071  1.00  0.00    -0.150 NA 
HETATM   16  N   UNL     1      -7.898  10.176  67.366  1.00  0.00    -0.102 NA 
HETATM   17  C   UNL     1     -10.060   8.907  66.884  1.00  0.00    -0.343 C  
HETATM   18  C   UNL     1      -7.490   9.006  68.159  1.00  0.00    -0.084 C  
HETATM   19  C   UNL     1     -10.529   8.229  68.178  1.00  0.00    -0.171 C  
HETATM   20  C   UNL     1      -7.122  10.228  66.127  1.00  0.00    -0.121 C  
HETATM   21  C   UNL     1      -8.390   8.714  69.371  1.00  0.00    -0.114 C  
HETATM   22  C   UNL     1      -9.342  10.244  67.111  1.00  0.00    -0.153 C  
ENDBRANCH   7  15
ENDBRANCH   5   6
ENDBRANCH   4   5
ENDBRANCH   3   4
ENDBRANCH   2   3
TORSDOF 5
ENDMDL
MODEL      237
REMARK 921   NORMALIZED FREE ENERGY PREDICTED BY IDOCK:   -2.50 KCAL/MOL
REMARK 922        TOTAL FREE ENERGY PREDICTED BY IDOCK:   -3.86 KCAL/MOL
REMARK 923 INTER-LIGAND FREE ENERGY PREDICTED BY IDOCK:   -3.28 KCAL/MOL
REMARK 924 INTRA-LIGAND FREE ENERGY PREDICTED BY IDOCK:   -0.58 KCAL/MOL
REMARK 927      BINDING AFFINITY PREDICTED BY RF-SCORE:    0.00 PKD
ROOT
HETATM    1  C   UNL     1     -10.209  11.050  67.169  1.00  0.00    -0.243 C  
HETATM    2  C   UNL     1      -8.815  11.199  67.726  1.00  0.00    -0.135 C  
ENDROOT
BRANCH   2   3
HETATM    3  O   UNL     1      -8.893  11.386  69.143  1.00  0.00     0.021 OA 
BRANCH   3   4
HETATM    4  C   UNL     1      -8.518  10.167  69.783  1.00  0.00    -0.128 C  
BRANCH   4   5
HETATM    5  C   UNL     1      -9.716   9.350  70.217  1.00  0.00    -0.246 C  
BRANCH   5   6
HETATM    6  N   UNL     1      -9.468   7.975  70.618  1.00  0.00    -0.161 NA 
HETATM    7  C   UNL     1      -9.071   6.943  69.756  1.00  0.00    -0.144 A  
HETATM    8  N   UNL     1      -9.064   5.797  70.412  1.00  0.00    -0.144 NA 
HETATM    9  C   UNL     1      -9.687   7.425  71.877  1.00  0.00    -0.155 A  
HETATM   10  C   UNL     1     -10.097   7.918  73.135  1.00  0.00    -0.362 A  
HETATM   11  C   UNL     1      -9.420   6.072  71.704  1.00  0.00    -0.148 A  
HETATM   12  C   UNL     1     -10.229   7.041  74.210  1.00  0.00    -0.147 A  
HETATM   13  C   UNL     1      -9.559   5.192  72.797  1.00  0.00    -0.165 A  
HETATM   14  C   UNL     1      -9.958   5.687  74.047  1.00  0.00    -0.216 A  
BRANCH   7  15
HETATM   15  N   UNL     1      -8.850   7.079  68.407  1.00  0.00    -0.124 NA 
HETATM   16  N   UNL     1      -7.391   5.439  65.881  1.00  0.00    -0.076 NA 
HETATM   17  C   UNL     1      -9.847   5.673  66.535  1.00  0.00    -0.195 C  
HETATM   18  C   UNL     1      -7.079   5.703  67.295  1.00  0.00    -0.074 C  
HETATM   19  C   UNL     1      -9.987   6.862  67.496  1.00  0.00    -0.149 C  
HETATM   20  C   UNL     1      -7.139   4.031  65.575  1.00  0.00    -0.063 C  
HETATM   21  C   UNL     1      -7.519   7.090  67.795  1.00  0.00    -0.098 C  
HETATM   22  C   UNL     1      -8.742   5.853  65.485  1.00  0.00    -0.129 C  
ENDBRANCH   7  15
ENDBRANCH   5   6
ENDBRANCH   4   5
ENDBRANCH   3   4
ENDBRANCH   2   3
TORSDOF 5
ENDMDL
MODEL      238
REMARK 921   NORMALIZED FREE ENERGY PREDICTED BY IDOCK:   -2.49 KCAL/MOL
REMARK 922        TOTAL FREE ENERGY PREDICTED BY IDOCK:   -3.85 KCAL/MOL
REMARK 923 INTER-LIGAND FREE ENERGY PREDICTED BY IDOCK:   -4.60 KCAL/MOL
REMARK 924 INTRA-LIGAND FREE ENERGY PREDICTED BY IDOCK:    0.74 KCAL/MOL
REMARK 927      BINDING AFFINITY PREDICTED BY RF-SCORE:    0.00 PKD
ROOT
HETATM    1  C   UNL     1      -6.782  18.543  69.774  1.00  0.00     0.031 C  
HETATM    2  C   UNL     1      -6.064  17.222  69.891  1.00  0.00    -0.189 C  
ENDROOT
BRANCH   2   3
HETATM    3  O   UNL     1      -6.997  16.160  69.664  1.00  0.00    -0.205 OA 
BRANCH   3   4
HETATM    4  C   UNL     1      -6.438  15.260  68.708  1.00  0.00    -0.097 C  
BRANCH   4   5
HETATM    5  C   UNL     1      -7.063  15.412  67.337  1.00  0.00    -0.196 C  
BRANCH   5   6
HETATM    6  N   UNL     1      -8.407  14.888  67.161  1.00  0.00    -0.209 NA 
HETATM    7  C   UNL     1      -9.458  15.562  66.523  1.00  0.00    -0.273 A  
HETATM    8  N   UNL     1     -10.572  14.868  66.653  1.00  0.00    -0.299 NA 
HETATM    9  C   UNL     1      -8.911  13.703  67.686  1.00  0.00    -0.202 A  
HETATM   10  C   UNL     1      -8.382  12.621  68.424  1.00  0.00    -0.125 A  
HETATM   11  C   UNL     1     -10.257  13.728  67.343  1.00  0.00    -0.252 A  
HETATM   12  C   UNL     1      -9.216  11.573  68.807  1.00  0.00    -0.076 A  
HETATM   13  C   UNL     1     -11.095  12.664  67.735  1.00  0.00    -0.287 A  
HETATM   14  C   UNL     1     -10.563  11.588  68.462  1.00  0.00    -0.236 A  
BRANCH   7  15
HETATM   15  N   UNL     1      -9.371  16.813  65.961  1.00  0.00    -0.472 NA 
HETATM   16  N   UNL     1     -10.042  20.003  66.718  1.00  0.00    -0.450 NA 
HETATM   17  C   UNL     1      -7.838  18.716  66.672  1.00  0.00    -0.271 C  
HETATM   18  C   UNL     1     -10.697  18.702  66.929  1.00  0.00    -0.309 C  
HETATM   19  C   UNL     1      -8.038  17.431  65.856  1.00  0.00    -0.015 C  
HETATM   20  C   UNL     1     -10.081  20.782  67.955  1.00  0.00     0.048 C  
HETATM   21  C   UNL     1     -10.518  17.705  65.772  1.00  0.00    -0.205 C  
HETATM   22  C   UNL     1      -8.680  19.899  66.179  1.00  0.00    -0.307 C  
ENDBRANCH   7  15
ENDBRANCH   5   6
ENDBRANCH   4   5
ENDBRANCH   3   4
ENDBRANCH   2   3
TORSDOF 5
ENDMDL
MODEL      239
REMARK 921   NORMALIZED FREE ENERGY PREDICTED BY IDOCK:   -2.46 KCAL/MOL
REMARK 922        TOTAL FREE ENERGY PREDICTED BY IDOCK:   -3.81 KCAL/MOL
REMARK 923 INTER-LIGAND FREE ENERGY PREDICTED BY IDOCK:   -3.62 KCAL/MOL
REMARK 924 INTRA-LIGAND FREE ENERGY PREDICTED BY IDOCK:   -0.19 KCAL/MOL
REMARK 927      BINDING AFFINITY PREDICTED BY RF-SCORE:    0.00 PKD
ROOT
HETATM    1  C   UNL     1     -12.346   9.650  71.655  1.00  0.00    -0.489 C  
HETATM    2  C   UNL     1     -11.946  10.868  70.861  1.00  0.00    -0.311 C  
ENDROOT
BRANCH   2   3
HETATM    3  O   UNL     1     -10.742  10.582  70.140  1.00  0.00    -0.268 OA 
BRANCH   3   4
HETATM    4  C   UNL     1     -10.817   9.248  69.642  1.00  0.00    -0.212 C  
BRANCH   4   5
HETATM    5  C   UNL     1      -9.473   8.549  69.658  1.00  0.00    -0.165 C  
BRANCH   5   6
HETATM    6  N   UNL     1      -8.884   8.221  68.370  1.00  0.00    -0.137 NA 
HETATM    7  C   UNL     1      -7.965   7.185  68.145  1.00  0.00    -0.119 A  
HETATM    8  N   UNL     1      -7.529   7.244  66.900  1.00  0.00    -0.095 NA 
HETATM    9  C   UNL     1      -9.033   8.930  67.183  1.00  0.00    -0.127 A  
HETATM   10  C   UNL     1      -9.783  10.053  66.767  1.00  0.00    -0.239 A  
HETATM   11  C   UNL     1      -8.178   8.287  66.297  1.00  0.00    -0.112 A  
HETATM   12  C   UNL     1      -9.665  10.514  65.457  1.00  0.00    -0.298 A  
HETATM   13  C   UNL     1      -8.063   8.762  64.974  1.00  0.00    -0.144 A  
HETATM   14  C   UNL     1      -8.816   9.871  64.562  1.00  0.00    -0.238 A  
BRANCH   7  15
HETATM   15  N   UNL     1      -7.492   6.324  69.104  1.00  0.00    -0.092 NA 
HETATM   16  N   UNL     1      -6.873   6.257  72.392  1.00  0.00    -0.069 NA 
HETATM   17  C   UNL     1      -8.802   5.294  71.028  1.00  0.00    -0.148 C  
HETATM   18  C   UNL     1      -6.699   7.228  71.300  1.00  0.00    -0.051 C  
HETATM   19  C   UNL     1      -8.379   5.236  69.553  1.00  0.00    -0.095 C  
HETATM   20  C   UNL     1      -7.440   6.928  73.562  1.00  0.00    -0.080 C  
HETATM   21  C   UNL     1      -6.325   6.601  69.946  1.00  0.00    -0.039 C  
HETATM   22  C   UNL     1      -7.647   5.070  72.012  1.00  0.00    -0.096 C  
ENDBRANCH   7  15
ENDBRANCH   5   6
ENDBRANCH   4   5
ENDBRANCH   3   4
ENDBRANCH   2   3
TORSDOF 5
ENDMDL
MODEL      240
REMARK 921   NORMALIZED FREE ENERGY PREDICTED BY IDOCK:   -2.45 KCAL/MOL
REMARK 922        TOTAL FREE ENERGY PREDICTED BY IDOCK:   -3.80 KCAL/MOL
REMARK 923 INTER-LIGAND FREE ENERGY PREDICTED BY IDOCK:   -3.29 KCAL/MOL
REMARK 924 INTRA-LIGAND FREE ENERGY PREDICTED BY IDOCK:   -0.51 KCAL/MOL
REMARK 927      BINDING AFFINITY PREDICTED BY RF-SCORE:    0.00 PKD
ROOT
HETATM    1  C   UNL     1      -9.558   3.303  70.288  1.00  0.00    -0.198 C  
HETATM    2  C   UNL     1      -8.964   4.603  70.771  1.00  0.00    -0.122 C  
ENDROOT
BRANCH   2   3
HETATM    3  O   UNL     1      -9.132   5.600  69.758  1.00  0.00    -0.134 OA 
BRANCH   3   4
HETATM    4  C   UNL     1     -10.232   5.227  68.930  1.00  0.00    -0.178 C  
BRANCH   4   5
HETATM    5  C   UNL     1     -10.513   6.247  67.847  1.00  0.00    -0.230 C  
BRANCH   5   6
HETATM    6  N   UNL     1      -9.561   6.325  66.751  1.00  0.00    -0.149 NA 
HETATM    7  C   UNL     1      -8.746   7.431  66.469  1.00  0.00    -0.140 A  
HETATM    8  N   UNL     1      -8.102   7.228  65.335  1.00  0.00    -0.128 NA 
HETATM    9  C   UNL     1      -9.379   5.387  65.740  1.00  0.00    -0.118 A  
HETATM   10  C   UNL     1      -9.900   4.107  65.447  1.00  0.00    -0.212 A  
HETATM   11  C   UNL     1      -8.461   5.986  64.886  1.00  0.00    -0.059 A  
HETATM   12  C   UNL     1      -9.486   3.441  64.295  1.00  0.00    -0.143 A  
HETATM   13  C   UNL     1      -8.050   5.306  63.721  1.00  0.00    -0.117 A  
HETATM   14  C   UNL     1      -8.563   4.032  63.438  1.00  0.00    -0.100 A  
BRANCH   7  15
HETATM   15  N   UNL     1      -8.718   8.599  67.192  1.00  0.00    -0.127 NA 
HETATM   16  N   UNL     1     -10.789  10.580  68.920  1.00  0.00    -0.219 NA 
HETATM   17  C   UNL     1      -9.065   8.867  69.699  1.00  0.00    -0.151 C  
HETATM   18  C   UNL     1     -10.854   9.815  67.665  1.00  0.00    -0.239 C  
HETATM   19  C   UNL     1      -8.111   8.567  68.534  1.00  0.00    -0.122 C  
HETATM   20  C   UNL     1     -12.013  10.368  69.692  1.00  0.00    -0.136 C  
HETATM   21  C   UNL     1      -9.535   9.774  66.875  1.00  0.00    -0.160 C  
HETATM   22  C   UNL     1      -9.585  10.309  69.716  1.00  0.00    -0.108 C  
ENDBRANCH   7  15
ENDBRANCH   5   6
ENDBRANCH   4   5
ENDBRANCH   3   4
ENDBRANCH   2   3
TORSDOF 5
ENDMDL
MODEL      241
REMARK 921   NORMALIZED FREE ENERGY PREDICTED BY IDOCK:   -2.44 KCAL/MOL
REMARK 922        TOTAL FREE ENERGY PREDICTED BY IDOCK:   -3.78 KCAL/MOL
REMARK 923 INTER-LIGAND FREE ENERGY PREDICTED BY IDOCK:   -3.26 KCAL/MOL
REMARK 924 INTRA-LIGAND FREE ENERGY PREDICTED BY IDOCK:   -0.52 KCAL/MOL
REMARK 927      BINDING AFFINITY PREDICTED BY RF-SCORE:    0.00 PKD
ROOT
HETATM    1  C   UNL     1      -5.541  13.249  69.786  1.00  0.00    -0.106 C  
HETATM    2  C   UNL     1      -6.758  12.384  69.573  1.00  0.00     0.015 C  
ENDROOT
BRANCH   2   3
HETATM    3  O   UNL     1      -6.562  11.127  70.230  1.00  0.00    -0.221 OA 
BRANCH   3   4
HETATM    4  C   UNL     1      -7.260  10.119  69.501  1.00  0.00    -0.115 C  
BRANCH   4   5
HETATM    5  C   UNL     1      -6.872  10.091  68.037  1.00  0.00    -0.068 C  
BRANCH   5   6
HETATM    6  N   UNL     1      -7.947   9.930  67.072  1.00  0.00    -0.109 NA 
HETATM    7  C   UNL     1      -8.201   8.763  66.336  1.00  0.00    -0.111 A  
HETATM    8  N   UNL     1      -9.158   8.995  65.458  1.00  0.00    -0.218 NA 
HETATM    9  C   UNL     1      -8.820  10.918  66.629  1.00  0.00    -0.159 A  
HETATM   10  C   UNL     1      -9.056  12.273  66.952  1.00  0.00    -0.208 A  
HETATM   11  C   UNL     1      -9.557  10.293  65.631  1.00  0.00    -0.232 A  
HETATM   12  C   UNL     1     -10.039  12.984  66.265  1.00  0.00    -0.283 A  
HETATM   13  C   UNL     1     -10.548  11.021  64.940  1.00  0.00    -0.328 A  
HETATM   14  C   UNL     1     -10.785  12.363  65.269  1.00  0.00    -0.322 A  
BRANCH   7  15
HETATM   15  N   UNL     1      -7.480   7.598  66.426  1.00  0.00    -0.082 NA 
HETATM   16  N   UNL     1      -7.933   4.366  67.164  1.00  0.00    -0.100 NA 
HETATM   17  C   UNL     1      -7.666   5.554  64.921  1.00  0.00    -0.094 C  
HETATM   18  C   UNL     1      -8.418   5.652  67.690  1.00  0.00    -0.102 C  
HETATM   19  C   UNL     1      -7.066   6.944  65.172  1.00  0.00    -0.067 C  
HETATM   20  C   UNL     1      -9.049   3.428  67.046  1.00  0.00    -0.172 C  
HETATM   21  C   UNL     1      -7.383   6.789  67.644  1.00  0.00    -0.096 C  
HETATM   22  C   UNL     1      -7.181   4.485  65.909  1.00  0.00    -0.076 C  
ENDBRANCH   7  15
ENDBRANCH   5   6
ENDBRANCH   4   5
ENDBRANCH   3   4
ENDBRANCH   2   3
TORSDOF 5
ENDMDL
MODEL      242
REMARK 921   NORMALIZED FREE ENERGY PREDICTED BY IDOCK:   -2.42 KCAL/MOL
REMARK 922        TOTAL FREE ENERGY PREDICTED BY IDOCK:   -3.77 KCAL/MOL
REMARK 923 INTER-LIGAND FREE ENERGY PREDICTED BY IDOCK:   -3.14 KCAL/MOL
REMARK 924 INTRA-LIGAND FREE ENERGY PREDICTED BY IDOCK:   -0.63 KCAL/MOL
REMARK 927      BINDING AFFINITY PREDICTED BY RF-SCORE:    0.00 PKD
ROOT
HETATM    1  C   UNL     1      -6.553   4.328  71.737  1.00  0.00    -0.026 C  
HETATM    2  C   UNL     1      -7.539   4.847  70.720  1.00  0.00    -0.066 C  
ENDROOT
BRANCH   2   3
HETATM    3  O   UNL     1      -7.822   6.222  71.001  1.00  0.00    -0.106 OA 
BRANCH   3   4
HETATM    4  C   UNL     1      -9.232   6.423  70.910  1.00  0.00    -0.158 C  
BRANCH   4   5
HETATM    5  C   UNL     1      -9.712   6.504  69.476  1.00  0.00    -0.151 C  
BRANCH   5   6
HETATM    6  N   UNL     1      -9.722   7.819  68.856  1.00  0.00    -0.158 NA 
HETATM    7  C   UNL     1      -8.912   8.209  67.781  1.00  0.00    -0.132 A  
HETATM    8  N   UNL     1      -9.073   9.499  67.551  1.00  0.00    -0.130 NA 
HETATM    9  C   UNL     1     -10.436   8.934  69.285  1.00  0.00    -0.224 A  
HETATM   10  C   UNL     1     -11.384   9.195  70.299  1.00  0.00    -0.217 A  
HETATM   11  C   UNL     1     -10.006   9.953  68.444  1.00  0.00    -0.158 A  
HETATM   12  C   UNL     1     -11.892  10.484  70.452  1.00  0.00    -0.431 A  
HETATM   13  C   UNL     1     -10.524  11.254  68.607  1.00  0.00    -0.226 A  
HETATM   14  C   UNL     1     -11.471  11.507  69.610  1.00  0.00    -0.373 A  
BRANCH   7  15
HETATM   15  N   UNL     1      -7.995   7.405  67.148  1.00  0.00    -0.112 NA 
HETATM   16  N   UNL     1      -6.814   6.811  64.074  1.00  0.00    -0.048 NA 
HETATM   17  C   UNL     1      -5.829   8.129  66.025  1.00  0.00    -0.040 C  
HETATM   18  C   UNL     1      -8.132   7.081  64.669  1.00  0.00    -0.083 C  
HETATM   19  C   UNL     1      -6.566   7.726  67.310  1.00  0.00    -0.063 C  
HETATM   20  C   UNL     1      -6.646   7.612  62.861  1.00  0.00    -0.070 C  
HETATM   21  C   UNL     1      -8.334   6.474  66.068  1.00  0.00    -0.133 C  
HETATM   22  C   UNL     1      -5.694   6.990  65.007  1.00  0.00    -0.032 C  
ENDBRANCH   7  15
ENDBRANCH   5   6
ENDBRANCH   4   5
ENDBRANCH   3   4
ENDBRANCH   2   3
TORSDOF 5
ENDMDL
MODEL      243
REMARK 921   NORMALIZED FREE ENERGY PREDICTED BY IDOCK:   -2.42 KCAL/MOL
REMARK 922        TOTAL FREE ENERGY PREDICTED BY IDOCK:   -3.76 KCAL/MOL
REMARK 923 INTER-LIGAND FREE ENERGY PREDICTED BY IDOCK:   -3.35 KCAL/MOL
REMARK 924 INTRA-LIGAND FREE ENERGY PREDICTED BY IDOCK:   -0.42 KCAL/MOL
REMARK 927      BINDING AFFINITY PREDICTED BY RF-SCORE:    0.00 PKD
ROOT
HETATM    1  C   UNL     1      -6.377   8.556  66.619  1.00  0.00    -0.059 C  
HETATM    2  C   UNL     1      -6.862   7.130  66.538  1.00  0.00    -0.065 C  
ENDROOT
BRANCH   2   3
HETATM    3  O   UNL     1      -8.292   7.117  66.600  1.00  0.00    -0.108 OA 
BRANCH   3   4
HETATM    4  C   UNL     1      -8.775   6.089  65.737  1.00  0.00    -0.151 C  
BRANCH   4   5
HETATM    5  C   UNL     1      -9.857   5.251  66.385  1.00  0.00    -0.186 C  
BRANCH   5   6
HETATM    6  N   UNL     1      -9.610   4.786  67.740  1.00  0.00    -0.146 NA 
HETATM    7  C   UNL     1      -8.827   3.673  68.080  1.00  0.00    -0.116 A  
HETATM    8  N   UNL     1      -8.918   3.449  69.377  1.00  0.00    -0.102 NA 
HETATM    9  C   UNL     1     -10.187   5.279  68.905  1.00  0.00    -0.178 A  
HETATM   10  C   UNL     1     -11.059   6.343  69.226  1.00  0.00    -0.437 A  
HETATM   11  C   UNL     1      -9.728   4.422  69.898  1.00  0.00    -0.221 A  
HETATM   12  C   UNL     1     -11.455   6.536  70.548  1.00  0.00    -0.448 A  
HETATM   13  C   UNL     1     -10.135   4.623  71.232  1.00  0.00    -0.245 A  
HETATM   14  C   UNL     1     -10.994   5.686  71.548  1.00  0.00    -0.268 A  
BRANCH   7  15
HETATM   15  N   UNL     1      -8.171   2.864  67.185  1.00  0.00    -0.082 NA 
HETATM   16  N   UNL     1      -8.292   2.008  63.952  1.00  0.00    -0.080 NA 
HETATM   17  C   UNL     1      -6.739   3.594  65.212  1.00  0.00    -0.045 C  
HETATM   18  C   UNL     1      -9.272   2.259  65.020  1.00  0.00    -0.114 C  
HETATM   19  C   UNL     1      -6.842   3.290  66.713  1.00  0.00    -0.053 C  
HETATM   20  C   UNL     1      -8.718   2.679  62.724  1.00  0.00    -0.081 C  
HETATM   21  C   UNL     1      -8.822   1.799  66.417  1.00  0.00    -0.116 C  
HETATM   22  C   UNL     1      -6.914   2.359  64.319  1.00  0.00    -0.044 C  
ENDBRANCH   7  15
ENDBRANCH   5   6
ENDBRANCH   4   5
ENDBRANCH   3   4
ENDBRANCH   2   3
TORSDOF 5
ENDMDL
MODEL      244
REMARK 921   NORMALIZED FREE ENERGY PREDICTED BY IDOCK:   -2.38 KCAL/MOL
REMARK 922        TOTAL FREE ENERGY PREDICTED BY IDOCK:   -3.71 KCAL/MOL
REMARK 923 INTER-LIGAND FREE ENERGY PREDICTED BY IDOCK:   -3.46 KCAL/MOL
REMARK 924 INTRA-LIGAND FREE ENERGY PREDICTED BY IDOCK:   -0.25 KCAL/MOL
REMARK 927      BINDING AFFINITY PREDICTED BY RF-SCORE:    0.00 PKD
ROOT
HETATM    1  C   UNL     1      -6.936  13.174  68.668  1.00  0.00    -0.102 C  
HETATM    2  C   UNL     1      -7.645  12.186  67.775  1.00  0.00    -0.131 C  
ENDROOT
BRANCH   2   3
HETATM    3  O   UNL     1      -7.376  10.859  68.240  1.00  0.00    -0.081 OA 
BRANCH   3   4
HETATM    4  C   UNL     1      -8.149  10.624  69.416  1.00  0.00    -0.093 C  
BRANCH   4   5
HETATM    5  C   UNL     1      -9.204   9.557  69.212  1.00  0.00    -0.169 C  
BRANCH   5   6
HETATM    6  N   UNL     1      -8.918   8.235  69.744  1.00  0.00    -0.145 NA 
HETATM    7  C   UNL     1      -8.597   7.108  68.973  1.00  0.00    -0.129 A  
HETATM    8  N   UNL     1      -8.529   6.045  69.753  1.00  0.00    -0.125 NA 
HETATM    9  C   UNL     1      -9.024   7.833  71.071  1.00  0.00    -0.142 A  
HETATM   10  C   UNL     1      -9.322   8.470  72.297  1.00  0.00    -0.363 A  
HETATM   11  C   UNL     1      -8.770   6.468  71.032  1.00  0.00    -0.138 A  
HETATM   12  C   UNL     1      -9.356   7.722  73.472  1.00  0.00    -0.351 A  
HETATM   13  C   UNL     1      -8.810   5.718  72.225  1.00  0.00    -0.135 A  
HETATM   14  C   UNL     1      -9.098   6.356  73.441  1.00  0.00    -0.136 A  
BRANCH   7  15
HETATM   15  N   UNL     1      -8.496   7.088  67.604  1.00  0.00    -0.123 NA 
HETATM   16  N   UNL     1      -9.035   9.088  64.976  1.00  0.00    -0.184 NA 
HETATM   17  C   UNL     1      -6.876   8.417  66.160  1.00  0.00    -0.065 C  
HETATM   18  C   UNL     1      -9.720   8.798  66.245  1.00  0.00    -0.272 C  
HETATM   19  C   UNL     1      -7.151   7.167  67.008  1.00  0.00    -0.090 C  
HETATM   20  C   UNL     1      -8.996  10.533  64.756  1.00  0.00    -0.205 C  
HETATM   21  C   UNL     1      -9.623   7.331  66.699  1.00  0.00    -0.178 C  
HETATM   22  C   UNL     1      -7.703   8.481  64.869  1.00  0.00    -0.105 C  
ENDBRANCH   7  15
ENDBRANCH   5   6
ENDBRANCH   4   5
ENDBRANCH   3   4
ENDBRANCH   2   3
TORSDOF 5
ENDMDL
MODEL      245
REMARK 921   NORMALIZED FREE ENERGY PREDICTED BY IDOCK:   -2.38 KCAL/MOL
REMARK 922        TOTAL FREE ENERGY PREDICTED BY IDOCK:   -3.71 KCAL/MOL
REMARK 923 INTER-LIGAND FREE ENERGY PREDICTED BY IDOCK:   -3.53 KCAL/MOL
REMARK 924 INTRA-LIGAND FREE ENERGY PREDICTED BY IDOCK:   -0.18 KCAL/MOL
REMARK 927      BINDING AFFINITY PREDICTED BY RF-SCORE:    0.00 PKD
ROOT
HETATM    1  C   UNL     1      -9.215  12.746  67.314  1.00  0.00    -0.203 C  
HETATM    2  C   UNL     1     -10.213  11.882  68.045  1.00  0.00    -0.192 C  
ENDROOT
BRANCH   2   3
HETATM    3  O   UNL     1      -9.509  10.924  68.843  1.00  0.00    -0.188 OA 
BRANCH   3   4
HETATM    4  C   UNL     1      -8.433  10.393  68.071  1.00  0.00    -0.119 C  
BRANCH   4   5
HETATM    5  C   UNL     1      -7.686   9.295  68.799  1.00  0.00    -0.083 C  
BRANCH   5   6
HETATM    6  N   UNL     1      -7.937   7.929  68.371  1.00  0.00    -0.120 NA 
HETATM    7  C   UNL     1      -8.595   6.953  69.134  1.00  0.00    -0.128 A  
HETATM    8  N   UNL     1      -8.536   5.791  68.510  1.00  0.00    -0.109 NA 
HETATM    9  C   UNL     1      -7.478   7.327  67.204  1.00  0.00    -0.105 A  
HETATM   10  C   UNL     1      -6.757   7.753  66.067  1.00  0.00    -0.049 A  
HETATM   11  C   UNL     1      -7.875   6.002  67.330  1.00  0.00    -0.102 A  
HETATM   12  C   UNL     1      -6.448   6.836  65.063  1.00  0.00    -0.042 A  
HETATM   13  C   UNL     1      -7.557   5.081  66.311  1.00  0.00    -0.087 A  
HETATM   14  C   UNL     1      -6.848   5.509  65.179  1.00  0.00    -0.049 A  
BRANCH   7  15
HETATM   15  N   UNL     1      -9.106   7.145  70.394  1.00  0.00    -0.155 NA 
HETATM   16  N   UNL     1     -12.033   7.768  71.892  1.00  0.00    -0.289 NA 
HETATM   17  C   UNL     1     -10.690   5.610  71.662  1.00  0.00    -0.313 C  
HETATM   18  C   UNL     1     -11.349   8.222  70.671  1.00  0.00    -0.244 C  
HETATM   19  C   UNL     1      -9.251   5.968  71.268  1.00  0.00    -0.146 C  
HETATM   20  C   UNL     1     -13.431   7.462  71.591  1.00  0.00    -0.366 C  
HETATM   21  C   UNL     1      -9.823   8.355  70.808  1.00  0.00    -0.182 C  
HETATM   22  C   UNL     1     -11.361   6.651  72.567  1.00  0.00    -0.253 C  
ENDBRANCH   7  15
ENDBRANCH   5   6
ENDBRANCH   4   5
ENDBRANCH   3   4
ENDBRANCH   2   3
TORSDOF 5
ENDMDL
MODEL      246
REMARK 921   NORMALIZED FREE ENERGY PREDICTED BY IDOCK:   -2.37 KCAL/MOL
REMARK 922        TOTAL FREE ENERGY PREDICTED BY IDOCK:   -3.69 KCAL/MOL
REMARK 923 INTER-LIGAND FREE ENERGY PREDICTED BY IDOCK:   -3.74 KCAL/MOL
REMARK 924 INTRA-LIGAND FREE ENERGY PREDICTED BY IDOCK:    0.05 KCAL/MOL
REMARK 927      BINDING AFFINITY PREDICTED BY RF-SCORE:    0.00 PKD
ROOT
HETATM    1  C   UNL     1     -12.347   7.647  71.193  1.00  0.00    -0.293 C  
HETATM    2  C   UNL     1     -11.279   7.878  72.232  1.00  0.00    -0.331 C  
ENDROOT
BRANCH   2   3
HETATM    3  O   UNL     1     -10.760   9.204  72.084  1.00  0.00    -0.288 OA 
BRANCH   3   4
HETATM    4  C   UNL     1     -10.991   9.635  70.744  1.00  0.00    -0.327 C  
BRANCH   4   5
HETATM    5  C   UNL     1      -9.830   9.318  69.825  1.00  0.00    -0.188 C  
BRANCH   5   6
HETATM    6  N   UNL     1      -9.211  10.436  69.132  1.00  0.00    -0.189 NA 
HETATM    7  C   UNL     1      -7.843  10.548  68.844  1.00  0.00    -0.124 A  
HETATM    8  N   UNL     1      -7.596  11.739  68.331  1.00  0.00    -0.117 NA 
HETATM    9  C   UNL     1      -9.831  11.620  68.746  1.00  0.00    -0.116 A  
HETATM   10  C   UNL     1     -11.151  12.123  68.777  1.00  0.00    -0.297 A  
HETATM   11  C   UNL     1      -8.793  12.398  68.249  1.00  0.00    -0.174 A  
HETATM   12  C   UNL     1     -11.411  13.407  68.301  1.00  0.00    -0.350 A  
HETATM   13  C   UNL     1      -9.065  13.697  67.772  1.00  0.00    -0.199 A  
HETATM   14  C   UNL     1     -10.378  14.189  67.796  1.00  0.00    -0.242 A  
BRANCH   7  15
HETATM   15  N   UNL     1      -6.888   9.616  69.164  1.00  0.00    -0.049 NA 
HETATM   16  N   UNL     1      -6.407   7.085  71.300  1.00  0.00    -0.040 NA 
HETATM   17  C   UNL     1      -7.019   7.098  68.822  1.00  0.00    -0.082 C  
HETATM   18  C   UNL     1      -7.002   8.429  71.365  1.00  0.00    -0.072 C  
HETATM   19  C   UNL     1      -6.693   8.482  68.244  1.00  0.00    -0.065 C  
HETATM   20  C   UNL     1      -7.280   6.125  71.974  1.00  0.00    -0.092 C  
HETATM   21  C   UNL     1      -6.292   9.481  70.497  1.00  0.00    -0.080 C  
HETATM   22  C   UNL     1      -6.065   6.654  69.939  1.00  0.00    -0.027 C  
ENDBRANCH   7  15
ENDBRANCH   5   6
ENDBRANCH   4   5
ENDBRANCH   3   4
ENDBRANCH   2   3
TORSDOF 5
ENDMDL
MODEL      247
REMARK 921   NORMALIZED FREE ENERGY PREDICTED BY IDOCK:   -2.31 KCAL/MOL
REMARK 922        TOTAL FREE ENERGY PREDICTED BY IDOCK:   -3.62 KCAL/MOL
REMARK 923 INTER-LIGAND FREE ENERGY PREDICTED BY IDOCK:   -4.12 KCAL/MOL
REMARK 924 INTRA-LIGAND FREE ENERGY PREDICTED BY IDOCK:    0.50 KCAL/MOL
REMARK 927      BINDING AFFINITY PREDICTED BY RF-SCORE:    0.00 PKD
ROOT
HETATM    1  C   UNL     1      -5.371  14.114  71.012  1.00  0.00    -0.153 C  
HETATM    2  C   UNL     1      -6.403  13.739  69.978  1.00  0.00    -0.084 C  
ENDROOT
BRANCH   2   3
HETATM    3  O   UNL     1      -5.738  13.360  68.768  1.00  0.00    -0.070 OA 
BRANCH   3   4
HETATM    4  C   UNL     1      -6.668  13.456  67.690  1.00  0.00    -0.167 C  
BRANCH   4   5
HETATM    5  C   UNL     1      -7.794  12.451  67.806  1.00  0.00    -0.154 C  
BRANCH   5   6
HETATM    6  N   UNL     1      -8.916  12.607  66.895  1.00  0.00    -0.215 NA 
HETATM    7  C   UNL     1      -9.558  11.558  66.220  1.00  0.00    -0.218 A  
HETATM    8  N   UNL     1     -10.441  12.053  65.374  1.00  0.00    -0.264 NA 
HETATM    9  C   UNL     1      -9.463  13.805  66.449  1.00  0.00    -0.243 A  
HETATM   10  C   UNL     1      -9.252  15.174  66.725  1.00  0.00    -0.277 A  
HETATM   11  C   UNL     1     -10.409  13.415  65.510  1.00  0.00    -0.295 A  
HETATM   12  C   UNL     1     -10.001  16.138  66.053  1.00  0.00    -0.373 A  
HETATM   13  C   UNL     1     -11.162  14.396  64.832  1.00  0.00    -0.392 A  
HETATM   14  C   UNL     1     -10.954  15.754  65.115  1.00  0.00    -0.394 A  
BRANCH   7  15
HETATM   15  N   UNL     1      -9.228  10.229  66.326  1.00  0.00    -0.156 NA 
HETATM   16  N   UNL     1      -6.724   8.150  65.549  1.00  0.00    -0.051 NA 
HETATM   17  C   UNL     1      -7.400   9.208  67.771  1.00  0.00    -0.084 C  
HETATM   18  C   UNL     1      -7.398   9.287  64.902  1.00  0.00    -0.103 C  
HETATM   19  C   UNL     1      -8.843   9.717  67.653  1.00  0.00    -0.125 C  
HETATM   20  C   UNL     1      -5.275   8.290  65.407  1.00  0.00    -0.031 C  
HETATM   21  C   UNL     1      -8.908   9.373  65.181  1.00  0.00    -0.195 C  
HETATM   22  C   UNL     1      -7.121   7.944  66.947  1.00  0.00    -0.078 C  
ENDBRANCH   7  15
ENDBRANCH   5   6
ENDBRANCH   4   5
ENDBRANCH   3   4
ENDBRANCH   2   3
TORSDOF 5
ENDMDL
MODEL      248
REMARK 921   NORMALIZED FREE ENERGY PREDICTED BY IDOCK:   -2.31 KCAL/MOL
REMARK 922        TOTAL FREE ENERGY PREDICTED BY IDOCK:   -3.61 KCAL/MOL
REMARK 923 INTER-LIGAND FREE ENERGY PREDICTED BY IDOCK:   -3.30 KCAL/MOL
REMARK 924 INTRA-LIGAND FREE ENERGY PREDICTED BY IDOCK:   -0.32 KCAL/MOL
REMARK 927      BINDING AFFINITY PREDICTED BY RF-SCORE:    0.00 PKD
ROOT
HETATM    1  C   UNL     1      -7.429   4.931  72.544  1.00  0.00    -0.090 C  
HETATM    2  C   UNL     1      -7.967   6.339  72.596  1.00  0.00    -0.106 C  
ENDROOT
BRANCH   2   3
HETATM    3  O   UNL     1      -8.078   6.848  71.263  1.00  0.00    -0.108 OA 
BRANCH   3   4
HETATM    4  C   UNL     1      -9.442   6.758  70.854  1.00  0.00    -0.157 C  
BRANCH   4   5
HETATM    5  C   UNL     1      -9.657   7.261  69.442  1.00  0.00    -0.154 C  
BRANCH   5   6
HETATM    6  N   UNL     1      -9.102   6.459  68.364  1.00  0.00    -0.120 NA 
HETATM    7  C   UNL     1      -8.581   6.970  67.166  1.00  0.00    -0.121 A  
HETATM    8  N   UNL     1      -8.286   5.973  66.352  1.00  0.00    -0.115 NA 
HETATM    9  C   UNL     1      -9.095   5.071  68.279  1.00  0.00    -0.115 A  
HETATM   10  C   UNL     1      -9.485   4.008  69.124  1.00  0.00    -0.249 A  
HETATM   11  C   UNL     1      -8.577   4.812  67.017  1.00  0.00    -0.104 A  
HETATM   12  C   UNL     1      -9.343   2.692  68.687  1.00  0.00    -0.244 A  
HETATM   13  C   UNL     1      -8.439   3.478  66.582  1.00  0.00    -0.108 A  
HETATM   14  C   UNL     1      -8.819   2.426  67.427  1.00  0.00    -0.160 A  
BRANCH   7  15
HETATM   15  N   UNL     1      -8.511   8.301  66.837  1.00  0.00    -0.117 NA 
HETATM   16  N   UNL     1     -10.236  11.135  67.280  1.00  0.00    -0.188 NA 
HETATM   17  C   UNL     1      -8.125  10.259  68.417  1.00  0.00    -0.109 C  
HETATM   18  C   UNL     1     -10.561   9.728  66.995  1.00  0.00    -0.199 C  
HETATM   19  C   UNL     1      -7.531   9.139  67.551  1.00  0.00    -0.088 C  
HETATM   20  C   UNL     1     -11.127  11.646  68.321  1.00  0.00    -0.234 C  
HETATM   21  C   UNL     1      -9.549   9.013  66.085  1.00  0.00    -0.272 C  
HETATM   22  C   UNL     1      -8.823  11.360  67.609  1.00  0.00    -0.139 C  
ENDBRANCH   7  15
ENDBRANCH   5   6
ENDBRANCH   4   5
ENDBRANCH   3   4
ENDBRANCH   2   3
TORSDOF 5
ENDMDL
MODEL      249
REMARK 921   NORMALIZED FREE ENERGY PREDICTED BY IDOCK:   -2.30 KCAL/MOL
REMARK 922        TOTAL FREE ENERGY PREDICTED BY IDOCK:   -3.60 KCAL/MOL
REMARK 923 INTER-LIGAND FREE ENERGY PREDICTED BY IDOCK:   -3.01 KCAL/MOL
REMARK 924 INTRA-LIGAND FREE ENERGY PREDICTED BY IDOCK:   -0.60 KCAL/MOL
REMARK 927      BINDING AFFINITY PREDICTED BY RF-SCORE:    0.00 PKD
ROOT
HETATM    1  C   UNL     1      -5.647  12.106  68.695  1.00  0.00    -0.053 C  
HETATM    2  C   UNL     1      -6.391  11.971  67.390  1.00  0.00    -0.138 C  
ENDROOT
BRANCH   2   3
HETATM    3  O   UNL     1      -6.489  10.584  67.047  1.00  0.00    -0.070 OA 
BRANCH   3   4
HETATM    4  C   UNL     1      -7.551  10.003  67.802  1.00  0.00    -0.090 C  
BRANCH   4   5
HETATM    5  C   UNL     1      -7.160   8.680  68.425  1.00  0.00    -0.077 C  
BRANCH   5   6
HETATM    6  N   UNL     1      -7.968   7.522  68.078  1.00  0.00    -0.121 NA 
HETATM    7  C   UNL     1      -8.722   6.765  68.986  1.00  0.00    -0.130 A  
HETATM    8  N   UNL     1      -9.226   5.711  68.372  1.00  0.00    -0.117 NA 
HETATM    9  C   UNL     1      -8.043   6.903  66.835  1.00  0.00    -0.109 A  
HETATM   10  C   UNL     1      -7.514   7.156  65.550  1.00  0.00    -0.083 A  
HETATM   11  C   UNL     1      -8.837   5.786  67.062  1.00  0.00    -0.112 A  
HETATM   12  C   UNL     1      -7.796   6.280  64.503  1.00  0.00    -0.115 A  
HETATM   13  C   UNL     1      -9.115   4.904  65.998  1.00  0.00    -0.139 A  
HETATM   14  C   UNL     1      -8.595   5.163  64.721  1.00  0.00    -0.148 A  
BRANCH   7  15
HETATM   15  N   UNL     1      -8.816   7.009  70.335  1.00  0.00    -0.154 NA 
HETATM   16  N   UNL     1     -10.595   6.018  72.990  1.00  0.00    -0.227 NA 
HETATM   17  C   UNL     1      -8.234   5.416  72.232  1.00  0.00    -0.115 C  
HETATM   18  C   UNL     1     -10.878   6.324  71.579  1.00  0.00    -0.254 C  
HETATM   19  C   UNL     1      -7.766   6.462  71.211  1.00  0.00    -0.095 C  
HETATM   20  C   UNL     1     -11.274   4.781  73.372  1.00  0.00    -0.343 C  
HETATM   21  C   UNL     1     -10.038   7.474  70.997  1.00  0.00    -0.186 C  
HETATM   22  C   UNL     1      -9.164   5.981  73.313  1.00  0.00    -0.132 C  
ENDBRANCH   7  15
ENDBRANCH   5   6
ENDBRANCH   4   5
ENDBRANCH   3   4
ENDBRANCH   2   3
TORSDOF 5
ENDMDL
MODEL      250
REMARK 921   NORMALIZED FREE ENERGY PREDICTED BY IDOCK:   -2.28 KCAL/MOL
REMARK 922        TOTAL FREE ENERGY PREDICTED BY IDOCK:   -3.58 KCAL/MOL
REMARK 923 INTER-LIGAND FREE ENERGY PREDICTED BY IDOCK:   -3.80 KCAL/MOL
REMARK 924 INTRA-LIGAND FREE ENERGY PREDICTED BY IDOCK:    0.22 KCAL/MOL
REMARK 927      BINDING AFFINITY PREDICTED BY RF-SCORE:    0.00 PKD
ROOT
HETATM    1  C   UNL     1      -5.783  19.989  65.135  1.00  0.00    -0.215 C  
HETATM    2  C   UNL     1      -5.128  18.635  65.244  1.00  0.00    -0.158 C  
ENDROOT
BRANCH   2   3
HETATM    3  O   UNL     1      -6.143  17.628  65.320  1.00  0.00     0.068 OA 
BRANCH   3   4
HETATM    4  C   UNL     1      -6.052  16.987  66.592  1.00  0.00    -0.196 C  
BRANCH   4   5
HETATM    5  C   UNL     1      -7.198  16.028  66.839  1.00  0.00    -0.177 C  
BRANCH   5   6
HETATM    6  N   UNL     1      -8.403  16.579  67.437  1.00  0.00    -0.166 NA 
HETATM    7  C   UNL     1      -9.193  15.933  68.399  1.00  0.00    -0.197 A  
HETATM    8  N   UNL     1     -10.280  16.646  68.629  1.00  0.00    -0.266 NA 
HETATM    9  C   UNL     1      -9.037  17.766  67.085  1.00  0.00    -0.246 A  
HETATM   10  C   UNL     1      -8.767  18.827  66.192  1.00  0.00    -0.153 A  
HETATM   11  C   UNL     1     -10.195  17.769  67.852  1.00  0.00    -0.361 A  
HETATM   12  C   UNL     1      -9.668  19.885  66.085  1.00  0.00    -0.527 A  
HETATM   13  C   UNL     1     -11.103  18.842  67.736  1.00  0.00    -0.053 A  
HETATM   14  C   UNL     1     -10.827  19.898  66.854  1.00  0.00    -0.356 A  
BRANCH   7  15
HETATM   15  N   UNL     1      -8.941  14.690  68.924  1.00  0.00    -0.167 NA 
HETATM   16  N   UNL     1      -8.000  11.638  67.923  1.00  0.00    -0.125 NA 
HETATM   17  C   UNL     1      -6.693  13.506  69.070  1.00  0.00    -0.112 C  
HETATM   18  C   UNL     1      -8.893  12.692  67.417  1.00  0.00    -0.189 C  
HETATM   19  C   UNL     1      -7.691  14.499  69.681  1.00  0.00     0.138 C  
HETATM   20  C   UNL     1      -7.178  11.120  66.830  1.00  0.00    -0.138 C  
HETATM   21  C   UNL     1      -9.643  13.471  68.511  1.00  0.00    -0.151 C  
HETATM   22  C   UNL     1      -7.186  12.054  69.072  1.00  0.00    -0.053 C  
ENDBRANCH   7  15
ENDBRANCH   5   6
ENDBRANCH   4   5
ENDBRANCH   3   4
ENDBRANCH   2   3
TORSDOF 5
ENDMDL
MODEL      251
REMARK 921   NORMALIZED FREE ENERGY PREDICTED BY IDOCK:   -2.28 KCAL/MOL
REMARK 922        TOTAL FREE ENERGY PREDICTED BY IDOCK:   -3.58 KCAL/MOL
REMARK 923 INTER-LIGAND FREE ENERGY PREDICTED BY IDOCK:   -3.24 KCAL/MOL
REMARK 924 INTRA-LIGAND FREE ENERGY PREDICTED BY IDOCK:   -0.34 KCAL/MOL
REMARK 927      BINDING AFFINITY PREDICTED BY RF-SCORE:    0.00 PKD
ROOT
HETATM    1  C   UNL     1      -5.588  11.926  68.196  1.00  0.00    -0.045 C  
HETATM    2  C   UNL     1      -6.883  11.404  67.625  1.00  0.00    -0.080 C  
ENDROOT
BRANCH   2   3
HETATM    3  O   UNL     1      -7.167  10.124  68.200  1.00  0.00    -0.079 OA 
BRANCH   3   4
HETATM    4  C   UNL     1      -8.012  10.314  69.334  1.00  0.00    -0.159 C  
BRANCH   4   5
HETATM    5  C   UNL     1      -7.720   9.327  70.444  1.00  0.00    -0.143 C  
BRANCH   5   6
HETATM    6  N   UNL     1      -8.837   8.536  70.936  1.00  0.00    -0.156 NA 
HETATM    7  C   UNL     1      -8.780   7.171  71.251  1.00  0.00    -0.128 A  
HETATM    8  N   UNL     1      -9.992   6.733  71.538  1.00  0.00    -0.178 NA 
HETATM    9  C   UNL     1     -10.157   8.954  71.066  1.00  0.00    -0.255 A  
HETATM   10  C   UNL     1     -10.851  10.172  70.890  1.00  0.00    -0.154 A  
HETATM   11  C   UNL     1     -10.839   7.805  71.446  1.00  0.00    -0.228 A  
HETATM   12  C   UNL     1     -12.227  10.219  71.103  1.00  0.00    -0.500 A  
HETATM   13  C   UNL     1     -12.231   7.861  71.658  1.00  0.00    -0.339 A  
HETATM   14  C   UNL     1     -12.915   9.074  71.489  1.00  0.00    -0.391 A  
BRANCH   7  15
HETATM   15  N   UNL     1      -7.662   6.381  71.151  1.00  0.00    -0.097 NA 
HETATM   16  N   UNL     1      -6.262   3.736  72.648  1.00  0.00    -0.012 NA 
HETATM   17  C   UNL     1      -7.562   3.933  70.461  1.00  0.00    -0.044 C  
HETATM   18  C   UNL     1      -6.980   4.944  73.084  1.00  0.00    -0.074 C  
HETATM   19  C   UNL     1      -7.598   5.410  70.044  1.00  0.00    -0.069 C  
HETATM   20  C   UNL     1      -6.772   2.571  73.371  1.00  0.00    -0.022 C  
HETATM   21  C   UNL     1      -6.693   6.194  72.235  1.00  0.00    -0.068 C  
HETATM   22  C   UNL     1      -6.277   3.529  71.195  1.00  0.00    -0.018 C  
ENDBRANCH   7  15
ENDBRANCH   5   6
ENDBRANCH   4   5
ENDBRANCH   3   4
ENDBRANCH   2   3
TORSDOF 5
ENDMDL
MODEL      252
REMARK 921   NORMALIZED FREE ENERGY PREDICTED BY IDOCK:   -2.20 KCAL/MOL
REMARK 922        TOTAL FREE ENERGY PREDICTED BY IDOCK:   -3.47 KCAL/MOL
REMARK 923 INTER-LIGAND FREE ENERGY PREDICTED BY IDOCK:   -2.93 KCAL/MOL
REMARK 924 INTRA-LIGAND FREE ENERGY PREDICTED BY IDOCK:   -0.54 KCAL/MOL
REMARK 927      BINDING AFFINITY PREDICTED BY RF-SCORE:    0.00 PKD
ROOT
HETATM    1  C   UNL     1      -5.679  12.868  68.846  1.00  0.00    -0.073 C  
HETATM    2  C   UNL     1      -7.100  12.378  68.720  1.00  0.00    -0.098 C  
ENDROOT
BRANCH   2   3
HETATM    3  O   UNL     1      -7.154  10.996  69.089  1.00  0.00    -0.095 OA 
BRANCH   3   4
HETATM    4  C   UNL     1      -7.671  10.252  67.987  1.00  0.00    -0.089 C  
BRANCH   4   5
HETATM    5  C   UNL     1      -7.232  10.815  66.652  1.00  0.00    -0.134 C  
BRANCH   5   6
HETATM    6  N   UNL     1      -8.056  10.498  65.497  1.00  0.00    -0.160 NA 
HETATM    7  C   UNL     1      -7.856   9.407  64.639  1.00  0.00    -0.120 A  
HETATM    8  N   UNL     1      -8.692   9.486  63.621  1.00  0.00    -0.219 NA 
HETATM    9  C   UNL     1      -9.093  11.268  64.980  1.00  0.00    -0.070 A  
HETATM   10  C   UNL     1      -9.748  12.461  65.359  1.00  0.00    -0.129 A  
HETATM   11  C   UNL     1      -9.462  10.600  63.819  1.00  0.00    -0.290 A  
HETATM   12  C   UNL     1     -10.773  12.967  64.562  1.00  0.00    -0.404 A  
HETATM   13  C   UNL     1     -10.499  11.121  63.018  1.00  0.00    -0.140 A  
HETATM   14  C   UNL     1     -11.152  12.301  63.401  1.00  0.00    -0.487 A  
BRANCH   7  15
HETATM   15  N   UNL     1      -6.858   8.472  64.768  1.00  0.00    -0.072 NA 
HETATM   16  N   UNL     1      -6.407   5.167  64.495  1.00  0.00    -0.033 NA 
HETATM   17  C   UNL     1      -5.806   7.079  62.916  1.00  0.00    -0.040 C  
HETATM   18  C   UNL     1      -7.451   6.054  65.033  1.00  0.00    -0.084 C  
HETATM   19  C   UNL     1      -5.841   8.396  63.704  1.00  0.00    -0.071 C  
HETATM   20  C   UNL     1      -7.023   4.105  63.701  1.00  0.00    -0.045 C  
HETATM   21  C   UNL     1      -6.917   7.337  65.693  1.00  0.00    -0.060 C  
HETATM   22  C   UNL     1      -5.358   5.872  63.749  1.00  0.00    -0.017 C  
ENDBRANCH   7  15
ENDBRANCH   5   6
ENDBRANCH   4   5
ENDBRANCH   3   4
ENDBRANCH   2   3
TORSDOF 5
ENDMDL
MODEL      253
REMARK 921   NORMALIZED FREE ENERGY PREDICTED BY IDOCK:   -2.15 KCAL/MOL
REMARK 922        TOTAL FREE ENERGY PREDICTED BY IDOCK:   -3.42 KCAL/MOL
REMARK 923 INTER-LIGAND FREE ENERGY PREDICTED BY IDOCK:   -3.41 KCAL/MOL
REMARK 924 INTRA-LIGAND FREE ENERGY PREDICTED BY IDOCK:   -0.01 KCAL/MOL
REMARK 927      BINDING AFFINITY PREDICTED BY RF-SCORE:    0.00 PKD
ROOT
HETATM    1  C   UNL     1      -9.453   2.284  64.717  1.00  0.00    -0.076 C  
HETATM    2  C   UNL     1      -8.354   2.983  65.478  1.00  0.00    -0.097 C  
ENDROOT
BRANCH   2   3
HETATM    3  O   UNL     1      -8.711   4.357  65.659  1.00  0.00    -0.117 OA 
BRANCH   3   4
HETATM    4  C   UNL     1      -9.305   4.507  66.947  1.00  0.00    -0.145 C  
BRANCH   4   5
HETATM    5  C   UNL     1      -8.713   5.664  67.725  1.00  0.00    -0.107 C  
BRANCH   5   6
HETATM    6  N   UNL     1      -9.349   6.005  68.987  1.00  0.00    -0.124 NA 
HETATM    7  C   UNL     1      -9.687   7.304  69.394  1.00  0.00    -0.161 A  
HETATM    8  N   UNL     1     -10.123   7.278  70.639  1.00  0.00    -0.194 NA 
HETATM    9  C   UNL     1      -9.623   5.139  70.041  1.00  0.00    -0.181 A  
HETATM   10  C   UNL     1      -9.500   3.749  70.261  1.00  0.00    -0.257 A  
HETATM   11  C   UNL     1     -10.106   5.970  71.044  1.00  0.00    -0.192 A  
HETATM   12  C   UNL     1      -9.870   3.210  71.492  1.00  0.00    -0.200 A  
HETATM   13  C   UNL     1     -10.476   5.417  72.286  1.00  0.00    -0.272 A  
HETATM   14  C   UNL     1     -10.360   4.036  72.498  1.00  0.00    -0.223 A  
BRANCH   7  15
HETATM   15  N   UNL     1      -9.476   8.444  68.657  1.00  0.00    -0.146 NA 
HETATM   16  N   UNL     1      -7.018   9.987  66.990  1.00  0.00    -0.087 NA 
HETATM   17  C   UNL     1      -8.994   8.599  66.163  1.00  0.00    -0.221 C  
HETATM   18  C   UNL     1      -7.139   9.246  68.256  1.00  0.00    -0.076 C  
HETATM   19  C   UNL     1     -10.029   8.498  67.293  1.00  0.00    -0.225 C  
HETATM   20  C   UNL     1      -5.825   9.543  66.270  1.00  0.00    -0.058 C  
HETATM   21  C   UNL     1      -8.472   9.458  68.993  1.00  0.00    -0.129 C  
HETATM   22  C   UNL     1      -8.220   9.923  66.150  1.00  0.00    -0.118 C  
ENDBRANCH   7  15
ENDBRANCH   5   6
ENDBRANCH   4   5
ENDBRANCH   3   4
ENDBRANCH   2   3
TORSDOF 5
ENDMDL
MODEL      254
REMARK 921   NORMALIZED FREE ENERGY PREDICTED BY IDOCK:   -2.13 KCAL/MOL
REMARK 922        TOTAL FREE ENERGY PREDICTED BY IDOCK:   -3.38 KCAL/MOL
REMARK 923 INTER-LIGAND FREE ENERGY PREDICTED BY IDOCK:   -2.90 KCAL/MOL
REMARK 924 INTRA-LIGAND FREE ENERGY PREDICTED BY IDOCK:   -0.48 KCAL/MOL
REMARK 927      BINDING AFFINITY PREDICTED BY RF-SCORE:    0.00 PKD
ROOT
HETATM    1  C   UNL     1      -6.459   3.861  67.847  1.00  0.00    -0.038 C  
HETATM    2  C   UNL     1      -6.227   4.235  69.290  1.00  0.00    -0.028 C  
ENDROOT
BRANCH   2   3
HETATM    3  O   UNL     1      -6.129   5.660  69.394  1.00  0.00    -0.022 OA 
BRANCH   3   4
HETATM    4  C   UNL     1      -7.170   6.245  68.615  1.00  0.00    -0.085 C  
BRANCH   4   5
HETATM    5  C   UNL     1      -8.463   6.388  69.390  1.00  0.00    -0.126 C  
BRANCH   5   6
HETATM    6  N   UNL     1      -9.000   7.730  69.539  1.00  0.00    -0.143 NA 
HETATM    7  C   UNL     1      -9.056   8.447  70.743  1.00  0.00    -0.156 A  
HETATM    8  N   UNL     1      -9.721   9.572  70.557  1.00  0.00    -0.266 NA 
HETATM    9  C   UNL     1      -9.645   8.480  68.561  1.00  0.00    -0.151 A  
HETATM   10  C   UNL     1      -9.927   8.314  67.187  1.00  0.00    -0.307 A  
HETATM   11  C   UNL     1     -10.072   9.617  69.235  1.00  0.00    -0.193 A  
HETATM   12  C   UNL     1     -10.635   9.302  66.504  1.00  0.00    -0.117 A  
HETATM   13  C   UNL     1     -10.790  10.610  68.537  1.00  0.00    -0.275 A  
HETATM   14  C   UNL     1     -11.061  10.445  67.171  1.00  0.00    -0.195 A  
BRANCH   7  15
HETATM   15  N   UNL     1      -8.606   7.991  71.957  1.00  0.00    -0.132 NA 
HETATM   16  N   UNL     1      -7.956   5.103  73.518  1.00  0.00    -0.109 NA 
HETATM   17  C   UNL     1      -6.401   6.814  72.438  1.00  0.00    -0.053 C  
HETATM   18  C   UNL     1      -8.999   5.606  72.611  1.00  0.00    -0.132 C  
HETATM   19  C   UNL     1      -7.170   8.130  72.258  1.00  0.00    -0.093 C  
HETATM   20  C   UNL     1      -7.528   3.772  73.087  1.00  0.00    -0.068 C  
HETATM   21  C   UNL     1      -9.366   7.085  72.823  1.00  0.00    -0.135 C  
HETATM   22  C   UNL     1      -6.819   6.018  73.680  1.00  0.00    -0.080 C  
ENDBRANCH   7  15
ENDBRANCH   5   6
ENDBRANCH   4   5
ENDBRANCH   3   4
ENDBRANCH   2   3
TORSDOF 5
ENDMDL
MODEL      255
REMARK 921   NORMALIZED FREE ENERGY PREDICTED BY IDOCK:   -2.12 KCAL/MOL
REMARK 922        TOTAL FREE ENERGY PREDICTED BY IDOCK:   -3.37 KCAL/MOL
REMARK 923 INTER-LIGAND FREE ENERGY PREDICTED BY IDOCK:   -2.84 KCAL/MOL
REMARK 924 INTRA-LIGAND FREE ENERGY PREDICTED BY IDOCK:   -0.53 KCAL/MOL
REMARK 927      BINDING AFFINITY PREDICTED BY RF-SCORE:    0.00 PKD
ROOT
HETATM    1  C   UNL     1      -9.178   1.824  64.265  1.00  0.00    -0.125 C  
HETATM    2  C   UNL     1      -8.041   2.291  65.139  1.00  0.00    -0.079 C  
ENDROOT
BRANCH   2   3
HETATM    3  O   UNL     1      -8.176   3.697  65.372  1.00  0.00    -0.096 OA 
BRANCH   3   4
HETATM    4  C   UNL     1      -8.815   3.890  66.632  1.00  0.00    -0.126 C  
BRANCH   4   5
HETATM    5  C   UNL     1      -7.944   4.646  67.613  1.00  0.00    -0.093 C  
BRANCH   5   6
HETATM    6  N   UNL     1      -8.231   4.467  69.027  1.00  0.00    -0.078 NA 
HETATM    7  C   UNL     1      -8.988   5.347  69.814  1.00  0.00    -0.124 A  
HETATM    8  N   UNL     1      -8.943   4.962  71.075  1.00  0.00    -0.131 NA 
HETATM    9  C   UNL     1      -7.720   3.476  69.859  1.00  0.00    -0.047 A  
HETATM   10  C   UNL     1      -6.901   2.338  69.686  1.00  0.00    -0.033 A  
HETATM   11  C   UNL     1      -8.191   3.819  71.120  1.00  0.00    -0.067 A  
HETATM   12  C   UNL     1      -6.567   1.554  70.789  1.00  0.00    -0.024 A  
HETATM   13  C   UNL     1      -7.846   3.022  72.231  1.00  0.00    -0.055 A  
HETATM   14  C   UNL     1      -7.039   1.889  72.054  1.00  0.00    -0.030 A  
BRANCH   7  15
HETATM   15  N   UNL     1      -9.577   6.503  69.364  1.00  0.00    -0.144 NA 
HETATM   16  N   UNL     1      -9.175   8.812  66.975  1.00  0.00    -0.138 NA 
HETATM   17  C   UNL     1     -10.799   6.852  67.159  1.00  0.00    -0.447 C  
HETATM   18  C   UNL     1      -8.293   8.053  67.876  1.00  0.00    -0.129 C  
HETATM   19  C   UNL     1     -10.845   6.389  68.622  1.00  0.00    -0.314 C  
HETATM   20  C   UNL     1      -8.618   8.809  65.622  1.00  0.00    -0.172 C  
HETATM   21  C   UNL     1      -8.884   7.791  69.272  1.00  0.00    -0.139 C  
HETATM   22  C   UNL     1     -10.571   8.360  66.994  1.00  0.00    -0.246 C  
ENDBRANCH   7  15
ENDBRANCH   5   6
ENDBRANCH   4   5
ENDBRANCH   3   4
ENDBRANCH   2   3
TORSDOF 5
ENDMDL
MODEL      256
REMARK 921   NORMALIZED FREE ENERGY PREDICTED BY IDOCK:   -2.10 KCAL/MOL
REMARK 922        TOTAL FREE ENERGY PREDICTED BY IDOCK:   -3.35 KCAL/MOL
REMARK 923 INTER-LIGAND FREE ENERGY PREDICTED BY IDOCK:   -3.72 KCAL/MOL
REMARK 924 INTRA-LIGAND FREE ENERGY PREDICTED BY IDOCK:    0.37 KCAL/MOL
REMARK 927      BINDING AFFINITY PREDICTED BY RF-SCORE:    0.00 PKD
ROOT
HETATM    1  C   UNL     1     -10.490  18.207  67.630  1.00  0.00    -0.432 C  
HETATM    2  C   UNL     1      -9.475  17.096  67.520  1.00  0.00    -0.247 C  
ENDROOT
BRANCH   2   3
HETATM    3  O   UNL     1     -10.119  15.845  67.784  1.00  0.00    -0.238 OA 
BRANCH   3   4
HETATM    4  C   UNL     1      -9.515  14.843  66.968  1.00  0.00    -0.229 C  
BRANCH   4   5
HETATM    5  C   UNL     1      -9.526  13.479  67.626  1.00  0.00    -0.222 C  
BRANCH   5   6
HETATM    6  N   UNL     1      -8.244  12.941  68.051  1.00  0.00    -0.157 NA 
HETATM    7  C   UNL     1      -7.783  11.645  67.776  1.00  0.00    -0.126 A  
HETATM    8  N   UNL     1      -6.648  11.435  68.418  1.00  0.00    -0.060 NA 
HETATM    9  C   UNL     1      -7.320  13.559  68.887  1.00  0.00    -0.045 A  
HETATM   10  C   UNL     1      -7.211  14.823  69.508  1.00  0.00    -0.160 A  
HETATM   11  C   UNL     1      -6.344  12.591  69.085  1.00  0.00    -0.095 A  
HETATM   12  C   UNL     1      -6.113  15.099  70.321  1.00  0.00    -0.127 A  
HETATM   13  C   UNL     1      -5.237  12.878  69.910  1.00  0.00    -0.086 A  
HETATM   14  C   UNL     1      -5.128  14.137  70.519  1.00  0.00    -0.102 A  
BRANCH   7  15
HETATM   15  N   UNL     1      -8.468  10.697  67.058  1.00  0.00    -0.128 NA 
HETATM   16  N   UNL     1      -9.532   7.538  67.363  1.00  0.00    -0.138 NA 
HETATM   17  C   UNL     1     -10.779   9.756  67.561  1.00  0.00    -0.327 C  
HETATM   18  C   UNL     1      -8.318   8.288  67.723  1.00  0.00    -0.128 C  
HETATM   19  C   UNL     1      -9.926  10.857  66.915  1.00  0.00    -0.194 C  
HETATM   20  C   UNL     1      -9.939   6.692  68.484  1.00  0.00    -0.150 C  
HETATM   21  C   UNL     1      -7.923   9.380  66.714  1.00  0.00    -0.108 C  
HETATM   22  C   UNL     1     -10.632   8.386  66.888  1.00  0.00    -0.215 C  
ENDBRANCH   7  15
ENDBRANCH   5   6
ENDBRANCH   4   5
ENDBRANCH   3   4
ENDBRANCH   2   3
TORSDOF 5
ENDMDL
MODEL      257
REMARK 921   NORMALIZED FREE ENERGY PREDICTED BY IDOCK:   -2.05 KCAL/MOL
REMARK 922        TOTAL FREE ENERGY PREDICTED BY IDOCK:   -3.29 KCAL/MOL
REMARK 923 INTER-LIGAND FREE ENERGY PREDICTED BY IDOCK:   -3.55 KCAL/MOL
REMARK 924 INTRA-LIGAND FREE ENERGY PREDICTED BY IDOCK:    0.26 KCAL/MOL
REMARK 927      BINDING AFFINITY PREDICTED BY RF-SCORE:    0.00 PKD
ROOT
HETATM    1  C   UNL     1      -5.869   4.304  68.574  1.00  0.00    -0.025 C  
HETATM    2  C   UNL     1      -6.162   4.874  69.940  1.00  0.00    -0.026 C  
ENDROOT
BRANCH   2   3
HETATM    3  O   UNL     1      -6.467   6.267  69.810  1.00  0.00    -0.039 OA 
BRANCH   3   4
HETATM    4  C   UNL     1      -6.478   6.603  68.424  1.00  0.00    -0.049 C  
BRANCH   4   5
HETATM    5  C   UNL     1      -7.823   6.347  67.777  1.00  0.00    -0.104 C  
BRANCH   5   6
HETATM    6  N   UNL     1      -8.560   7.508  67.306  1.00  0.00    -0.117 NA 
HETATM    7  C   UNL     1      -9.674   8.069  67.947  1.00  0.00    -0.160 A  
HETATM    8  N   UNL     1     -10.185   9.023  67.190  1.00  0.00    -0.243 NA 
HETATM    9  C   UNL     1      -8.371   8.180  66.103  1.00  0.00    -0.126 A  
HETATM   10  C   UNL     1      -7.455   8.089  65.031  1.00  0.00    -0.087 A  
HETATM   11  C   UNL     1      -9.398   9.115  66.074  1.00  0.00    -0.238 A  
HETATM   12  C   UNL     1      -7.583   8.948  63.941  1.00  0.00    -0.121 A  
HETATM   13  C   UNL     1      -9.521   9.978  64.966  1.00  0.00    -0.339 A  
HETATM   14  C   UNL     1      -8.605   9.891  63.908  1.00  0.00    -0.202 A  
BRANCH   7  15
HETATM   15  N   UNL     1     -10.227   7.613  69.118  1.00  0.00    -0.199 NA 
HETATM   16  N   UNL     1     -10.230   4.875  71.042  1.00  0.00    -0.213 NA 
HETATM   17  C   UNL     1      -9.015   7.105  71.297  1.00  0.00    -0.147 C  
HETATM   18  C   UNL     1     -10.262   5.156  69.599  1.00  0.00    -0.267 C  
HETATM   19  C   UNL     1      -9.691   8.139  70.386  1.00  0.00    -0.178 C  
HETATM   20  C   UNL     1      -9.269   3.807  71.315  1.00  0.00    -0.128 C  
HETATM   21  C   UNL     1     -11.062   6.412  69.213  1.00  0.00    -0.373 C  
HETATM   22  C   UNL     1      -9.981   6.061  71.871  1.00  0.00    -0.169 C  
ENDBRANCH   7  15
ENDBRANCH   5   6
ENDBRANCH   4   5
ENDBRANCH   3   4
ENDBRANCH   2   3
TORSDOF 5
ENDMDL
MODEL      258
REMARK 921   NORMALIZED FREE ENERGY PREDICTED BY IDOCK:   -2.01 KCAL/MOL
REMARK 922        TOTAL FREE ENERGY PREDICTED BY IDOCK:   -3.23 KCAL/MOL
REMARK 923 INTER-LIGAND FREE ENERGY PREDICTED BY IDOCK:   -3.10 KCAL/MOL
REMARK 924 INTRA-LIGAND FREE ENERGY PREDICTED BY IDOCK:   -0.13 KCAL/MOL
REMARK 927      BINDING AFFINITY PREDICTED BY RF-SCORE:    0.00 PKD
ROOT
HETATM    1  C   UNL     1      -7.478   3.898  67.978  1.00  0.00    -0.066 C  
HETATM    2  C   UNL     1      -8.968   4.129  68.019  1.00  0.00    -0.121 C  
ENDROOT
BRANCH   2   3
HETATM    3  O   UNL     1      -9.232   5.376  68.670  1.00  0.00    -0.113 OA 
BRANCH   3   4
HETATM    4  C   UNL     1     -10.148   6.122  67.870  1.00  0.00    -0.153 C  
BRANCH   4   5
HETATM    5  C   UNL     1      -9.791   7.592  67.801  1.00  0.00    -0.155 C  
BRANCH   5   6
HETATM    6  N   UNL     1      -9.327   8.217  69.029  1.00  0.00    -0.148 NA 
HETATM    7  C   UNL     1      -8.199   9.043  69.136  1.00  0.00    -0.121 A  
HETATM    8  N   UNL     1      -7.982   9.332  70.406  1.00  0.00    -0.139 NA 
HETATM    9  C   UNL     1      -9.837   8.017  70.307  1.00  0.00    -0.184 A  
HETATM   10  C   UNL     1     -10.922   7.299  70.859  1.00  0.00    -0.275 A  
HETATM   11  C   UNL     1      -8.975   8.731  71.130  1.00  0.00    -0.222 A  
HETATM   12  C   UNL     1     -11.129   7.312  72.237  1.00  0.00    -0.298 A  
HETATM   13  C   UNL     1      -9.190   8.737  72.524  1.00  0.00    -0.046 A  
HETATM   14  C   UNL     1     -10.273   8.030  73.066  1.00  0.00    -0.357 A  
BRANCH   7  15
HETATM   15  N   UNL     1      -7.372   9.392  68.097  1.00  0.00    -0.078 NA 
HETATM   16  N   UNL     1      -6.536   8.333  65.034  1.00  0.00    -0.059 NA 
HETATM   17  C   UNL     1      -8.061  10.233  65.796  1.00  0.00    -0.149 C  
HETATM   18  C   UNL     1      -6.815   7.704  66.334  1.00  0.00    -0.062 C  
HETATM   19  C   UNL     1      -7.754  10.547  67.267  1.00  0.00    -0.106 C  
HETATM   20  C   UNL     1      -7.227   7.601  63.973  1.00  0.00    -0.081 C  
HETATM   21  C   UNL     1      -6.333   8.513  67.550  1.00  0.00    -0.057 C  
HETATM   22  C   UNL     1      -6.837   9.770  64.995  1.00  0.00    -0.115 C  
ENDBRANCH   7  15
ENDBRANCH   5   6
ENDBRANCH   4   5
ENDBRANCH   3   4
ENDBRANCH   2   3
TORSDOF 5
ENDMDL
MODEL      259
REMARK 921   NORMALIZED FREE ENERGY PREDICTED BY IDOCK:   -2.00 KCAL/MOL
REMARK 922        TOTAL FREE ENERGY PREDICTED BY IDOCK:   -3.21 KCAL/MOL
REMARK 923 INTER-LIGAND FREE ENERGY PREDICTED BY IDOCK:   -3.75 KCAL/MOL
REMARK 924 INTRA-LIGAND FREE ENERGY PREDICTED BY IDOCK:    0.54 KCAL/MOL
REMARK 927      BINDING AFFINITY PREDICTED BY RF-SCORE:    0.00 PKD
ROOT
HETATM    1  C   UNL     1     -10.092  17.882  68.078  1.00  0.00    -0.360 C  
HETATM    2  C   UNL     1      -9.424  16.537  68.225  1.00  0.00    -0.220 C  
ENDROOT
BRANCH   2   3
HETATM    3  O   UNL     1     -10.429  15.530  68.390  1.00  0.00    -0.232 OA 
BRANCH   3   4
HETATM    4  C   UNL     1      -9.997  14.345  67.724  1.00  0.00    -0.226 C  
BRANCH   4   5
HETATM    5  C   UNL     1      -9.691  13.219  68.689  1.00  0.00    -0.069 C  
BRANCH   5   6
HETATM    6  N   UNL     1      -8.991  12.062  68.155  1.00  0.00    -0.186 NA 
HETATM    7  C   UNL     1      -9.519  10.765  68.080  1.00  0.00    -0.158 A  
HETATM    8  N   UNL     1      -8.583   9.930  67.671  1.00  0.00    -0.122 NA 
HETATM    9  C   UNL     1      -7.665  12.012  67.740  1.00  0.00    -0.139 A  
HETATM   10  C   UNL     1      -6.617  12.949  67.598  1.00  0.00    -0.155 A  
HETATM   11  C   UNL     1      -7.454  10.671  67.445  1.00  0.00    -0.094 A  
HETATM   12  C   UNL     1      -5.366  12.522  67.155  1.00  0.00     0.031 A  
HETATM   13  C   UNL     1      -6.185  10.248  66.999  1.00  0.00    -0.059 A  
HETATM   14  C   UNL     1      -5.150  11.183  66.851  1.00  0.00    -0.069 A  
BRANCH   7  15
HETATM   15  N   UNL     1     -10.776  10.397  68.493  1.00  0.00    -0.206 NA 
HETATM   16  N   UNL     1     -12.257   8.717  70.980  1.00  0.00    -0.242 NA 
HETATM   17  C   UNL     1     -12.024  11.222  70.551  1.00  0.00    -0.467 C  
HETATM   18  C   UNL     1     -11.044   8.553  70.164  1.00  0.00    -0.188 C  
HETATM   19  C   UNL     1     -11.642  11.434  69.080  1.00  0.00    -0.317 C  
HETATM   20  C   UNL     1     -11.944   8.471  72.387  1.00  0.00    -0.364 C  
HETATM   21  C   UNL     1     -11.193   9.007  68.703  1.00  0.00     0.349 C  
HETATM   22  C   UNL     1     -12.931  10.007  70.786  1.00  0.00    -0.257 C  
ENDBRANCH   7  15
ENDBRANCH   5   6
ENDBRANCH   4   5
ENDBRANCH   3   4
ENDBRANCH   2   3
TORSDOF 5
ENDMDL
MODEL      260
REMARK 921   NORMALIZED FREE ENERGY PREDICTED BY IDOCK:   -1.98 KCAL/MOL
REMARK 922        TOTAL FREE ENERGY PREDICTED BY IDOCK:   -3.19 KCAL/MOL
REMARK 923 INTER-LIGAND FREE ENERGY PREDICTED BY IDOCK:   -2.59 KCAL/MOL
REMARK 924 INTRA-LIGAND FREE ENERGY PREDICTED BY IDOCK:   -0.60 KCAL/MOL
REMARK 927      BINDING AFFINITY PREDICTED BY RF-SCORE:    0.00 PKD
ROOT
HETATM    1  C   UNL     1      -8.539  12.273  67.529  1.00  0.00    -0.174 C  
HETATM    2  C   UNL     1      -9.328  11.829  66.323  1.00  0.00    -0.225 C  
ENDROOT
BRANCH   2   3
HETATM    3  O   UNL     1      -9.190  10.412  66.168  1.00  0.00    -0.160 OA 
BRANCH   3   4
HETATM    4  C   UNL     1      -8.227  10.159  65.146  1.00  0.00    -0.151 C  
BRANCH   4   5
HETATM    5  C   UNL     1      -7.137   9.211  65.600  1.00  0.00    -0.082 C  
BRANCH   5   6
HETATM    6  N   UNL     1      -7.288   8.613  66.916  1.00  0.00    -0.079 NA 
HETATM    7  C   UNL     1      -8.032   7.458  67.196  1.00  0.00    -0.114 A  
HETATM    8  N   UNL     1      -8.073   7.264  68.500  1.00  0.00    -0.123 NA 
HETATM    9  C   UNL     1      -6.831   9.133  68.122  1.00  0.00    -0.068 A  
HETATM   10  C   UNL     1      -6.059  10.251  68.510  1.00  0.00    -0.043 A  
HETATM   11  C   UNL     1      -7.337   8.262  69.079  1.00  0.00    -0.089 A  
HETATM   12  C   UNL     1      -5.802  10.477  69.861  1.00  0.00    -0.059 A  
HETATM   13  C   UNL     1      -7.074   8.499  70.443  1.00  0.00    -0.038 A  
HETATM   14  C   UNL     1      -6.300   9.606  70.823  1.00  0.00    -0.097 A  
BRANCH   7  15
HETATM   15  N   UNL     1      -8.720   6.715  66.267  1.00  0.00    -0.141 NA 
HETATM   16  N   UNL     1      -8.960   3.554  65.197  1.00  0.00    -0.129 NA 
HETATM   17  C   UNL     1     -10.477   4.930  66.720  1.00  0.00    -0.237 C  
HETATM   18  C   UNL     1      -7.872   4.453  65.612  1.00  0.00    -0.094 C  
HETATM   19  C   UNL     1     -10.138   6.416  66.535  1.00  0.00    -0.092 C  
HETATM   20  C   UNL     1      -8.777   2.240  65.813  1.00  0.00    -0.119 C  
HETATM   21  C   UNL     1      -8.077   5.925  65.214  1.00  0.00    -0.133 C  
HETATM   22  C   UNL     1     -10.302   4.094  65.446  1.00  0.00    -0.148 C  
ENDBRANCH   7  15
ENDBRANCH   5   6
ENDBRANCH   4   5
ENDBRANCH   3   4
ENDBRANCH   2   3
TORSDOF 5
ENDMDL
MODEL      261
REMARK 921   NORMALIZED FREE ENERGY PREDICTED BY IDOCK:   -1.95 KCAL/MOL
REMARK 922        TOTAL FREE ENERGY PREDICTED BY IDOCK:   -3.16 KCAL/MOL
REMARK 923 INTER-LIGAND FREE ENERGY PREDICTED BY IDOCK:   -3.24 KCAL/MOL
REMARK 924 INTRA-LIGAND FREE ENERGY PREDICTED BY IDOCK:    0.09 KCAL/MOL
REMARK 927      BINDING AFFINITY PREDICTED BY RF-SCORE:    0.00 PKD
ROOT
HETATM    1  C   UNL     1     -10.672  15.270  63.964  1.00  0.00     1.274 C  
HETATM    2  C   UNL     1     -11.535  14.051  64.175  1.00  0.00    -0.209 C  
ENDROOT
BRANCH   2   3
HETATM    3  O   UNL     1     -11.028  13.304  65.285  1.00  0.00    -0.283 OA 
BRANCH   3   4
HETATM    4  C   UNL     1      -9.616  13.499  65.357  1.00  0.00     0.114 C  
BRANCH   4   5
HETATM    5  C   UNL     1      -9.092  13.406  66.775  1.00  0.00    -0.212 C  
BRANCH   5   6
HETATM    6  N   UNL     1      -9.536  14.425  67.712  1.00  0.00    -0.212 NA 
HETATM    7  C   UNL     1     -10.588  14.273  68.627  1.00  0.00    -0.250 A  
HETATM    8  N   UNL     1     -10.819  15.425  69.230  1.00  0.00    -0.238 NA 
HETATM    9  C   UNL     1      -9.087  15.739  67.785  1.00  0.00    -0.188 A  
HETATM   10  C   UNL     1      -8.090  16.501  67.137  1.00  0.00    -0.213 A  
HETATM   11  C   UNL     1      -9.907  16.322  68.743  1.00  0.00    -0.238 A  
HETATM   12  C   UNL     1      -7.926  17.845  67.466  1.00  0.00    -0.217 A  
HETATM   13  C   UNL     1      -9.737  17.684  69.068  1.00  0.00    -0.189 A  
HETATM   14  C   UNL     1      -8.740  18.435  68.428  1.00  0.00    -0.337 A  
BRANCH   7  15
HETATM   15  N   UNL     1     -11.348  13.139  68.780  1.00  0.00    -0.272 NA 
HETATM   16  N   UNL     1     -11.055  10.005  69.916  1.00  0.00    -0.270 NA 
HETATM   17  C   UNL     1     -12.109  12.080  70.964  1.00  0.00    -0.083 C  
HETATM   18  C   UNL     1     -10.222  10.931  69.132  1.00  0.00    -0.195 C  
HETATM   19  C   UNL     1     -12.349  13.119  69.860  1.00  0.00    -0.135 C  
HETATM   20  C   UNL     1     -10.237   9.352  70.938  1.00  0.00    -0.303 C  
HETATM   21  C   UNL     1     -11.012  11.845  68.180  1.00  0.00    -0.227 C  
HETATM   22  C   UNL     1     -12.254  10.628  70.490  1.00  0.00    -0.358 C  
ENDBRANCH   7  15
ENDBRANCH   5   6
ENDBRANCH   4   5
ENDBRANCH   3   4
ENDBRANCH   2   3
TORSDOF 5
ENDMDL
MODEL      262
REMARK 921   NORMALIZED FREE ENERGY PREDICTED BY IDOCK:   -1.95 KCAL/MOL
REMARK 922        TOTAL FREE ENERGY PREDICTED BY IDOCK:   -3.15 KCAL/MOL
REMARK 923 INTER-LIGAND FREE ENERGY PREDICTED BY IDOCK:   -2.44 KCAL/MOL
REMARK 924 INTRA-LIGAND FREE ENERGY PREDICTED BY IDOCK:   -0.71 KCAL/MOL
REMARK 927      BINDING AFFINITY PREDICTED BY RF-SCORE:    0.00 PKD
ROOT
HETATM    1  C   UNL     1      -5.817   5.023  66.372  1.00  0.00    -0.022 C  
HETATM    2  C   UNL     1      -6.360   3.789  67.048  1.00  0.00    -0.036 C  
ENDROOT
BRANCH   2   3
HETATM    3  O   UNL     1      -6.670   4.099  68.411  1.00  0.00    -0.045 OA 
BRANCH   3   4
HETATM    4  C   UNL     1      -7.622   3.149  68.887  1.00  0.00    -0.048 C  
BRANCH   4   5
HETATM    5  C   UNL     1      -8.718   3.793  69.711  1.00  0.00    -0.077 C  
BRANCH   5   6
HETATM    6  N   UNL     1      -8.368   4.992  70.454  1.00  0.00    -0.098 NA 
HETATM    7  C   UNL     1      -8.701   6.301  70.076  1.00  0.00    -0.141 A  
HETATM    8  N   UNL     1      -8.120   7.158  70.893  1.00  0.00    -0.110 NA 
HETATM    9  C   UNL     1      -7.559   5.063  71.583  1.00  0.00    -0.104 A  
HETATM   10  C   UNL     1      -6.907   4.126  72.416  1.00  0.00    -0.046 A  
HETATM   11  C   UNL     1      -7.434   6.425  71.824  1.00  0.00    -0.093 A  
HETATM   12  C   UNL     1      -6.137   4.575  73.488  1.00  0.00    -0.028 A  
HETATM   13  C   UNL     1      -6.653   6.871  72.910  1.00  0.00    -0.062 A  
HETATM   14  C   UNL     1      -6.013   5.938  73.739  1.00  0.00    -0.061 A  
BRANCH   7  15
HETATM   15  N   UNL     1      -9.414   6.643  68.954  1.00  0.00    -0.131 NA 
HETATM   16  N   UNL     1     -10.755   9.346  67.506  1.00  0.00    -0.268 NA 
HETATM   17  C   UNL     1      -8.615   8.054  66.992  1.00  0.00    -0.127 C  
HETATM   18  C   UNL     1     -10.637   8.826  68.878  1.00  0.00    -0.155 C  
HETATM   19  C   UNL     1      -8.701   6.677  67.665  1.00  0.00    -0.118 C  
HETATM   20  C   UNL     1     -10.433  10.773  67.490  1.00  0.00    -0.220 C  
HETATM   21  C   UNL     1     -10.727   7.295  68.987  1.00  0.00    -0.166 C  
HETATM   22  C   UNL     1      -9.970   8.596  66.519  1.00  0.00    -0.282 C  
ENDBRANCH   7  15
ENDBRANCH   5   6
ENDBRANCH   4   5
ENDBRANCH   3   4
ENDBRANCH   2   3
TORSDOF 5
ENDMDL
MODEL      263
REMARK 921   NORMALIZED FREE ENERGY PREDICTED BY IDOCK:   -1.92 KCAL/MOL
REMARK 922        TOTAL FREE ENERGY PREDICTED BY IDOCK:   -3.12 KCAL/MOL
REMARK 923 INTER-LIGAND FREE ENERGY PREDICTED BY IDOCK:   -2.70 KCAL/MOL
REMARK 924 INTRA-LIGAND FREE ENERGY PREDICTED BY IDOCK:   -0.42 KCAL/MOL
REMARK 927      BINDING AFFINITY PREDICTED BY RF-SCORE:    0.00 PKD
ROOT
HETATM    1  C   UNL     1     -10.353  10.850  63.893  1.00  0.00    -0.397 C  
HETATM    2  C   UNL     1      -8.879  10.552  64.008  1.00  0.00    -0.195 C  
ENDROOT
BRANCH   2   3
HETATM    3  O   UNL     1      -8.706   9.267  64.613  1.00  0.00    -0.185 OA 
BRANCH   3   4
HETATM    4  C   UNL     1      -7.311   8.971  64.661  1.00  0.00    -0.098 C  
BRANCH   4   5
HETATM    5  C   UNL     1      -6.936   8.150  65.877  1.00  0.00    -0.060 C  
BRANCH   5   6
HETATM    6  N   UNL     1      -7.070   8.792  67.174  1.00  0.00    -0.075 NA 
HETATM    7  C   UNL     1      -7.646   8.202  68.309  1.00  0.00    -0.102 A  
HETATM    8  N   UNL     1      -7.732   9.097  69.276  1.00  0.00    -0.078 NA 
HETATM    9  C   UNL     1      -6.765  10.113  67.483  1.00  0.00    -0.072 A  
HETATM   10  C   UNL     1      -6.193  11.204  66.791  1.00  0.00    -0.122 A  
HETATM   11  C   UNL     1      -7.188  10.258  68.798  1.00  0.00    -0.083 A  
HETATM   12  C   UNL     1      -6.050  12.431  67.435  1.00  0.00    -0.158 A  
HETATM   13  C   UNL     1      -7.042  11.504  69.442  1.00  0.00    -0.037 A  
HETATM   14  C   UNL     1      -6.466  12.582  68.754  1.00  0.00    -0.084 A  
BRANCH   7  15
HETATM   15  N   UNL     1      -8.161   6.931  68.365  1.00  0.00    -0.120 NA 
HETATM   16  N   UNL     1      -9.611   4.673  66.365  1.00  0.00    -0.164 NA 
HETATM   17  C   UNL     1      -7.225   4.840  67.256  1.00  0.00    -0.073 C  
HETATM   18  C   UNL     1      -9.691   6.130  66.553  1.00  0.00    -0.145 C  
HETATM   19  C   UNL     1      -7.214   5.805  68.450  1.00  0.00    -0.079 C  
HETATM   20  C   UNL     1      -9.537   4.362  64.938  1.00  0.00    -0.154 C  
HETATM   21  C   UNL     1      -9.543   6.592  68.012  1.00  0.00    -0.123 C  
HETATM   22  C   UNL     1      -8.525   4.037  67.121  1.00  0.00    -0.100 C  
ENDBRANCH   7  15
ENDBRANCH   5   6
ENDBRANCH   4   5
ENDBRANCH   3   4
ENDBRANCH   2   3
TORSDOF 5
ENDMDL
MODEL      264
REMARK 921   NORMALIZED FREE ENERGY PREDICTED BY IDOCK:   -1.90 KCAL/MOL
REMARK 922        TOTAL FREE ENERGY PREDICTED BY IDOCK:   -3.09 KCAL/MOL
REMARK 923 INTER-LIGAND FREE ENERGY PREDICTED BY IDOCK:   -2.73 KCAL/MOL
REMARK 924 INTRA-LIGAND FREE ENERGY PREDICTED BY IDOCK:   -0.36 KCAL/MOL
REMARK 927      BINDING AFFINITY PREDICTED BY RF-SCORE:    0.00 PKD
ROOT
HETATM    1  C   UNL     1      -5.201  19.651  66.250  1.00  0.00    -0.166 C  
HETATM    2  C   UNL     1      -5.185  18.258  65.673  1.00  0.00    -0.177 C  
ENDROOT
BRANCH   2   3
HETATM    3  O   UNL     1      -6.531  17.830  65.443  1.00  0.00    -0.180 OA 
BRANCH   3   4
HETATM    4  C   UNL     1      -6.848  16.802  66.381  1.00  0.00    -0.070 C  
BRANCH   4   5
HETATM    5  C   UNL     1      -8.321  16.452  66.380  1.00  0.00    -0.328 C  
BRANCH   5   6
HETATM    6  N   UNL     1      -9.183  17.214  67.268  1.00  0.00    -0.227 NA 
HETATM    7  C   UNL     1     -10.038  16.661  68.232  1.00  0.00    -0.268 A  
HETATM    8  N   UNL     1     -10.774  17.616  68.769  1.00  0.00    -0.179 NA 
HETATM    9  C   UNL     1      -9.396  18.588  67.240  1.00  0.00    -0.280 A  
HETATM   10  C   UNL     1      -8.871  19.675  66.506  1.00  0.00    -0.410 A  
HETATM   11  C   UNL     1     -10.388  18.795  68.191  1.00  0.00    -0.365 A  
HETATM   12  C   UNL     1      -9.351  20.963  66.742  1.00  0.00    -0.040 A  
HETATM   13  C   UNL     1     -10.868  20.100  68.422  1.00  0.00     0.271 A  
HETATM   14  C   UNL     1     -10.339  21.178  67.697  1.00  0.00     0.781 A  
BRANCH   7  15
HETATM   15  N   UNL     1     -10.182  15.319  68.486  1.00  0.00    -0.220 NA 
HETATM   16  N   UNL     1     -11.921  13.271  70.481  1.00  0.00    -0.295 NA 
HETATM   17  C   UNL     1     -12.223  13.874  68.019  1.00  0.00    -0.188 C  
HETATM   18  C   UNL     1     -11.242  14.569  70.626  1.00  0.00    -0.001 C  
HETATM   19  C   UNL     1     -10.922  14.506  67.506  1.00  0.00    -0.293 C  
HETATM   20  C   UNL     1     -13.234  13.327  71.121  1.00  0.00    -0.070 C  
HETATM   21  C   UNL     1      -9.953  14.708  69.798  1.00  0.00     0.226 C  
HETATM   22  C   UNL     1     -12.008  12.800  69.093  1.00  0.00    -0.246 C  
ENDBRANCH   7  15
ENDBRANCH   5   6
ENDBRANCH   4   5
ENDBRANCH   3   4
ENDBRANCH   2   3
TORSDOF 5
ENDMDL
MODEL      265
REMARK 921   NORMALIZED FREE ENERGY PREDICTED BY IDOCK:   -1.67 KCAL/MOL
REMARK 922        TOTAL FREE ENERGY PREDICTED BY IDOCK:   -2.79 KCAL/MOL
REMARK 923 INTER-LIGAND FREE ENERGY PREDICTED BY IDOCK:   -2.39 KCAL/MOL
REMARK 924 INTRA-LIGAND FREE ENERGY PREDICTED BY IDOCK:   -0.40 KCAL/MOL
REMARK 927      BINDING AFFINITY PREDICTED BY RF-SCORE:    0.00 PKD
ROOT
HETATM    1  C   UNL     1      -7.087  10.013  66.353  1.00  0.00    -0.102 C  
HETATM    2  C   UNL     1      -7.392   8.537  66.402  1.00  0.00    -0.080 C  
ENDROOT
BRANCH   2   3
HETATM    3  O   UNL     1      -8.399   8.299  67.392  1.00  0.00    -0.123 OA 
BRANCH   3   4
HETATM    4  C   UNL     1      -9.518   7.678  66.762  1.00  0.00    -0.191 C  
BRANCH   4   5
HETATM    5  C   UNL     1      -9.651   6.216  67.132  1.00  0.00    -0.124 C  
BRANCH   5   6
HETATM    6  N   UNL     1      -8.611   5.650  67.975  1.00  0.00    -0.102 NA 
HETATM    7  C   UNL     1      -7.630   4.744  67.545  1.00  0.00    -0.082 A  
HETATM    8  N   UNL     1      -6.929   4.327  68.583  1.00  0.00    -0.050 NA 
HETATM    9  C   UNL     1      -8.478   5.809  69.350  1.00  0.00    -0.112 A  
HETATM   10  C   UNL     1      -9.145   6.555  70.347  1.00  0.00    -0.156 A  
HETATM   11  C   UNL     1      -7.419   4.975  69.685  1.00  0.00    -0.057 A  
HETATM   12  C   UNL     1      -8.734   6.453  71.675  1.00  0.00    -0.133 A  
HETATM   13  C   UNL     1      -7.011   4.876  71.031  1.00  0.00    -0.047 A  
HETATM   14  C   UNL     1      -7.671   5.624  72.017  1.00  0.00    -0.102 A  
BRANCH   7  15
HETATM   15  N   UNL     1      -7.500   4.265  66.265  1.00  0.00    -0.084 NA 
HETATM   16  N   UNL     1      -9.412   3.196  63.734  1.00  0.00    -0.110 NA 
HETATM   17  C   UNL     1      -8.214   5.418  64.111  1.00  0.00    -0.127 C  
HETATM   18  C   UNL     1      -9.408   3.045  65.198  1.00  0.00    -0.133 C  
HETATM   19  C   UNL     1      -7.151   5.223  65.201  1.00  0.00    -0.065 C  
HETATM   20  C   UNL     1     -10.768   3.490  63.272  1.00  0.00    -0.223 C  
HETATM   21  C   UNL     1      -8.007   2.962  65.825  1.00  0.00    -0.085 C  
HETATM   22  C   UNL     1      -8.439   4.177  63.238  1.00  0.00    -0.099 C  
ENDBRANCH   7  15
ENDBRANCH   5   6
ENDBRANCH   4   5
ENDBRANCH   3   4
ENDBRANCH   2   3
TORSDOF 5
ENDMDL
MODEL      266
REMARK 921   NORMALIZED FREE ENERGY PREDICTED BY IDOCK:   -1.49 KCAL/MOL
REMARK 922        TOTAL FREE ENERGY PREDICTED BY IDOCK:   -2.56 KCAL/MOL
REMARK 923 INTER-LIGAND FREE ENERGY PREDICTED BY IDOCK:   -2.65 KCAL/MOL
REMARK 924 INTRA-LIGAND FREE ENERGY PREDICTED BY IDOCK:    0.08 KCAL/MOL
REMARK 927      BINDING AFFINITY PREDICTED BY RF-SCORE:    0.00 PKD
ROOT
HETATM    1  C   UNL     1      -5.285   6.220  66.174  1.00  0.00    -0.013 C  
HETATM    2  C   UNL     1      -6.541   5.501  65.749  1.00  0.00    -0.041 C  
ENDROOT
BRANCH   2   3
HETATM    3  O   UNL     1      -7.629   5.929  66.576  1.00  0.00    -0.092 OA 
BRANCH   3   4
HETATM    4  C   UNL     1      -8.841   5.803  65.833  1.00  0.00    -0.150 C  
BRANCH   4   5
HETATM    5  C   UNL     1     -10.011   6.477  66.518  1.00  0.00    -0.092 C  
BRANCH   5   6
HETATM    6  N   UNL     1      -9.772   7.033  67.840  1.00  0.00    -0.123 NA 
HETATM    7  C   UNL     1      -9.225   8.300  68.095  1.00  0.00    -0.134 A  
HETATM    8  N   UNL     1      -9.017   8.438  69.391  1.00  0.00    -0.152 NA 
HETATM    9  C   UNL     1      -9.928   6.379  69.057  1.00  0.00    -0.149 A  
HETATM   10  C   UNL     1     -10.404   5.113  69.467  1.00  0.00    -0.292 A  
HETATM   11  C   UNL     1      -9.452   7.289  69.993  1.00  0.00    -0.161 A  
HETATM   12  C   UNL     1     -10.399   4.780  70.821  1.00  0.00    -0.184 A  
HETATM   13  C   UNL     1      -9.449   6.942  71.360  1.00  0.00    -0.160 A  
HETATM   14  C   UNL     1      -9.930   5.688  71.764  1.00  0.00    -0.222 A  
BRANCH   7  15
HETATM   15  N   UNL     1      -8.844   9.205  67.135  1.00  0.00    -0.119 NA 
HETATM   16  N   UNL     1      -7.290  12.158  66.886  1.00  0.00    -0.068 NA 
HETATM   17  C   UNL     1      -6.470   9.786  66.424  1.00  0.00    -0.071 C  
HETATM   18  C   UNL     1      -8.270  11.549  67.800  1.00  0.00    -0.135 C  
HETATM   19  C   UNL     1      -7.690   8.865  66.284  1.00  0.00    -0.098 C  
HETATM   20  C   UNL     1      -6.257  12.848  67.659  1.00  0.00    -0.157 C  
HETATM   21  C   UNL     1      -9.274  10.606  67.117  1.00  0.00    -0.147 C  
HETATM   22  C   UNL     1      -6.713  11.214  65.921  1.00  0.00     0.112 C  
ENDBRANCH   7  15
ENDBRANCH   5   6
ENDBRANCH   4   5
ENDBRANCH   3   4
ENDBRANCH   2   3
TORSDOF 5
ENDMDL
MODEL      267
REMARK 921   NORMALIZED FREE ENERGY PREDICTED BY IDOCK:   -1.16 KCAL/MOL
REMARK 922        TOTAL FREE ENERGY PREDICTED BY IDOCK:   -2.14 KCAL/MOL
REMARK 923 INTER-LIGAND FREE ENERGY PREDICTED BY IDOCK:   -3.13 KCAL/MOL
REMARK 924 INTRA-LIGAND FREE ENERGY PREDICTED BY IDOCK:    0.99 KCAL/MOL
REMARK 927      BINDING AFFINITY PREDICTED BY RF-SCORE:    0.00 PKD
ROOT
HETATM    1  C   UNL     1     -12.149  15.146  65.841  1.00  0.00     0.283 C  
HETATM    2  C   UNL     1     -11.574  15.487  64.489  1.00  0.00    -0.283 C  
ENDROOT
BRANCH   2   3
HETATM    3  O   UNL     1     -10.165  15.233  64.501  1.00  0.00    -0.074 OA 
BRANCH   3   4
HETATM    4  C   UNL     1      -9.952  13.868  64.856  1.00  0.00    -0.138 C  
BRANCH   4   5
HETATM    5  C   UNL     1      -9.024  13.717  66.044  1.00  0.00     0.393 C  
BRANCH   5   6
HETATM    6  N   UNL     1      -9.634  13.382  67.320  1.00  0.00    -0.227 NA 
HETATM    7  C   UNL     1      -9.654  12.101  67.891  1.00  0.00    -0.198 A  
HETATM    8  N   UNL     1     -10.399  12.115  68.981  1.00  0.00    -0.062 NA 
HETATM    9  C   UNL     1     -10.390  14.225  68.127  1.00  0.00    -0.233 A  
HETATM   10  C   UNL     1     -10.754  15.590  68.096  1.00  0.00    -0.282 A  
HETATM   11  C   UNL     1     -10.842  13.399  69.148  1.00  0.00    -0.114 A  
HETATM   12  C   UNL     1     -11.568  16.109  69.101  1.00  0.00    -0.285 A  
HETATM   13  C   UNL     1     -11.667  13.932  70.160  1.00  0.00    -0.314 A  
HETATM   14  C   UNL     1     -12.019  15.290  70.131  1.00  0.00    -0.373 A  
BRANCH   7  15
HETATM   15  N   UNL     1      -9.094  10.977  67.335  1.00  0.00    -0.141 NA 
HETATM   16  N   UNL     1      -8.536   9.625  64.325  1.00  0.00    -0.177 NA 
HETATM   17  C   UNL     1      -6.975  10.847  65.932  1.00  0.00    -0.029 C  
HETATM   18  C   UNL     1      -9.635  10.362  64.970  1.00  0.00    -0.280 C  
HETATM   19  C   UNL     1      -7.624  10.871  67.323  1.00  0.00    -0.104 C  
HETATM   20  C   UNL     1      -8.306  10.158  62.983  1.00  0.00    -0.169 C  
HETATM   21  C   UNL     1      -9.820  10.048  66.464  1.00  0.00    -0.210 C  
HETATM   22  C   UNL     1      -7.302   9.588  65.119  1.00  0.00    -0.109 C  
ENDBRANCH   7  15
ENDBRANCH   5   6
ENDBRANCH   4   5
ENDBRANCH   3   4
ENDBRANCH   2   3
TORSDOF 5
ENDMDL
MODEL      268
REMARK 921   NORMALIZED FREE ENERGY PREDICTED BY IDOCK:   -1.04 KCAL/MOL
REMARK 922        TOTAL FREE ENERGY PREDICTED BY IDOCK:   -1.97 KCAL/MOL
REMARK 923 INTER-LIGAND FREE ENERGY PREDICTED BY IDOCK:   -3.02 KCAL/MOL
REMARK 924 INTRA-LIGAND FREE ENERGY PREDICTED BY IDOCK:    1.05 KCAL/MOL
REMARK 927      BINDING AFFINITY PREDICTED BY RF-SCORE:    0.00 PKD
ROOT
HETATM    1  C   UNL     1      -6.649  19.336  69.670  1.00  0.00    -0.282 C  
HETATM    2  C   UNL     1      -5.423  18.457  69.662  1.00  0.00    -0.209 C  
ENDROOT
BRANCH   2   3
HETATM    3  O   UNL     1      -5.719  17.246  68.959  1.00  0.00    -0.155 OA 
BRANCH   3   4
HETATM    4  C   UNL     1      -5.137  17.322  67.658  1.00  0.00    -0.118 C  
BRANCH   4   5
HETATM    5  C   UNL     1      -5.896  16.502  66.636  1.00  0.00     0.202 C  
BRANCH   5   6
HETATM    6  N   UNL     1      -6.936  15.620  67.138  1.00  0.00    -0.225 NA 
HETATM    7  C   UNL     1      -8.303  15.930  67.187  1.00  0.00    -0.202 A  
HETATM    8  N   UNL     1      -8.952  14.970  67.818  1.00  0.00    -0.176 NA 
HETATM    9  C   UNL     1      -6.752  14.386  67.754  1.00  0.00    -0.175 A  
HETATM   10  C   UNL     1      -5.647  13.551  68.028  1.00  0.00    -0.121 A  
HETATM   11  C   UNL     1      -8.030  14.017  68.157  1.00  0.00    -0.149 A  
HETATM   12  C   UNL     1      -5.842  12.347  68.704  1.00  0.00    -0.054 A  
HETATM   13  C   UNL     1      -8.218  12.799  68.842  1.00  0.00     0.247 A  
HETATM   14  C   UNL     1      -7.118  11.969  69.105  1.00  0.00    -0.032 A  
BRANCH   7  15
HETATM   15  N   UNL     1      -8.862  17.109  66.759  1.00  0.00    -0.235 NA 
HETATM   16  N   UNL     1     -10.143  19.932  68.020  1.00  0.00    -0.426 NA 
HETATM   17  C   UNL     1      -7.872  19.445  66.962  1.00  0.00    -0.275 C  
HETATM   18  C   UNL     1     -10.197  18.500  68.356  1.00  0.00    -0.372 C  
HETATM   19  C   UNL     1      -7.969  18.128  66.180  1.00  0.00    -0.187 C  
HETATM   20  C   UNL     1      -9.914  20.715  69.234  1.00  0.00     0.624 C  
HETATM   21  C   UNL     1     -10.204  17.561  67.138  1.00  0.00    -0.323 C  
HETATM   22  C   UNL     1      -9.174  20.257  66.967  1.00  0.00    -0.375 C  
ENDBRANCH   7  15
ENDBRANCH   5   6
ENDBRANCH   4   5
ENDBRANCH   3   4
ENDBRANCH   2   3
TORSDOF 5
ENDMDL
MODEL      269
REMARK 921   NORMALIZED FREE ENERGY PREDICTED BY IDOCK:   -0.85 KCAL/MOL
REMARK 922        TOTAL FREE ENERGY PREDICTED BY IDOCK:   -1.73 KCAL/MOL
REMARK 923 INTER-LIGAND FREE ENERGY PREDICTED BY IDOCK:   -2.43 KCAL/MOL
REMARK 924 INTRA-LIGAND FREE ENERGY PREDICTED BY IDOCK:    0.70 KCAL/MOL
REMARK 927      BINDING AFFINITY PREDICTED BY RF-SCORE:    0.00 PKD
ROOT
HETATM    1  C   UNL     1     -10.347  10.864  63.879  1.00  0.00    -0.397 C  
HETATM    2  C   UNL     1      -8.866  10.588  63.953  1.00  0.00    -0.194 C  
ENDROOT
BRANCH   2   3
HETATM    3  O   UNL     1      -8.660   9.263  64.454  1.00  0.00    -0.182 OA 
BRANCH   3   4
HETATM    4  C   UNL     1      -7.260   8.991  64.458  1.00  0.00    -0.097 C  
BRANCH   4   5
HETATM    5  C   UNL     1      -6.868   7.990  65.525  1.00  0.00    -0.059 C  
BRANCH   5   6
HETATM    6  N   UNL     1      -7.900   7.593  66.469  1.00  0.00    -0.103 NA 
HETATM    7  C   UNL     1      -8.229   6.269  66.794  1.00  0.00    -0.110 A  
HETATM    8  N   UNL     1      -9.293   6.257  67.575  1.00  0.00    -0.114 NA 
HETATM    9  C   UNL     1      -8.803   8.432  67.114  1.00  0.00    -0.130 A  
HETATM   10  C   UNL     1      -9.007   9.828  67.185  1.00  0.00    -0.148 A  
HETATM   11  C   UNL     1      -9.646   7.561  67.793  1.00  0.00    -0.142 A  
HETATM   12  C   UNL     1     -10.061  10.332  67.946  1.00  0.00    -0.200 A  
HETATM   13  C   UNL     1     -10.710   8.080  68.558  1.00  0.00    -0.065 A  
HETATM   14  C   UNL     1     -10.906   9.467  68.633  1.00  0.00    -0.177 A  
BRANCH   7  15
HETATM   15  N   UNL     1      -7.620   5.152  66.275  1.00  0.00    -0.087 NA 
HETATM   16  N   UNL     1      -6.148   4.126  63.451  1.00  0.00    -0.017 NA 
HETATM   17  C   UNL     1      -5.161   4.875  65.683  1.00  0.00    -0.012 C  
HETATM   18  C   UNL     1      -7.326   4.936  63.799  1.00  0.00    -0.051 C  
HETATM   19  C   UNL     1      -6.265   4.822  66.749  1.00  0.00    -0.032 C  
HETATM   20  C   UNL     1      -5.394   4.784  62.384  1.00  0.00    -0.009 C  
HETATM   21  C   UNL     1      -8.070   4.467  65.061  1.00  0.00    -0.099 C  
HETATM   22  C   UNL     1      -5.295   3.796  64.600  1.00  0.00    -0.009 C  
ENDBRANCH   7  15
ENDBRANCH   5   6
ENDBRANCH   4   5
ENDBRANCH   3   4
ENDBRANCH   2   3
TORSDOF 5
ENDMDL
MODEL      270
REMARK 921   NORMALIZED FREE ENERGY PREDICTED BY IDOCK:   -0.62 KCAL/MOL
REMARK 922        TOTAL FREE ENERGY PREDICTED BY IDOCK:   -1.43 KCAL/MOL
REMARK 923 INTER-LIGAND FREE ENERGY PREDICTED BY IDOCK:   -1.88 KCAL/MOL
REMARK 924 INTRA-LIGAND FREE ENERGY PREDICTED BY IDOCK:    0.44 KCAL/MOL
REMARK 927      BINDING AFFINITY PREDICTED BY RF-SCORE:    0.00 PKD
ROOT
HETATM    1  C   UNL     1     -10.453  10.896  63.629  1.00  0.00    -0.301 C  
HETATM    2  C   UNL     1      -9.132  10.543  62.993  1.00  0.00    -0.275 C  
ENDROOT
BRANCH   2   3
HETATM    3  O   UNL     1      -8.995   9.118  62.956  1.00  0.00    -0.174 OA 
BRANCH   3   4
HETATM    4  C   UNL     1      -7.606   8.796  62.922  1.00  0.00    -0.110 C  
BRANCH   4   5
HETATM    5  C   UNL     1      -7.062   8.438  64.290  1.00  0.00    -0.082 C  
BRANCH   5   6
HETATM    6  N   UNL     1      -7.941   7.692  65.175  1.00  0.00    -0.124 NA 
HETATM    7  C   UNL     1      -8.852   8.265  66.075  1.00  0.00    -0.168 A  
HETATM    8  N   UNL     1      -9.393   7.318  66.819  1.00  0.00    -0.156 NA 
HETATM    9  C   UNL     1      -7.952   6.315  65.370  1.00  0.00    -0.118 A  
HETATM   10  C   UNL     1      -7.275   5.212  64.802  1.00  0.00    -0.062 A  
HETATM   11  C   UNL     1      -8.870   6.126  66.395  1.00  0.00    -0.141 A  
HETATM   12  C   UNL     1      -7.536   3.927  65.274  1.00  0.00    -0.080 A  
HETATM   13  C   UNL     1      -9.126   4.823  66.867  1.00  0.00    -0.118 A  
HETATM   14  C   UNL     1      -8.458   3.729  66.296  1.00  0.00    -0.110 A  
BRANCH   7  15
HETATM   15  N   UNL     1      -9.056   9.612  66.246  1.00  0.00    -0.153 NA 
HETATM   16  N   UNL     1     -10.287  11.740  68.516  1.00  0.00    -0.213 NA 
HETATM   17  C   UNL     1      -7.882  11.148  67.900  1.00  0.00    -0.111 C  
HETATM   18  C   UNL     1     -10.655  10.413  67.997  1.00  0.00    -0.221 C  
HETATM   19  C   UNL     1      -7.883  10.457  66.530  1.00  0.00    -0.124 C  
HETATM   20  C   UNL     1     -10.389  11.745  69.975  1.00  0.00     1.359 C  
HETATM   21  C   UNL     1     -10.368  10.214  66.500  1.00  0.00    -0.202 C  
HETATM   22  C   UNL     1      -8.975  12.213  68.057  1.00  0.00    -0.189 C  
ENDBRANCH   7  15
ENDBRANCH   5   6
ENDBRANCH   4   5
ENDBRANCH   3   4
ENDBRANCH   2   3
TORSDOF 5
ENDMDL
MODEL      271
REMARK 921   NORMALIZED FREE ENERGY PREDICTED BY IDOCK:    0.92 KCAL/MOL
REMARK 922        TOTAL FREE ENERGY PREDICTED BY IDOCK:    0.56 KCAL/MOL
REMARK 923 INTER-LIGAND FREE ENERGY PREDICTED BY IDOCK:   -0.60 KCAL/MOL
REMARK 924 INTRA-LIGAND FREE ENERGY PREDICTED BY IDOCK:    1.15 KCAL/MOL
REMARK 927      BINDING AFFINITY PREDICTED BY RF-SCORE:    0.00 PKD
ROOT
HETATM    1  C   UNL     1     -11.609  20.068  64.753  1.00  0.00     2.397 C  
HETATM    2  C   UNL     1     -10.247  20.238  65.378  1.00  0.00     0.155 C  
ENDROOT
BRANCH   2   3
HETATM    3  O   UNL     1     -10.381  20.230  66.804  1.00  0.00    -0.421 OA 
BRANCH   3   4
HETATM    4  C   UNL     1      -9.263  19.543  67.361  1.00  0.00    -0.315 C  
BRANCH   4   5
HETATM    5  C   UNL     1      -9.004  18.214  66.683  1.00  0.00    -0.282 C  
BRANCH   5   6
HETATM    6  N   UNL     1      -9.078  17.023  67.513  1.00  0.00    -0.222 NA 
HETATM    7  C   UNL     1      -8.131  16.653  68.479  1.00  0.00    -0.226 A  
HETATM    8  N   UNL     1      -8.427  15.458  68.953  1.00  0.00    -0.188 NA 
HETATM    9  C   UNL     1     -10.017  16.001  67.417  1.00  0.00    -0.241 A  
HETATM   10  C   UNL     1     -11.179  15.769  66.647  1.00  0.00    -0.000 A  
HETATM   11  C   UNL     1      -9.578  15.053  68.332  1.00  0.00    -0.212 A  
HETATM   12  C   UNL     1     -11.889  14.581  66.812  1.00  0.00    -0.390 A  
HETATM   13  C   UNL     1     -10.301  13.853  68.491  1.00  0.00    -0.244 A  
HETATM   14  C   UNL     1     -11.458  13.629  67.730  1.00  0.00    -0.351 A  
BRANCH   7  15
HETATM   15  N   UNL     1      -6.999  17.366  68.791  1.00  0.00    -0.226 NA 
HETATM   16  N   UNL     1      -6.054  19.953  70.691  1.00  0.00    -0.296 NA 
HETATM   17  C   UNL     1      -5.793  17.437  71.031  1.00  0.00     0.628 C  
HETATM   18  C   UNL     1      -7.207  19.631  69.836  1.00  0.00     0.085 C  
HETATM   19  C   UNL     1      -6.010  16.735  69.683  1.00  0.00    -0.218 C  
HETATM   20  C   UNL     1      -6.520  20.530  71.952  1.00  0.00     0.506 C  
HETATM   21  C   UNL     1      -6.860  18.810  68.583  1.00  0.00    -0.272 C  
HETATM   22  C   UNL     1      -5.144  18.821  70.910  1.00  0.00    -0.264 C  
ENDBRANCH   7  15
ENDBRANCH   5   6
ENDBRANCH   4   5
ENDBRANCH   3   4
ENDBRANCH   2   3
TORSDOF 5
ENDMDL
MODEL      272
REMARK 921   NORMALIZED FREE ENERGY PREDICTED BY IDOCK:    1.27 KCAL/MOL
REMARK 922        TOTAL FREE ENERGY PREDICTED BY IDOCK:    1.00 KCAL/MOL
REMARK 923 INTER-LIGAND FREE ENERGY PREDICTED BY IDOCK:   -1.39 KCAL/MOL
REMARK 924 INTRA-LIGAND FREE ENERGY PREDICTED BY IDOCK:    2.40 KCAL/MOL
REMARK 927      BINDING AFFINITY PREDICTED BY RF-SCORE:    0.00 PKD
ROOT
HETATM    1  C   UNL     1      -5.887  13.463  69.494  1.00  0.00    -0.102 C  
HETATM    2  C   UNL     1      -7.342  13.682  69.825  1.00  0.00     0.561 C  
ENDROOT
BRANCH   2   3
HETATM    3  O   UNL     1      -8.050  12.448  69.667  1.00  0.00     0.967 OA 
BRANCH   3   4
HETATM    4  C   UNL     1      -8.334  12.261  68.282  1.00  0.00    -0.174 C  
BRANCH   4   5
HETATM    5  C   UNL     1      -9.821  12.195  68.000  1.00  0.00    -0.202 C  
BRANCH   5   6
HETATM    6  N   UNL     1     -10.716  12.379  69.131  1.00  0.00    -0.105 NA 
HETATM    7  C   UNL     1     -10.978  13.605  69.760  1.00  0.00     0.168 A  
HETATM    8  N   UNL     1     -11.725  13.401  70.829  1.00  0.00     0.023 NA 
HETATM    9  C   UNL     1     -11.365  11.379  69.848  1.00  0.00    -0.219 A  
HETATM   10  C   UNL     1     -11.484   9.976  69.738  1.00  0.00    -0.240 A  
HETATM   11  C   UNL     1     -11.983  12.059  70.890  1.00  0.00     0.079 A  
HETATM   12  C   UNL     1     -12.230   9.271  70.681  1.00  0.00    -0.101 A  
HETATM   13  C   UNL     1     -12.734  11.338  71.841  1.00  0.00    -0.278 A  
HETATM   14  C   UNL     1     -12.857   9.946  71.724  1.00  0.00    -0.540 A  
BRANCH   7  15
HETATM   15  N   UNL     1     -10.436  14.813  69.396  1.00  0.00    -0.227 NA 
HETATM   16  N   UNL     1      -9.976  16.685  66.661  1.00  0.00    -0.270 NA 
HETATM   17  C   UNL     1     -11.680  16.866  68.552  1.00  0.00     0.562 C  
HETATM   18  C   UNL     1      -9.887  15.254  66.994  1.00  0.00    -0.229 C  
HETATM   19  C   UNL     1     -11.180  16.036  69.743  1.00  0.00    -0.344 C  
HETATM   20  C   UNL     1     -10.690  16.853  65.395  1.00  0.00    -0.150 C  
HETATM   21  C   UNL     1      -9.362  14.963  68.410  1.00  0.00    -0.197 C  
HETATM   22  C   UNL     1     -10.554  17.507  67.730  1.00  0.00    -0.375 C  
ENDBRANCH   7  15
ENDBRANCH   5   6
ENDBRANCH   4   5
ENDBRANCH   3   4
ENDBRANCH   2   3
TORSDOF 5
ENDMDL
MODEL      273
REMARK 921   NORMALIZED FREE ENERGY PREDICTED BY IDOCK:    1.58 KCAL/MOL
REMARK 922        TOTAL FREE ENERGY PREDICTED BY IDOCK:    1.41 KCAL/MOL
REMARK 923 INTER-LIGAND FREE ENERGY PREDICTED BY IDOCK:    0.26 KCAL/MOL
REMARK 924 INTRA-LIGAND FREE ENERGY PREDICTED BY IDOCK:    1.15 KCAL/MOL
REMARK 927      BINDING AFFINITY PREDICTED BY RF-SCORE:    0.00 PKD
ROOT
HETATM    1  C   UNL     1      -9.709  12.148  69.830  1.00  0.00     1.823 C  
HETATM    2  C   UNL     1      -9.258  12.529  68.442  1.00  0.00    -0.139 C  
ENDROOT
BRANCH   2   3
HETATM    3  O   UNL     1      -7.843  12.749  68.453  1.00  0.00    -0.133 OA 
BRANCH   3   4
HETATM    4  C   UNL     1      -7.186  11.492  68.303  1.00  0.00    -0.084 C  
BRANCH   4   5
HETATM    5  C   UNL     1      -6.715  10.924  69.625  1.00  0.00    -0.131 C  
BRANCH   5   6
HETATM    6  N   UNL     1      -6.357   9.516  69.650  1.00  0.00    -0.039 NA 
HETATM    7  C   UNL     1      -6.479   8.635  68.565  1.00  0.00    -0.055 A  
HETATM    8  N   UNL     1      -6.197   7.407  68.960  1.00  0.00    -0.034 NA 
HETATM    9  C   UNL     1      -5.952   8.781  70.759  1.00  0.00    -0.035 A  
HETATM   10  C   UNL     1      -5.670   9.071  72.112  1.00  0.00    -0.072 A  
HETATM   11  C   UNL     1      -5.860   7.478  70.285  1.00  0.00    -0.023 A  
HETATM   12  C   UNL     1      -5.292   8.043  72.974  1.00  0.00    -0.041 A  
HETATM   13  C   UNL     1      -5.480   6.444  71.164  1.00  0.00    -0.026 A  
HETATM   14  C   UNL     1      -5.192   6.738  72.505  1.00  0.00    -0.036 A  
BRANCH   7  15
HETATM   15  N   UNL     1      -6.944   8.973  67.319  1.00  0.00    -0.078 NA 
HETATM   16  N   UNL     1      -7.379   7.602  64.297  1.00  0.00    -0.086 NA 
HETATM   17  C   UNL     1      -9.041   8.102  66.169  1.00  0.00    -0.232 C  
HETATM   18  C   UNL     1      -6.346   7.556  65.344  1.00  0.00    -0.038 C  
HETATM   19  C   UNL     1      -8.400   9.106  67.137  1.00  0.00    -0.117 C  
HETATM   20  C   UNL     1      -7.647   6.250  63.808  1.00  0.00    -0.091 C  
HETATM   21  C   UNL     1      -6.142   8.882  66.095  1.00  0.00    -0.056 C  
HETATM   22  C   UNL     1      -8.609   8.289  64.709  1.00  0.00    -0.020 C  
ENDBRANCH   7  15
ENDBRANCH   5   6
ENDBRANCH   4   5
ENDBRANCH   3   4
ENDBRANCH   2   3
TORSDOF 5
ENDMDL
MODEL      274
REMARK 921   NORMALIZED FREE ENERGY PREDICTED BY IDOCK:    2.68 KCAL/MOL
REMARK 922        TOTAL FREE ENERGY PREDICTED BY IDOCK:    2.84 KCAL/MOL
REMARK 923 INTER-LIGAND FREE ENERGY PREDICTED BY IDOCK:    2.77 KCAL/MOL
REMARK 924 INTRA-LIGAND FREE ENERGY PREDICTED BY IDOCK:    0.06 KCAL/MOL
REMARK 927      BINDING AFFINITY PREDICTED BY RF-SCORE:    0.00 PKD
ROOT
HETATM    1  C   UNL     1     -11.855  15.407  66.088  1.00  0.00     0.339 C  
HETATM    2  C   UNL     1     -11.247  15.526  64.713  1.00  0.00    -0.390 C  
ENDROOT
BRANCH   2   3
HETATM    3  O   UNL     1      -9.983  14.855  64.699  1.00  0.00    -0.119 OA 
BRANCH   3   4
HETATM    4  C   UNL     1     -10.123  13.608  65.377  1.00  0.00    -0.271 C  
BRANCH   4   5
HETATM    5  C   UNL     1      -8.948  13.307  66.284  1.00  0.00     0.127 C  
BRANCH   5   6
HETATM    6  N   UNL     1      -9.116  13.589  67.700  1.00  0.00    -0.195 NA 
HETATM    7  C   UNL     1      -9.345  12.624  68.691  1.00  0.00     0.023 A  
HETATM    8  N   UNL     1      -9.585  13.223  69.843  1.00  0.00     2.012 NA 
HETATM    9  C   UNL     1      -9.197  14.844  68.293  1.00  0.00    -0.187 A  
HETATM   10  C   UNL     1      -9.074  16.179  67.848  1.00  0.00    -0.192 A  
HETATM   11  C   UNL     1      -9.484  14.570  69.624  1.00  0.00     0.411 A  
HETATM   12  C   UNL     1      -9.238  17.226  68.753  1.00  0.00    -0.238 A  
HETATM   13  C   UNL     1      -9.651  15.635  70.533  1.00  0.00     0.887 A  
HETATM   14  C   UNL     1      -9.520  16.959  70.089  1.00  0.00     1.546 A  
BRANCH   7  15
HETATM   15  N   UNL     1      -9.435  11.271  68.474  1.00  0.00    -0.188 NA 
HETATM   16  N   UNL     1      -7.462   8.665  67.755  1.00  0.00    -0.096 NA 
HETATM   17  C   UNL     1      -8.524   9.411  69.953  1.00  0.00    -0.186 C  
HETATM   18  C   UNL     1      -7.558  10.071  67.332  1.00  0.00    -0.091 C  
HETATM   19  C   UNL     1      -9.658  10.397  69.639  1.00  0.00    -0.109 C  
HETATM   20  C   UNL     1      -6.065   8.325  68.025  1.00  0.00    -0.047 C  
HETATM   21  C   UNL     1      -8.995  10.611  67.241  1.00  0.00    -0.136 C  
HETATM   22  C   UNL     1      -8.336   8.326  68.885  1.00  0.00    -0.127 C  
ENDBRANCH   7  15
ENDBRANCH   5   6
ENDBRANCH   4   5
ENDBRANCH   3   4
ENDBRANCH   2   3
TORSDOF 5
ENDMDL
MODEL      275
REMARK 921   NORMALIZED FREE ENERGY PREDICTED BY IDOCK:    2.71 KCAL/MOL
REMARK 922        TOTAL FREE ENERGY PREDICTED BY IDOCK:    2.87 KCAL/MOL
REMARK 923 INTER-LIGAND FREE ENERGY PREDICTED BY IDOCK:   -0.70 KCAL/MOL
REMARK 924 INTRA-LIGAND FREE ENERGY PREDICTED BY IDOCK:    3.58 KCAL/MOL
REMARK 927      BINDING AFFINITY PREDICTED BY RF-SCORE:    0.00 PKD
ROOT
HETATM    1  C   UNL     1      -9.275  13.525  65.313  1.00  0.00     0.804 C  
HETATM    2  C   UNL     1      -9.808  14.402  66.419  1.00  0.00    -0.295 C  
ENDROOT
BRANCH   2   3
HETATM    3  O   UNL     1      -8.967  14.269  67.569  1.00  0.00    -0.179 OA 
BRANCH   3   4
HETATM    4  C   UNL     1      -9.767  13.840  68.670  1.00  0.00    -0.140 C  
BRANCH   4   5
HETATM    5  C   UNL     1      -9.033  12.877  69.578  1.00  0.00     1.648 C  
BRANCH   5   6
HETATM    6  N   UNL     1      -9.340  11.464  69.430  1.00  0.00     0.332 NA 
HETATM    7  C   UNL     1     -10.631  10.915  69.434  1.00  0.00    -0.197 A  
HETATM    8  N   UNL     1     -10.551   9.598  69.413  1.00  0.00    -0.217 NA 
HETATM    9  C   UNL     1      -8.427  10.416  69.376  1.00  0.00    -0.134 A  
HETATM   10  C   UNL     1      -7.019  10.307  69.354  1.00  0.00    -0.083 A  
HETATM   11  C   UNL     1      -9.221   9.276  69.363  1.00  0.00    -0.159 A  
HETATM   12  C   UNL     1      -6.425   9.046  69.314  1.00  0.00    -0.045 A  
HETATM   13  C   UNL     1      -8.613   8.005  69.324  1.00  0.00    -0.137 A  
HETATM   14  C   UNL     1      -7.214   7.901  69.294  1.00  0.00    -0.080 A  
BRANCH   7  15
HETATM   15  N   UNL     1     -11.795  11.631  69.570  1.00  0.00    -0.329 NA 
HETATM   16  N   UNL     1     -13.381  13.518  71.833  1.00  0.00    -0.419 NA 
HETATM   17  C   UNL     1     -12.035  14.157  69.761  1.00  0.00    -0.396 C  
HETATM   18  C   UNL     1     -12.597  12.274  71.853  1.00  0.00     0.061 C  
HETATM   19  C   UNL     1     -11.901  12.919  68.863  1.00  0.00    -0.309 C  
HETATM   20  C   UNL     1     -12.956  14.387  72.930  1.00  0.00    -0.481 C  
HETATM   21  C   UNL     1     -12.791  11.380  70.616  1.00  0.00    -0.104 C  
HETATM   22  C   UNL     1     -13.355  14.215  70.541  1.00  0.00     0.157 C  
ENDBRANCH   7  15
ENDBRANCH   5   6
ENDBRANCH   4   5
ENDBRANCH   3   4
ENDBRANCH   2   3
TORSDOF 5
ENDMDL
MODEL      276
REMARK 921   NORMALIZED FREE ENERGY PREDICTED BY IDOCK:    6.16 KCAL/MOL
REMARK 922        TOTAL FREE ENERGY PREDICTED BY IDOCK:    7.32 KCAL/MOL
REMARK 923 INTER-LIGAND FREE ENERGY PREDICTED BY IDOCK:    5.02 KCAL/MOL
REMARK 924 INTRA-LIGAND FREE ENERGY PREDICTED BY IDOCK:    2.31 KCAL/MOL
REMARK 927      BINDING AFFINITY PREDICTED BY RF-SCORE:    0.00 PKD
ROOT
HETATM    1  C   UNL     1      -8.576  13.748  66.111  1.00  0.00     0.734 C  
HETATM    2  C   UNL     1      -9.726  13.092  65.389  1.00  0.00    -0.008 C  
ENDROOT
BRANCH   2   3
HETATM    3  O   UNL     1     -10.647  12.568  66.352  1.00  0.00    -0.242 OA 
BRANCH   3   4
HETATM    4  C   UNL     1     -10.138  12.833  67.659  1.00  0.00    -0.220 C  
BRANCH   4   5
HETATM    5  C   UNL     1     -10.059  14.315  67.959  1.00  0.00    -0.227 C  
BRANCH   5   6
HETATM    6  N   UNL     1     -10.398  14.735  69.308  1.00  0.00    -0.228 NA 
HETATM    7  C   UNL     1      -9.479  15.187  70.267  1.00  0.00     0.524 A  
HETATM    8  N   UNL     1     -10.094  15.358  71.422  1.00  0.00     1.084 NA 
HETATM    9  C   UNL     1     -11.647  14.654  69.914  1.00  0.00    -0.285 A  
HETATM   10  C   UNL     1     -12.944  14.271  69.503  1.00  0.00     0.663 A  
HETATM   11  C   UNL     1     -11.414  15.054  71.224  1.00  0.00    -0.311 A  
HETATM   12  C   UNL     1     -13.994  14.301  70.419  1.00  0.00     1.157 A  
HETATM   13  C   UNL     1     -12.482  15.079  72.144  1.00  0.00    -0.421 A  
HETATM   14  C   UNL     1     -13.769  14.706  71.730  1.00  0.00    -0.502 A  
BRANCH   7  15
HETATM   15  N   UNL     1      -8.125  15.309  70.070  1.00  0.00     0.108 NA 
HETATM   16  N   UNL     1      -5.743  14.230  67.982  1.00  0.00    -0.130 NA 
HETATM   17  C   UNL     1      -6.949  16.474  68.137  1.00  0.00    -0.149 C  
HETATM   18  C   UNL     1      -6.926  13.646  68.633  1.00  0.00    -0.103 C  
HETATM   19  C   UNL     1      -7.619  16.576  69.515  1.00  0.00     0.088 C  
HETATM   20  C   UNL     1      -5.708  13.835  66.575  1.00  0.00     3.262 C  
HETATM   21  C   UNL     1      -7.198  14.174  70.052  1.00  0.00     0.341 C  
HETATM   22  C   UNL     1      -5.634  15.685  68.146  1.00  0.00    -0.120 C  
ENDBRANCH   7  15
ENDBRANCH   5   6
ENDBRANCH   4   5
ENDBRANCH   3   4
ENDBRANCH   2   3
TORSDOF 5
ENDMDL
MODEL      277
REMARK 921   NORMALIZED FREE ENERGY PREDICTED BY IDOCK:    9.66 KCAL/MOL
REMARK 922        TOTAL FREE ENERGY PREDICTED BY IDOCK:   11.85 KCAL/MOL
REMARK 923 INTER-LIGAND FREE ENERGY PREDICTED BY IDOCK:    6.31 KCAL/MOL
REMARK 924 INTRA-LIGAND FREE ENERGY PREDICTED BY IDOCK:    5.54 KCAL/MOL
REMARK 927      BINDING AFFINITY PREDICTED BY RF-SCORE:    0.00 PKD
ROOT
HETATM    1  C   UNL     1      -8.573  13.287  65.499  1.00  0.00     1.885 C  
HETATM    2  C   UNL     1      -8.575  14.095  66.773  1.00  0.00    -0.069 C  
ENDROOT
BRANCH   2   3
HETATM    3  O   UNL     1      -7.623  13.535  67.684  1.00  0.00    -0.147 OA 
BRANCH   3   4
HETATM    4  C   UNL     1      -8.206  13.502  68.986  1.00  0.00     0.285 C  
BRANCH   4   5
HETATM    5  C   UNL     1      -8.151  12.123  69.610  1.00  0.00     1.375 C  
BRANCH   5   6
HETATM    6  N   UNL     1      -9.411  11.415  69.759  1.00  0.00     0.942 NA 
HETATM    7  C   UNL     1     -10.619  11.997  70.172  1.00  0.00     1.482 A  
HETATM    8  N   UNL     1     -11.531  11.056  70.331  1.00  0.00    -0.279 NA 
HETATM    9  C   UNL     1      -9.614  10.044  69.636  1.00  0.00    -0.226 A  
HETATM   10  C   UNL     1      -8.816   8.936  69.275  1.00  0.00    -0.139 A  
HETATM   11  C   UNL     1     -10.944   9.866  69.996  1.00  0.00    -0.291 A  
HETATM   12  C   UNL     1      -9.370   7.657  69.278  1.00  0.00    -0.148 A  
HETATM   13  C   UNL     1     -11.496   8.569  69.997  1.00  0.00     0.079 A  
HETATM   14  C   UNL     1     -10.702   7.472  69.631  1.00  0.00    -0.236 A  
BRANCH   7  15
HETATM   15  N   UNL     1     -10.791  13.322  70.488  1.00  0.00     1.467 NA 
HETATM   16  N   UNL     1     -10.767  16.323  69.006  1.00  0.00    -0.278 NA 
HETATM   17  C   UNL     1     -12.701  14.841  69.765  1.00  0.00    -0.062 C  
HETATM   18  C   UNL     1      -9.971  15.089  68.915  1.00  0.00    -0.236 C  
HETATM   19  C   UNL     1     -12.161  13.797  70.752  1.00  0.00    -0.319 C  
HETATM   20  C   UNL     1     -11.076  16.812  67.663  1.00  0.00    -0.089 C  
HETATM   21  C   UNL     1      -9.779  14.356  70.253  1.00  0.00     1.355 C  
HETATM   22  C   UNL     1     -11.974  16.190  69.832  1.00  0.00    -0.042 C  
ENDBRANCH   7  15
ENDBRANCH   5   6
ENDBRANCH   4   5
ENDBRANCH   3   4
ENDBRANCH   2   3
TORSDOF 5
ENDMDL
MODEL      278
REMARK 921   NORMALIZED FREE ENERGY PREDICTED BY IDOCK:   13.61 KCAL/MOL
REMARK 922        TOTAL FREE ENERGY PREDICTED BY IDOCK:   16.96 KCAL/MOL
REMARK 923 INTER-LIGAND FREE ENERGY PREDICTED BY IDOCK:   16.68 KCAL/MOL
REMARK 924 INTRA-LIGAND FREE ENERGY PREDICTED BY IDOCK:    0.29 KCAL/MOL
REMARK 927      BINDING AFFINITY PREDICTED BY RF-SCORE:    0.00 PKD
ROOT
HETATM    1  C   UNL     1     -11.293  13.106  67.266  1.00  0.00    -0.344 C  
HETATM    2  C   UNL     1     -10.170  12.901  68.252  1.00  0.00    -0.245 C  
ENDROOT
BRANCH   2   3
HETATM    3  O   UNL     1      -8.918  13.080  67.580  1.00  0.00    -0.173 OA 
BRANCH   3   4
HETATM    4  C   UNL     1      -8.197  11.850  67.628  1.00  0.00    -0.148 C  
BRANCH   4   5
HETATM    5  C   UNL     1      -8.613  10.981  68.795  1.00  0.00    -0.144 C  
BRANCH   5   6
HETATM    6  N   UNL     1      -8.624   9.543  68.578  1.00  0.00    -0.119 NA 
HETATM    7  C   UNL     1      -7.844   8.616  69.283  1.00  0.00    -0.101 A  
HETATM    8  N   UNL     1      -7.993   7.417  68.750  1.00  0.00    -0.121 NA 
HETATM    9  C   UNL     1      -9.306   8.860  67.576  1.00  0.00    -0.136 A  
HETATM   10  C   UNL     1     -10.215   9.213  66.555  1.00  0.00    -0.322 A  
HETATM   11  C   UNL     1      -8.889   7.543  67.723  1.00  0.00    -0.132 A  
HETATM   12  C   UNL     1     -10.699   8.231  65.692  1.00  0.00     3.048 A  
HETATM   13  C   UNL     1      -9.381   6.556  66.844  1.00  0.00    -0.166 A  
HETATM   14  C   UNL     1     -10.291   6.910  65.837  1.00  0.00     1.048 A  
BRANCH   7  15
HETATM   15  N   UNL     1      -6.961   8.926  70.289  1.00  0.00    -0.042 NA 
HETATM   16  N   UNL     1      -6.202  11.472  72.323  1.00  0.00     2.054 NA 
HETATM   17  C   UNL     1      -7.502   9.316  72.745  1.00  0.00     0.988 C  
HETATM   18  C   UNL     1      -6.578  11.320  70.909  1.00  0.00     1.161 C  
HETATM   19  C   UNL     1      -7.187   8.325  71.615  1.00  0.00    -0.088 C  
HETATM   20  C   UNL     1      -6.955  12.574  72.919  1.00  0.00     8.668 C  
HETATM   21  C   UNL     1      -6.026  10.053  70.236  1.00  0.00    -0.070 C  
HETATM   22  C   UNL     1      -6.328  10.236  73.105  1.00  0.00     2.059 C  
ENDBRANCH   7  15
ENDBRANCH   5   6
ENDBRANCH   4   5
ENDBRANCH   3   4
ENDBRANCH   2   3
TORSDOF 5
ENDMDL
MODEL      279
REMARK 921   NORMALIZED FREE ENERGY PREDICTED BY IDOCK:   24.58 KCAL/MOL
REMARK 922        TOTAL FREE ENERGY PREDICTED BY IDOCK:   31.13 KCAL/MOL
REMARK 923 INTER-LIGAND FREE ENERGY PREDICTED BY IDOCK:   13.93 KCAL/MOL
REMARK 924 INTRA-LIGAND FREE ENERGY PREDICTED BY IDOCK:   17.20 KCAL/MOL
REMARK 927      BINDING AFFINITY PREDICTED BY RF-SCORE:    0.00 PKD
ROOT
HETATM    1  C   UNL     1      -6.073  16.436  69.055  1.00  0.00    -0.152 C  
HETATM    2  C   UNL     1      -6.531  17.820  69.440  1.00  0.00    -0.226 C  
ENDROOT
BRANCH   2   3
HETATM    3  O   UNL     1      -7.942  17.798  69.679  1.00  0.00     0.424 OA 
BRANCH   3   4
HETATM    4  C   UNL     1      -8.251  16.650  70.468  1.00  0.00     3.333 C  
BRANCH   4   5
HETATM    5  C   UNL     1      -7.687  15.375  69.877  1.00  0.00     0.037 C  
BRANCH   5   6
HETATM    6  N   UNL     1      -7.326  15.401  68.470  1.00  0.00    -0.112 NA 
HETATM    7  C   UNL     1      -6.318  14.625  67.881  1.00  0.00    -0.159 A  
HETATM    8  N   UNL     1      -6.159  14.987  66.622  1.00  0.00     1.139 NA 
HETATM    9  C   UNL     1      -7.825  16.266  67.501  1.00  0.00    -0.146 A  
HETATM   10  C   UNL     1      -8.814  17.274  67.462  1.00  0.00    -0.219 A  
HETATM   11  C   UNL     1      -7.075  15.972  66.369  1.00  0.00     0.574 A  
HETATM   12  C   UNL     1      -9.041  17.972  66.277  1.00  0.00    -0.197 A  
HETATM   13  C   UNL     1      -7.310  16.685  65.175  1.00  0.00     4.108 A  
HETATM   14  C   UNL     1      -8.299  17.679  65.138  1.00  0.00     2.630 A  
BRANCH   7  15
HETATM   15  N   UNL     1      -5.528  13.718  68.545  1.00  0.00    -0.087 NA 
HETATM   16  N   UNL     1      -5.656  11.682  71.198  1.00  0.00    -0.363 NA 
HETATM   17  C   UNL     1      -5.870  11.201  68.700  1.00  0.00    -0.042 C  
HETATM   18  C   UNL     1      -6.108  13.047  70.886  1.00  0.00     0.296 C  
HETATM   19  C   UNL     1      -5.314  12.401  67.921  1.00  0.00    -0.083 C  
HETATM   20  C   UNL     1      -6.721  10.955  71.888  1.00  0.00     3.312 C  
HETATM   21  C   UNL     1      -5.165  13.834  69.960  1.00  0.00    -0.093 C  
HETATM   22  C   UNL     1      -5.154  10.944  70.032  1.00  0.00    -0.044 C  
ENDBRANCH   7  15
ENDBRANCH   5   6
ENDBRANCH   4   5
ENDBRANCH   3   4
ENDBRANCH   2   3
TORSDOF 5
ENDMDL
