MODEL        1
REMARK 921   NORMALIZED FREE ENERGY PREDICTED BY IDOCK:   -8.19 KCAL/MOL
REMARK 922        TOTAL FREE ENERGY PREDICTED BY IDOCK:  -12.02 KCAL/MOL
REMARK 923 INTER-LIGAND FREE ENERGY PREDICTED BY IDOCK:  -11.06 KCAL/MOL
REMARK 924 INTRA-LIGAND FREE ENERGY PREDICTED BY IDOCK:   -0.97 KCAL/MOL
REMARK 927      BINDING AFFINITY PREDICTED BY RF-SCORE:    0.00 PKD
ROOT
HETATM    1  C   UNL     1     -10.625   6.209  71.023  1.00  0.00    -0.246 C  
HETATM    2  C   UNL     1     -10.203   4.897  71.660  1.00  0.00    -0.267 C  
HETATM    3  O   UNL     1     -10.024   4.607  69.339  1.00  0.00    -0.209 OA 
HETATM    4  C   UNL     1      -9.396   4.242  70.571  1.00  0.00    -0.145 C  
HETATM    5  C   UNL     1     -10.814   5.789  69.568  1.00  0.00    -0.340 C  
ENDROOT
BRANCH   1   6
HETATM    6  O   UNL     1     -11.826   6.632  71.659  1.00  0.00    -0.304 OA 
BRANCH   6   7
HETATM    7  C   UNL     1     -12.224   7.929  71.516  1.00  0.00    -0.311 A  
HETATM    8  C   UNL     1     -13.784   9.780  71.542  1.00  0.00    -0.264 A  
HETATM    9  C   UNL     1     -13.531   8.399  71.606  1.00  0.00    -0.363 A  
HETATM   10  C   UNL     1     -12.737  10.704  71.389  1.00  0.00    -0.545 A  
HETATM   11  C   UNL     1     -11.181   8.841  71.347  1.00  0.00    -0.362 A  
HETATM   12  C   UNL     1     -11.432  10.214  71.274  1.00  0.00    -0.327 A  
BRANCH  10  13
HETATM   13  C   UNL     1     -12.993  12.202  71.429  1.00  0.00    -0.357 C  
BRANCH  13  14
HETATM   14  C   UNL     1     -12.203  12.955  70.376  1.00  0.00    -0.381 A  
HETATM   15  C   UNL     1     -11.835  14.302  70.492  1.00  0.00    -0.294 A  
HETATM   16 CL   UNL     1     -12.141  15.228  71.917  1.00  0.00    -0.410 Cl 
HETATM   17  C   UNL     1     -11.229  14.964  69.419  1.00  0.00    -0.302 A  
HETATM   18  C   UNL     1     -11.055  14.312  68.195  1.00  0.00    -0.275 A  
HETATM   19  C   UNL     1     -11.460  12.982  68.034  1.00  0.00    -0.348 A  
HETATM   20  C   UNL     1     -11.947  12.297  69.159  1.00  0.00    -0.303 A  
BRANCH  19  21
HETATM   21  C   UNL     1     -11.574  12.384  66.638  1.00  0.00    -0.385 C  
HETATM   22  O   UNL     1     -10.312  11.771  66.308  1.00  0.00    -0.213 OA 
HETATM   23  C   UNL     1     -10.378  10.945  65.141  1.00  0.00    -0.278 C  
HETATM   24  H   UNL     1     -13.626  14.449  65.094  1.00  0.00     0.000 HD 
HETATM   25  C   UNL     1     -10.735  11.802  63.927  1.00  0.00    -0.399 C  
HETATM   26  O   UNL     1     -13.340  13.867  65.788  1.00  0.00    -0.534 OA 
HETATM   27  C   UNL     1     -12.061  12.533  64.183  1.00  0.00    -0.447 C  
HETATM   28  O   UNL     1     -10.855  11.028  62.729  1.00  0.00    -0.780 OA 
HETATM   29  H   UNL     1     -13.174  13.839  63.229  1.00  0.00     0.000 HD 
HETATM   30  C   UNL     1     -12.038  13.332  65.507  1.00  0.00    -0.435 C  
HETATM   31  H   UNL     1     -11.077  11.561  61.975  1.00  0.00     0.000 HD 
HETATM   32  O   UNL     1     -12.354  13.386  63.071  1.00  0.00    -0.622 OA 
BRANCH  23  33
HETATM   33  C   UNL     1      -9.018  10.258  64.975  1.00  0.00    -0.196 C  
HETATM   34  O   UNL     1      -9.192   9.025  64.263  1.00  0.00    -0.416 OA 
HETATM   35  H   UNL     1      -8.349   8.599  64.160  1.00  0.00     0.000 HD 
ENDBRANCH  23  33
ENDBRANCH  19  21
ENDBRANCH  13  14
ENDBRANCH  10  13
ENDBRANCH   6   7
ENDBRANCH   1   6
TORSDOF 6
ENDMDL
MODEL        2
REMARK 921   NORMALIZED FREE ENERGY PREDICTED BY IDOCK:   -7.98 KCAL/MOL
REMARK 922        TOTAL FREE ENERGY PREDICTED BY IDOCK:  -11.74 KCAL/MOL
REMARK 923 INTER-LIGAND FREE ENERGY PREDICTED BY IDOCK:  -10.65 KCAL/MOL
REMARK 924 INTRA-LIGAND FREE ENERGY PREDICTED BY IDOCK:   -1.08 KCAL/MOL
REMARK 927      BINDING AFFINITY PREDICTED BY RF-SCORE:    0.00 PKD
ROOT
HETATM    1  C   UNL     1     -10.226  18.463  67.717  1.00  0.00    -0.385 C  
HETATM    2  C   UNL     1      -9.331  19.632  68.087  1.00  0.00    -0.433 C  
HETATM    3  O   UNL     1     -10.062  20.012  65.890  1.00  0.00    -0.465 OA 
HETATM    4  C   UNL     1      -9.750  20.696  67.108  1.00  0.00    -0.390 C  
HETATM    5  C   UNL     1     -10.331  18.633  66.204  1.00  0.00    -0.443 C  
ENDROOT
BRANCH   1   6
HETATM    6  O   UNL     1      -9.562  17.268  68.116  1.00  0.00    -0.265 OA 
BRANCH   6   7
HETATM    7  C   UNL     1     -10.141  16.067  67.826  1.00  0.00    -0.243 A  
HETATM    8  C   UNL     1     -11.910  14.415  67.790  1.00  0.00    -0.402 A  
HETATM    9  C   UNL     1     -11.394  15.637  68.253  1.00  0.00    -0.357 A  
HETATM   10  C   UNL     1     -11.181  13.610  66.897  1.00  0.00    -0.326 A  
HETATM   11  C   UNL     1      -9.405  15.264  66.953  1.00  0.00    -0.255 A  
HETATM   12  C   UNL     1      -9.912  14.044  66.499  1.00  0.00    -0.289 A  
BRANCH  10  13
HETATM   13  C   UNL     1     -11.779  12.343  66.309  1.00  0.00    -0.457 C  
BRANCH  13  14
HETATM   14  C   UNL     1     -10.928  11.118  66.583  1.00  0.00    -0.289 A  
HETATM   15  C   UNL     1     -10.239  10.407  65.591  1.00  0.00    -0.238 A  
HETATM   16 CL   UNL     1     -10.187  10.928  63.946  1.00  0.00    -0.411 Cl 
HETATM   17  C   UNL     1      -9.590   9.208  65.902  1.00  0.00    -0.343 A  
HETATM   18  C   UNL     1      -9.686   8.665  67.186  1.00  0.00    -0.248 A  
HETATM   19  C   UNL     1     -10.411   9.326  68.185  1.00  0.00    -0.261 A  
HETATM   20  C   UNL     1     -10.946  10.590  67.888  1.00  0.00    -0.352 A  
BRANCH  19  21
HETATM   21  C   UNL     1     -10.788   8.593  69.465  1.00  0.00    -0.129 C  
HETATM   22  O   UNL     1     -11.633   9.459  70.246  1.00  0.00    -0.233 OA 
HETATM   23  C   UNL     1     -12.270   8.787  71.337  1.00  0.00    -0.309 C  
HETATM   24  H   UNL     1      -8.126   6.759  70.100  1.00  0.00     0.000 HD 
HETATM   25  C   UNL     1     -11.210   8.279  72.313  1.00  0.00    -0.374 C  
HETATM   26  O   UNL     1      -8.840   7.099  69.574  1.00  0.00    -0.137 OA 
HETATM   27  C   UNL     1     -10.226   7.360  71.574  1.00  0.00    -0.192 C  
HETATM   28  O   UNL     1     -11.780   7.561  73.412  1.00  0.00    -0.574 OA 
HETATM   29  H   UNL     1      -8.589   6.374  72.021  1.00  0.00     0.000 HD 
HETATM   30  C   UNL     1      -9.625   8.039  70.322  1.00  0.00    -0.171 C  
HETATM   31  H   UNL     1     -11.120   7.245  74.019  1.00  0.00     0.000 HD 
HETATM   32  O   UNL     1      -9.197   6.942  72.479  1.00  0.00    -0.136 OA 
BRANCH  23  33
HETATM   33  C   UNL     1     -13.230   9.779  72.003  1.00  0.00    -0.460 C  
HETATM   34  O   UNL     1     -14.039   9.086  72.964  1.00  0.00    -1.086 OA 
HETATM   35  H   UNL     1     -14.634   9.701  73.377  1.00  0.00     0.000 HD 
ENDBRANCH  23  33
ENDBRANCH  19  21
ENDBRANCH  13  14
ENDBRANCH  10  13
ENDBRANCH   6   7
ENDBRANCH   1   6
TORSDOF 6
ENDMDL
MODEL        3
REMARK 921   NORMALIZED FREE ENERGY PREDICTED BY IDOCK:   -7.88 KCAL/MOL
REMARK 922        TOTAL FREE ENERGY PREDICTED BY IDOCK:  -11.61 KCAL/MOL
REMARK 923 INTER-LIGAND FREE ENERGY PREDICTED BY IDOCK:  -10.37 KCAL/MOL
REMARK 924 INTRA-LIGAND FREE ENERGY PREDICTED BY IDOCK:   -1.24 KCAL/MOL
REMARK 927      BINDING AFFINITY PREDICTED BY RF-SCORE:    0.00 PKD
ROOT
HETATM    1  C   UNL     1     -12.180  15.523  71.474  1.00  0.00    -0.397 C  
HETATM    2  C   UNL     1     -11.822  16.304  72.726  1.00  0.00    -0.565 C  
HETATM    3  O   UNL     1     -14.087  15.722  72.920  1.00  0.00    -0.542 OA 
HETATM    4  C   UNL     1     -12.897  15.890  73.696  1.00  0.00    -0.599 C  
HETATM    5  C   UNL     1     -13.705  15.525  71.546  1.00  0.00    -0.460 C  
ENDROOT
BRANCH   1   6
HETATM    6  O   UNL     1     -11.657  16.234  70.358  1.00  0.00    -0.322 OA 
BRANCH   6   7
HETATM    7  C   UNL     1     -11.036  15.534  69.365  1.00  0.00    -0.291 A  
HETATM    8  C   UNL     1      -9.190  14.421  68.265  1.00  0.00    -0.201 A  
HETATM    9  C   UNL     1      -9.677  15.244  69.294  1.00  0.00    -0.254 A  
HETATM   10  C   UNL     1     -10.054  13.878  67.298  1.00  0.00    -0.242 A  
HETATM   11  C   UNL     1     -11.897  15.012  68.398  1.00  0.00    -0.298 A  
HETATM   12  C   UNL     1     -11.413  14.200  67.369  1.00  0.00    -0.369 A  
BRANCH  10  13
HETATM   13  C   UNL     1      -9.550  12.900  66.249  1.00  0.00    -0.245 C  
BRANCH  13  14
HETATM   14  C   UNL     1      -9.700  11.455  66.684  1.00  0.00    -0.224 A  
HETATM   15  C   UNL     1      -9.822  10.380  65.793  1.00  0.00    -0.239 A  
HETATM   16 CL   UNL     1      -9.692  10.575  64.082  1.00  0.00    -0.362 Cl 
HETATM   17  C   UNL     1     -10.096   9.094  66.270  1.00  0.00    -0.319 A  
HETATM   18  C   UNL     1     -10.328   8.880  67.631  1.00  0.00    -0.313 A  
HETATM   19  C   UNL     1     -10.264   9.944  68.539  1.00  0.00    -0.199 A  
HETATM   20  C   UNL     1      -9.861  11.201  68.059  1.00  0.00    -0.185 A  
BRANCH  19  21
HETATM   21  C   UNL     1     -10.829   9.783  69.944  1.00  0.00    -0.272 C  
HETATM   22  O   UNL     1     -11.219   8.406  70.115  1.00  0.00    -0.233 OA 
HETATM   23  C   UNL     1     -11.511   8.071  71.475  1.00  0.00    -0.264 C  
HETATM   24  H   UNL     1     -12.266  12.691  70.521  1.00  0.00     0.000 HD 
HETATM   25  C   UNL     1     -12.710   8.888  71.957  1.00  0.00    -0.394 C  
HETATM   26  O   UNL     1     -11.560  12.106  70.273  1.00  0.00    -0.208 OA 
HETATM   27  C   UNL     1     -12.414  10.386  71.790  1.00  0.00    -0.302 C  
HETATM   28  O   UNL     1     -13.032   8.628  73.327  1.00  0.00    -0.637 OA 
HETATM   29  H   UNL     1     -13.383  12.069  72.076  1.00  0.00     0.000 HD 
HETATM   30  C   UNL     1     -11.979  10.735  70.348  1.00  0.00    -0.357 C  
HETATM   31  H   UNL     1     -13.777   9.136  73.626  1.00  0.00     0.000 HD 
HETATM   32  O   UNL     1     -13.566  11.143  72.179  1.00  0.00    -0.281 OA 
BRANCH  23  33
HETATM   33  C   UNL     1     -11.785   6.565  71.538  1.00  0.00    -0.324 C  
HETATM   34  O   UNL     1     -11.660   6.115  72.896  1.00  0.00    -0.468 OA 
HETATM   35  H   UNL     1     -11.830   5.181  72.935  1.00  0.00     0.000 HD 
ENDBRANCH  23  33
ENDBRANCH  19  21
ENDBRANCH  13  14
ENDBRANCH  10  13
ENDBRANCH   6   7
ENDBRANCH   1   6
TORSDOF 6
ENDMDL
MODEL        4
REMARK 921   NORMALIZED FREE ENERGY PREDICTED BY IDOCK:   -7.87 KCAL/MOL
REMARK 922        TOTAL FREE ENERGY PREDICTED BY IDOCK:  -11.59 KCAL/MOL
REMARK 923 INTER-LIGAND FREE ENERGY PREDICTED BY IDOCK:  -10.67 KCAL/MOL
REMARK 924 INTRA-LIGAND FREE ENERGY PREDICTED BY IDOCK:   -0.92 KCAL/MOL
REMARK 927      BINDING AFFINITY PREDICTED BY RF-SCORE:    0.00 PKD
ROOT
HETATM    1  C   UNL     1      -9.569   5.800  73.133  1.00  0.00    -0.147 C  
HETATM    2  C   UNL     1      -8.875   5.246  71.902  1.00  0.00    -0.142 C  
HETATM    3  O   UNL     1      -8.500   3.709  73.633  1.00  0.00    -0.082 OA 
HETATM    4  C   UNL     1      -8.739   3.782  72.225  1.00  0.00    -0.096 C  
HETATM    5  C   UNL     1      -8.962   4.934  74.234  1.00  0.00    -0.112 C  
ENDROOT
BRANCH   1   6
HETATM    6  O   UNL     1      -9.231   7.179  73.236  1.00  0.00    -0.137 OA 
BRANCH   6   7
HETATM    7  C   UNL     1      -9.946   8.087  72.511  1.00  0.00    -0.270 A  
HETATM    8  C   UNL     1     -10.313   9.743  70.784  1.00  0.00    -0.298 A  
HETATM    9  C   UNL     1      -9.440   8.930  71.526  1.00  0.00    -0.347 A  
HETATM   10  C   UNL     1     -11.699   9.722  71.017  1.00  0.00    -0.453 A  
HETATM   11  C   UNL     1     -11.319   8.074  72.759  1.00  0.00    -0.439 A  
HETATM   12  C   UNL     1     -12.189   8.889  72.028  1.00  0.00    -0.447 A  
BRANCH  10  13
HETATM   13  C   UNL     1     -12.658  10.516  70.145  1.00  0.00    -0.246 C  
BRANCH  13  14
HETATM   14  C   UNL     1     -12.293  11.986  70.070  1.00  0.00    -0.179 A  
HETATM   15  C   UNL     1     -12.637  12.927  71.049  1.00  0.00    -0.287 A  
HETATM   16 CL   UNL     1     -13.420  12.486  72.524  1.00  0.00    -0.417 Cl 
HETATM   17  C   UNL     1     -12.387  14.288  70.842  1.00  0.00    -0.429 A  
HETATM   18  C   UNL     1     -11.862  14.732  69.626  1.00  0.00    -0.362 A  
HETATM   19  C   UNL     1     -11.555  13.820  68.609  1.00  0.00    -0.369 A  
HETATM   20  C   UNL     1     -11.693  12.450  68.884  1.00  0.00    -0.372 A  
BRANCH  19  21
HETATM   21  C   UNL     1     -11.300  14.316  67.192  1.00  0.00    -0.337 C  
HETATM   22  O   UNL     1     -11.159  15.749  67.237  1.00  0.00    -0.302 OA 
HETATM   23  C   UNL     1     -10.650  16.302  66.018  1.00  0.00    -0.281 C  
HETATM   24  H   UNL     1     -13.018  12.210  65.330  1.00  0.00     0.000 HD 
HETATM   25  C   UNL     1     -11.639  16.033  64.884  1.00  0.00    -0.009 C  
HETATM   26  O   UNL     1     -12.391  12.468  65.995  1.00  0.00    -0.615 OA 
HETATM   27  C   UNL     1     -11.889  14.523  64.764  1.00  0.00    -0.441 C  
HETATM   28  O   UNL     1     -11.171  16.528  63.625  1.00  0.00    -1.148 OA 
HETATM   29  H   UNL     1     -13.021  13.350  63.671  1.00  0.00     0.000 HD 
HETATM   30  C   UNL     1     -12.322  13.897  66.110  1.00  0.00    -0.465 C  
HETATM   31  H   UNL     1     -11.785  16.361  62.920  1.00  0.00     0.000 HD 
HETATM   32  O   UNL     1     -12.867  14.284  63.745  1.00  0.00    -0.621 OA 
BRANCH  23  33
HETATM   33  C   UNL     1     -10.430  17.802  66.240  1.00  0.00    -0.307 C  
HETATM   34  O   UNL     1      -9.078  18.139  65.896  1.00  0.00    -0.509 OA 
HETATM   35  H   UNL     1      -8.941  19.069  66.033  1.00  0.00     0.000 HD 
ENDBRANCH  23  33
ENDBRANCH  19  21
ENDBRANCH  13  14
ENDBRANCH  10  13
ENDBRANCH   6   7
ENDBRANCH   1   6
TORSDOF 6
ENDMDL
MODEL        5
REMARK 921   NORMALIZED FREE ENERGY PREDICTED BY IDOCK:   -7.83 KCAL/MOL
REMARK 922        TOTAL FREE ENERGY PREDICTED BY IDOCK:  -11.54 KCAL/MOL
REMARK 923 INTER-LIGAND FREE ENERGY PREDICTED BY IDOCK:  -10.45 KCAL/MOL
REMARK 924 INTRA-LIGAND FREE ENERGY PREDICTED BY IDOCK:   -1.09 KCAL/MOL
REMARK 927      BINDING AFFINITY PREDICTED BY RF-SCORE:    0.00 PKD
ROOT
HETATM    1  C   UNL     1      -8.707  18.685  67.926  1.00  0.00    -0.288 C  
HETATM    2  C   UNL     1      -8.935  20.063  67.333  1.00  0.00    -0.440 C  
HETATM    3  O   UNL     1      -6.826  20.114  68.360  1.00  0.00    -0.293 OA 
HETATM    4  C   UNL     1      -7.539  20.616  67.226  1.00  0.00    -0.333 C  
HETATM    5  C   UNL     1      -7.518  18.948  68.847  1.00  0.00    -0.303 C  
ENDROOT
BRANCH   1   6
HETATM    6  O   UNL     1      -9.895  18.309  68.615  1.00  0.00    -0.350 OA 
BRANCH   6   7
HETATM    7  C   UNL     1     -10.431  17.078  68.378  1.00  0.00    -0.370 A  
HETATM    8  C   UNL     1     -11.755  15.110  68.863  1.00  0.00    -0.357 A  
HETATM    9  C   UNL     1     -11.172  16.320  69.279  1.00  0.00    -0.312 A  
HETATM   10  C   UNL     1     -11.604  14.646  67.545  1.00  0.00    -0.396 A  
HETATM   11  C   UNL     1     -10.263  16.614  67.072  1.00  0.00    -0.290 A  
HETATM   12  C   UNL     1     -10.833  15.407  66.659  1.00  0.00    -0.302 A  
BRANCH  10  13
HETATM   13  C   UNL     1     -12.321  13.397  67.061  1.00  0.00    -0.231 C  
BRANCH  13  14
HETATM   14  C   UNL     1     -11.418  12.179  67.042  1.00  0.00    -0.415 A  
HETATM   15  C   UNL     1     -10.909  11.602  65.871  1.00  0.00    -0.287 A  
HETATM   16 CL   UNL     1     -11.161  12.296  64.310  1.00  0.00    -0.370 Cl 
HETATM   17  C   UNL     1     -10.198  10.398  65.927  1.00  0.00    -0.302 A  
HETATM   18  C   UNL     1     -10.054   9.719  67.139  1.00  0.00    -0.267 A  
HETATM   19  C   UNL     1     -10.596  10.246  68.318  1.00  0.00    -0.255 A  
HETATM   20  C   UNL     1     -11.193  11.516  68.263  1.00  0.00    -0.322 A  
BRANCH  19  21
HETATM   21  C   UNL     1     -10.727   9.368  69.555  1.00  0.00    -0.222 C  
HETATM   22  O   UNL     1     -11.987   9.667  70.187  1.00  0.00    -0.121 OA 
HETATM   23  C   UNL     1     -12.345   8.722  71.200  1.00  0.00    -0.219 C  
HETATM   24  H   UNL     1      -7.618   9.069  70.605  1.00  0.00     0.000 HD 
HETATM   25  C   UNL     1     -11.314   8.765  72.327  1.00  0.00    -0.285 C  
HETATM   26  O   UNL     1      -8.329   9.032  69.976  1.00  0.00    -0.118 OA 
HETATM   27  C   UNL     1      -9.915   8.487  71.758  1.00  0.00    -0.275 C  
HETATM   28  O   UNL     1     -11.594   7.813  73.359  1.00  0.00    -0.623 OA 
HETATM   29  H   UNL     1      -8.081   8.424  72.454  1.00  0.00     0.000 HD 
HETATM   30  C   UNL     1      -9.569   9.427  70.580  1.00  0.00    -0.271 C  
HETATM   31  H   UNL     1     -10.952   7.840  74.059  1.00  0.00     0.000 HD 
HETATM   32  O   UNL     1      -8.946   8.596  72.807  1.00  0.00    -0.356 OA 
BRANCH  23  33
HETATM   33  C   UNL     1     -13.750   9.079  71.698  1.00  0.00    -0.387 C  
HETATM   34  O   UNL     1     -13.804   8.919  73.123  1.00  0.00    -1.084 OA 
HETATM   35  H   UNL     1     -14.675   9.140  73.432  1.00  0.00     0.000 HD 
ENDBRANCH  23  33
ENDBRANCH  19  21
ENDBRANCH  13  14
ENDBRANCH  10  13
ENDBRANCH   6   7
ENDBRANCH   1   6
TORSDOF 6
ENDMDL
MODEL        6
REMARK 921   NORMALIZED FREE ENERGY PREDICTED BY IDOCK:   -7.75 KCAL/MOL
REMARK 922        TOTAL FREE ENERGY PREDICTED BY IDOCK:  -11.44 KCAL/MOL
REMARK 923 INTER-LIGAND FREE ENERGY PREDICTED BY IDOCK:   -9.67 KCAL/MOL
REMARK 924 INTRA-LIGAND FREE ENERGY PREDICTED BY IDOCK:   -1.76 KCAL/MOL
REMARK 927      BINDING AFFINITY PREDICTED BY RF-SCORE:    0.00 PKD
ROOT
HETATM    1  C   UNL     1      -9.210  10.082  64.778  1.00  0.00    -0.249 C  
HETATM    2  C   UNL     1      -9.026   9.973  63.275  1.00  0.00    -0.275 C  
HETATM    3  O   UNL     1     -10.587  11.687  63.639  1.00  0.00    -0.353 OA 
HETATM    4  C   UNL     1      -9.504  11.313  62.782  1.00  0.00    -0.326 C  
HETATM    5  C   UNL     1     -10.471  10.938  64.864  1.00  0.00    -0.282 C  
ENDROOT
BRANCH   1   6
HETATM    6  O   UNL     1      -9.375   8.764  65.289  1.00  0.00    -0.122 OA 
BRANCH   6   7
HETATM    7  C   UNL     1      -9.336   8.573  66.639  1.00  0.00    -0.189 A  
HETATM    8  C   UNL     1      -8.576   8.952  68.906  1.00  0.00    -0.135 A  
HETATM    9  C   UNL     1      -8.433   9.156  67.523  1.00  0.00    -0.116 A  
HETATM   10  C   UNL     1      -9.621   8.166  69.421  1.00  0.00    -0.167 A  
HETATM   11  C   UNL     1     -10.367   7.778  67.143  1.00  0.00    -0.389 A  
HETATM   12  C   UNL     1     -10.505   7.567  68.517  1.00  0.00    -0.211 A  
BRANCH  10  13
HETATM   13  C   UNL     1      -9.845   8.033  70.918  1.00  0.00    -0.195 C  
BRANCH  13  14
HETATM   14  C   UNL     1     -11.145   8.671  71.369  1.00  0.00    -0.343 A  
HETATM   15  C   UNL     1     -12.248   7.946  71.840  1.00  0.00    -0.314 A  
HETATM   16 CL   UNL     1     -12.202   6.235  72.073  1.00  0.00    -0.355 Cl 
HETATM   17  C   UNL     1     -13.459   8.594  72.106  1.00  0.00    -0.434 A  
HETATM   18  C   UNL     1     -13.606   9.956  71.832  1.00  0.00    -0.391 A  
HETATM   19  C   UNL     1     -12.537  10.696  71.313  1.00  0.00    -0.533 A  
HETATM   20  C   UNL     1     -11.294  10.057  71.175  1.00  0.00    -0.397 A  
BRANCH  19  21
HETATM   21  C   UNL     1     -12.783  12.074  70.714  1.00  0.00    -0.143 C  
HETATM   22  O   UNL     1     -11.771  12.318  69.718  1.00  0.00    -0.308 OA 
HETATM   23  C   UNL     1     -12.052  13.458  68.899  1.00  0.00    -0.252 C  
HETATM   24  H   UNL     1     -14.013  13.791  73.243  1.00  0.00     0.000 HD 
HETATM   25  C   UNL     1     -12.072  14.717  69.765  1.00  0.00    -0.324 C  
HETATM   26  O   UNL     1     -13.953  13.063  72.636  1.00  0.00    -0.657 OA 
HETATM   27  C   UNL     1     -13.106  14.554  70.890  1.00  0.00    -0.345 C  
HETATM   28  O   UNL     1     -12.388  15.892  69.011  1.00  0.00    -0.529 OA 
HETATM   29  H   UNL     1     -13.710  15.608  72.432  1.00  0.00     0.000 HD 
HETATM   30  C   UNL     1     -12.880  13.259  71.704  1.00  0.00    -0.302 C  
HETATM   31  H   UNL     1     -12.400  16.675  69.550  1.00  0.00     0.000 HD 
HETATM   32  O   UNL     1     -13.071  15.709  71.736  1.00  0.00    -0.436 OA 
BRANCH  23  33
HETATM   33  C   UNL     1     -10.976  13.531  67.811  1.00  0.00    -0.266 C  
HETATM   34  O   UNL     1     -11.521  14.166  66.646  1.00  0.00    -0.337 OA 
HETATM   35  H   UNL     1     -10.854  14.211  65.971  1.00  0.00     0.000 HD 
ENDBRANCH  23  33
ENDBRANCH  19  21
ENDBRANCH  13  14
ENDBRANCH  10  13
ENDBRANCH   6   7
ENDBRANCH   1   6
TORSDOF 6
ENDMDL
MODEL        7
REMARK 921   NORMALIZED FREE ENERGY PREDICTED BY IDOCK:   -7.75 KCAL/MOL
REMARK 922        TOTAL FREE ENERGY PREDICTED BY IDOCK:  -11.43 KCAL/MOL
REMARK 923 INTER-LIGAND FREE ENERGY PREDICTED BY IDOCK:  -10.59 KCAL/MOL
REMARK 924 INTRA-LIGAND FREE ENERGY PREDICTED BY IDOCK:   -0.84 KCAL/MOL
REMARK 927      BINDING AFFINITY PREDICTED BY RF-SCORE:    0.00 PKD
ROOT
HETATM    1  C   UNL     1     -10.847   6.588  73.396  1.00  0.00    -0.222 C  
HETATM    2  C   UNL     1     -10.953   5.376  72.490  1.00  0.00    -0.312 C  
HETATM    3  O   UNL     1     -10.181   4.598  74.564  1.00  0.00    -0.207 OA 
HETATM    4  C   UNL     1     -11.023   4.233  73.467  1.00  0.00    -0.287 C  
HETATM    5  C   UNL     1     -10.016   6.029  74.548  1.00  0.00    -0.310 C  
ENDROOT
BRANCH   1   6
HETATM    6  O   UNL     1     -10.193   7.619  72.664  1.00  0.00    -0.220 OA 
BRANCH   6   7
HETATM    7  C   UNL     1     -10.952   8.532  71.993  1.00  0.00    -0.340 A  
HETATM    8  C   UNL     1     -12.913   9.881  71.552  1.00  0.00    -0.523 A  
HETATM    9  C   UNL     1     -12.284   8.841  72.256  1.00  0.00    -0.429 A  
HETATM   10  C   UNL     1     -12.220  10.624  70.580  1.00  0.00    -0.459 A  
HETATM   11  C   UNL     1     -10.264   9.255  71.018  1.00  0.00    -0.384 A  
HETATM   12  C   UNL     1     -10.890  10.284  70.311  1.00  0.00    -0.349 A  
BRANCH  10  13
HETATM   13  C   UNL     1     -12.861  11.820  69.895  1.00  0.00     0.386 C  
BRANCH  13  14
HETATM   14  C   UNL     1     -12.256  13.137  70.340  1.00  0.00    -0.389 A  
HETATM   15  C   UNL     1     -12.669  13.842  71.478  1.00  0.00    -0.357 A  
HETATM   16 CL   UNL     1     -13.846  13.220  72.578  1.00  0.00    -0.647 Cl 
HETATM   17  C   UNL     1     -12.159  15.117  71.744  1.00  0.00    -0.437 A  
HETATM   18  C   UNL     1     -11.291  15.733  70.839  1.00  0.00    -0.426 A  
HETATM   19  C   UNL     1     -10.900  15.074  69.668  1.00  0.00    -0.283 A  
HETATM   20  C   UNL     1     -11.320  13.747  69.483  1.00  0.00    -0.283 A  
BRANCH  19  21
HETATM   21  C   UNL     1     -10.233  15.852  68.541  1.00  0.00    -0.226 C  
HETATM   22  O   UNL     1     -10.067  17.216  68.975  1.00  0.00    -0.295 OA 
HETATM   23  C   UNL     1      -9.213  17.979  68.116  1.00  0.00    -0.279 C  
HETATM   24  H   UNL     1     -11.408  14.408  65.823  1.00  0.00     0.000 HD 
HETATM   25  C   UNL     1      -9.842  18.076  66.726  1.00  0.00    -0.335 C  
HETATM   26  O   UNL     1     -10.990  14.443  66.675  1.00  0.00    -0.306 OA 
HETATM   27  C   UNL     1     -10.093  16.665  66.174  1.00  0.00    -0.345 C  
HETATM   28  O   UNL     1      -9.017  18.795  65.804  1.00  0.00    -0.397 OA 
HETATM   29  H   UNL     1     -10.899  15.890  64.560  1.00  0.00     0.000 HD 
HETATM   30  C   UNL     1     -10.914  15.794  67.153  1.00  0.00    -0.244 C  
HETATM   31  H   UNL     1      -9.407  18.855  64.940  1.00  0.00     0.000 HD 
HETATM   32  O   UNL     1     -10.743  16.763  64.901  1.00  0.00    -0.721 OA 
BRANCH  23  33
HETATM   33  C   UNL     1      -9.020  19.359  68.752  1.00  0.00    -0.349 C  
HETATM   34  O   UNL     1     -10.302  19.922  69.065  1.00  0.00    -0.613 OA 
HETATM   35  H   UNL     1     -10.183  20.778  69.460  1.00  0.00     0.000 HD 
ENDBRANCH  23  33
ENDBRANCH  19  21
ENDBRANCH  13  14
ENDBRANCH  10  13
ENDBRANCH   6   7
ENDBRANCH   1   6
TORSDOF 6
ENDMDL
MODEL        8
REMARK 921   NORMALIZED FREE ENERGY PREDICTED BY IDOCK:   -7.72 KCAL/MOL
REMARK 922        TOTAL FREE ENERGY PREDICTED BY IDOCK:  -11.40 KCAL/MOL
REMARK 923 INTER-LIGAND FREE ENERGY PREDICTED BY IDOCK:   -9.78 KCAL/MOL
REMARK 924 INTRA-LIGAND FREE ENERGY PREDICTED BY IDOCK:   -1.62 KCAL/MOL
REMARK 927      BINDING AFFINITY PREDICTED BY RF-SCORE:    0.00 PKD
ROOT
HETATM    1  C   UNL     1      -9.688   4.228  65.405  1.00  0.00    -0.200 C  
HETATM    2  C   UNL     1      -9.173   3.223  66.419  1.00  0.00    -0.161 C  
HETATM    3  O   UNL     1      -9.336   2.089  64.371  1.00  0.00    -0.127 OA 
HETATM    4  C   UNL     1      -8.532   2.172  65.552  1.00  0.00    -0.098 C  
HETATM    5  C   UNL     1     -10.088   3.311  64.251  1.00  0.00    -0.152 C  
ENDROOT
BRANCH   1   6
HETATM    6  O   UNL     1     -10.784   4.916  65.997  1.00  0.00    -0.316 OA 
BRANCH   6   7
HETATM    7  C   UNL     1     -10.529   5.982  66.810  1.00  0.00    -0.267 A  
HETATM    8  C   UNL     1     -10.498   7.220  68.890  1.00  0.00    -0.216 A  
HETATM    9  C   UNL     1     -10.922   6.110  68.139  1.00  0.00    -0.398 A  
HETATM   10  C   UNL     1      -9.678   8.210  68.323  1.00  0.00    -0.175 A  
HETATM   11  C   UNL     1      -9.729   6.971  66.236  1.00  0.00    -0.053 A  
HETATM   12  C   UNL     1      -9.314   8.079  66.979  1.00  0.00    -0.197 A  
BRANCH  10  13
HETATM   13  C   UNL     1      -9.127   9.353  69.160  1.00  0.00    -0.148 C  
BRANCH  13  14
HETATM   14  C   UNL     1     -10.163  10.429  69.426  1.00  0.00    -0.257 A  
HETATM   15  C   UNL     1     -11.051  10.407  70.509  1.00  0.00    -0.265 A  
HETATM   16 CL   UNL     1     -10.982   9.198  71.740  1.00  0.00    -0.440 Cl 
HETATM   17  C   UNL     1     -12.069  11.362  70.610  1.00  0.00    -0.469 A  
HETATM   18  C   UNL     1     -12.258  12.300  69.592  1.00  0.00    -0.175 A  
HETATM   19  C   UNL     1     -11.418  12.315  68.473  1.00  0.00    -0.349 A  
HETATM   20  C   UNL     1     -10.325  11.433  68.453  1.00  0.00    -0.209 A  
BRANCH  19  21
HETATM   21  C   UNL     1     -11.815  13.103  67.232  1.00  0.00    -0.367 C  
HETATM   22  O   UNL     1     -11.940  12.178  66.134  1.00  0.00    -0.593 OA 
HETATM   23  C   UNL     1     -12.568  12.754  64.984  1.00  0.00    -0.468 C  
HETATM   24  H   UNL     1     -10.314  16.004  67.664  1.00  0.00     0.000 HD 
HETATM   25  C   UNL     1     -11.704  13.895  64.448  1.00  0.00    -0.404 C  
HETATM   26  O   UNL     1     -10.867  15.269  67.901  1.00  0.00    -0.271 OA 
HETATM   27  C   UNL     1     -11.479  14.936  65.555  1.00  0.00    -0.307 C  
HETATM   28  O   UNL     1     -12.296  14.542  63.316  1.00  0.00    -1.033 OA 
HETATM   29  H   UNL     1     -10.474  16.611  65.751  1.00  0.00     0.000 HD 
HETATM   30  C   UNL     1     -10.913  14.299  66.845  1.00  0.00    -0.304 C  
HETATM   31  H   UNL     1     -11.760  15.252  62.983  1.00  0.00     0.000 HD 
HETATM   32  O   UNL     1     -10.614  15.968  65.066  1.00  0.00    -0.551 OA 
BRANCH  23  33
HETATM   33  C   UNL     1     -12.754  11.643  63.945  1.00  0.00    -0.051 C  
HETATM   34  O   UNL     1     -11.798  11.815  62.888  1.00  0.00    -0.755 OA 
HETATM   35  H   UNL     1     -11.913  11.126  62.244  1.00  0.00     0.000 HD 
ENDBRANCH  23  33
ENDBRANCH  19  21
ENDBRANCH  13  14
ENDBRANCH  10  13
ENDBRANCH   6   7
ENDBRANCH   1   6
TORSDOF 6
ENDMDL
MODEL        9
REMARK 921   NORMALIZED FREE ENERGY PREDICTED BY IDOCK:   -7.68 KCAL/MOL
REMARK 922        TOTAL FREE ENERGY PREDICTED BY IDOCK:  -11.34 KCAL/MOL
REMARK 923 INTER-LIGAND FREE ENERGY PREDICTED BY IDOCK:  -10.57 KCAL/MOL
REMARK 924 INTRA-LIGAND FREE ENERGY PREDICTED BY IDOCK:   -0.77 KCAL/MOL
REMARK 927      BINDING AFFINITY PREDICTED BY RF-SCORE:    0.00 PKD
ROOT
HETATM    1  C   UNL     1     -10.469  11.676  63.688  1.00  0.00    -0.429 C  
HETATM    2  C   UNL     1      -9.370  11.434  62.670  1.00  0.00    -0.247 C  
HETATM    3  O   UNL     1      -9.317   9.624  64.161  1.00  0.00    -0.236 OA 
HETATM    4  C   UNL     1      -9.133   9.952  62.781  1.00  0.00    -0.284 C  
HETATM    5  C   UNL     1     -10.103  10.665  64.771  1.00  0.00    -0.344 C  
ENDROOT
BRANCH   1   6
HETATM    6  O   UNL     1     -10.374  13.032  64.113  1.00  0.00    -0.419 OA 
BRANCH   6   7
HETATM    7  C   UNL     1     -10.522  13.317  65.438  1.00  0.00    -0.297 A  
HETATM    8  C   UNL     1      -9.789  13.877  67.676  1.00  0.00    -0.236 A  
HETATM    9  C   UNL     1      -9.494  13.479  66.361  1.00  0.00    -0.236 A  
HETATM   10  C   UNL     1     -11.113  14.118  68.082  1.00  0.00    -0.276 A  
HETATM   11  C   UNL     1     -11.840  13.539  65.840  1.00  0.00    -0.405 A  
HETATM   12  C   UNL     1     -12.137  13.926  67.149  1.00  0.00    -0.422 A  
BRANCH  10  13
HETATM   13  C   UNL     1     -11.428  14.654  69.469  1.00  0.00    -0.334 C  
BRANCH  13  14
HETATM   14  C   UNL     1     -12.161  13.643  70.329  1.00  0.00    -0.427 A  
HETATM   15  C   UNL     1     -12.994  13.988  71.402  1.00  0.00    -0.353 A  
HETATM   16 CL   UNL     1     -13.376  15.627  71.789  1.00  0.00    -0.556 Cl 
HETATM   17  C   UNL     1     -13.524  12.997  72.234  1.00  0.00    -0.645 A  
HETATM   18  C   UNL     1     -13.166  11.658  72.053  1.00  0.00    -0.443 A  
HETATM   19  C   UNL     1     -12.295  11.288  71.021  1.00  0.00    -0.472 A  
HETATM   20  C   UNL     1     -11.877  12.280  70.119  1.00  0.00    -0.352 A  
BRANCH  19  21
HETATM   21  C   UNL     1     -11.654   9.907  71.023  1.00  0.00    -0.389 C  
HETATM   22  O   UNL     1     -11.259   9.594  69.673  1.00  0.00    -0.220 OA 
HETATM   23  C   UNL     1     -10.407   8.446  69.590  1.00  0.00    -0.218 C  
HETATM   24  H   UNL     1     -13.303   8.310  73.388  1.00  0.00     0.000 HD 
HETATM   25  C   UNL     1     -11.163   7.212  70.080  1.00  0.00    -0.262 C  
HETATM   26  O   UNL     1     -12.794   9.019  73.011  1.00  0.00    -0.248 OA 
HETATM   27  C   UNL     1     -11.663   7.448  71.514  1.00  0.00    -0.284 C  
HETATM   28  O   UNL     1     -10.353   6.032  70.059  1.00  0.00    -0.195 OA 
HETATM   29  H   UNL     1     -12.736   6.461  72.828  1.00  0.00     0.000 HD 
HETATM   30  C   UNL     1     -12.483   8.753  71.636  1.00  0.00    -0.339 C  
HETATM   31  H   UNL     1     -10.823   5.265  70.365  1.00  0.00     0.000 HD 
HETATM   32  O   UNL     1     -12.427   6.315  71.941  1.00  0.00    -0.290 OA 
BRANCH  23  33
HETATM   33  C   UNL     1      -9.960   8.300  68.132  1.00  0.00    -0.191 C  
HETATM   34  O   UNL     1     -10.935   7.533  67.410  1.00  0.00    -0.517 OA 
HETATM   35  H   UNL     1     -10.658   7.442  66.506  1.00  0.00     0.000 HD 
ENDBRANCH  23  33
ENDBRANCH  19  21
ENDBRANCH  13  14
ENDBRANCH  10  13
ENDBRANCH   6   7
ENDBRANCH   1   6
TORSDOF 6
ENDMDL
MODEL       10
REMARK 921   NORMALIZED FREE ENERGY PREDICTED BY IDOCK:   -7.66 KCAL/MOL
REMARK 922        TOTAL FREE ENERGY PREDICTED BY IDOCK:  -11.32 KCAL/MOL
REMARK 923 INTER-LIGAND FREE ENERGY PREDICTED BY IDOCK:  -10.72 KCAL/MOL
REMARK 924 INTRA-LIGAND FREE ENERGY PREDICTED BY IDOCK:   -0.59 KCAL/MOL
REMARK 927      BINDING AFFINITY PREDICTED BY RF-SCORE:    0.00 PKD
ROOT
HETATM    1  C   UNL     1      -9.807  18.205  66.302  1.00  0.00    -0.310 C  
HETATM    2  C   UNL     1      -9.848  19.689  65.985  1.00  0.00    -0.462 C  
HETATM    3  O   UNL     1     -10.218  19.483  68.293  1.00  0.00    -0.412 OA 
HETATM    4  C   UNL     1      -9.584  20.324  67.324  1.00  0.00    -0.444 C  
HETATM    5  C   UNL     1     -10.406  18.181  67.706  1.00  0.00    -0.399 C  
ENDROOT
BRANCH   1   6
HETATM    6  O   UNL     1     -10.598  17.533  65.328  1.00  0.00    -0.664 OA 
BRANCH   6   7
HETATM    7  C   UNL     1     -10.671  16.171  65.366  1.00  0.00    -0.358 A  
HETATM    8  C   UNL     1     -10.177  13.952  66.197  1.00  0.00    -0.307 A  
HETATM    9  C   UNL     1      -9.922  15.334  66.188  1.00  0.00    -0.325 A  
HETATM   10  C   UNL     1     -11.180  13.392  65.387  1.00  0.00    -0.303 A  
HETATM   11  C   UNL     1     -11.657  15.620  64.548  1.00  0.00    -0.262 A  
HETATM   12  C   UNL     1     -11.906  14.245  64.548  1.00  0.00    -0.456 A  
BRANCH  10  13
HETATM   13  C   UNL     1     -11.533  11.917  65.474  1.00  0.00    -0.311 C  
BRANCH  13  14
HETATM   14  C   UNL     1     -10.682  11.175  66.487  1.00  0.00    -0.314 A  
HETATM   15  C   UNL     1      -9.635  10.310  66.142  1.00  0.00    -0.197 A  
HETATM   16 CL   UNL     1      -9.116  10.087  64.510  1.00  0.00    -0.258 Cl 
HETATM   17  C   UNL     1      -8.987   9.556  67.126  1.00  0.00    -0.148 A  
HETATM   18  C   UNL     1      -9.429   9.597  68.451  1.00  0.00    -0.143 A  
HETATM   19  C   UNL     1     -10.506  10.413  68.817  1.00  0.00    -0.219 A  
HETATM   20  C   UNL     1     -11.058  11.259  67.841  1.00  0.00    -0.325 A  
BRANCH  19  21
HETATM   21  C   UNL     1     -11.189  10.216  70.164  1.00  0.00    -0.310 C  
HETATM   22  O   UNL     1     -11.659   8.856  70.234  1.00  0.00    -0.178 OA 
HETATM   23  C   UNL     1     -12.075   8.473  71.549  1.00  0.00    -0.304 C  
HETATM   24  H   UNL     1     -12.521  13.167  70.776  1.00  0.00     0.000 HD 
HETATM   25  C   UNL     1     -13.266   9.329  71.977  1.00  0.00    -0.447 C  
HETATM   26  O   UNL     1     -11.828  12.557  70.554  1.00  0.00    -0.265 OA 
HETATM   27  C   UNL     1     -12.884  10.816  71.910  1.00  0.00    -0.354 C  
HETATM   28  O   UNL     1     -13.708   9.023  73.304  1.00  0.00    -1.072 OA 
HETATM   29  H   UNL     1     -13.789  12.533  72.206  1.00  0.00     0.000 HD 
HETATM   30  C   UNL     1     -12.319  11.209  70.526  1.00  0.00    -0.364 C  
HETATM   31  H   UNL     1     -14.449   9.556  73.570  1.00  0.00     0.000 HD 
HETATM   32  O   UNL     1     -14.025  11.614  72.248  1.00  0.00     0.090 OA 
BRANCH  23  33
HETATM   33  C   UNL     1     -12.427   6.982  71.514  1.00  0.00    -0.386 C  
HETATM   34  O   UNL     1     -12.197   6.471  70.193  1.00  0.00    -0.516 OA 
HETATM   35  H   UNL     1     -12.416   5.547  70.171  1.00  0.00     0.000 HD 
ENDBRANCH  23  33
ENDBRANCH  19  21
ENDBRANCH  13  14
ENDBRANCH  10  13
ENDBRANCH   6   7
ENDBRANCH   1   6
TORSDOF 6
ENDMDL
MODEL       11
REMARK 921   NORMALIZED FREE ENERGY PREDICTED BY IDOCK:   -7.63 KCAL/MOL
REMARK 922        TOTAL FREE ENERGY PREDICTED BY IDOCK:  -11.28 KCAL/MOL
REMARK 923 INTER-LIGAND FREE ENERGY PREDICTED BY IDOCK:   -9.76 KCAL/MOL
REMARK 924 INTRA-LIGAND FREE ENERGY PREDICTED BY IDOCK:   -1.52 KCAL/MOL
REMARK 927      BINDING AFFINITY PREDICTED BY RF-SCORE:    0.00 PKD
ROOT
HETATM    1  C   UNL     1     -10.033   4.585  65.763  1.00  0.00    -0.239 C  
HETATM    2  C   UNL     1      -9.500   3.546  66.734  1.00  0.00    -0.190 C  
HETATM    3  O   UNL     1      -9.683   2.486  64.649  1.00  0.00    -0.124 OA 
HETATM    4  C   UNL     1      -8.865   2.531  65.822  1.00  0.00    -0.131 C  
HETATM    5  C   UNL     1     -10.442   3.708  64.582  1.00  0.00    -0.077 C  
ENDROOT
BRANCH   1   6
HETATM    6  O   UNL     1     -11.125   5.246  66.393  1.00  0.00    -0.140 OA 
BRANCH   6   7
HETATM    7  C   UNL     1     -10.863   6.266  67.260  1.00  0.00    -0.375 A  
HETATM    8  C   UNL     1     -10.635   7.326  69.424  1.00  0.00    -0.238 A  
HETATM    9  C   UNL     1     -11.047   6.236  68.639  1.00  0.00    -0.409 A  
HETATM   10  C   UNL     1     -10.036   8.456  68.841  1.00  0.00    -0.194 A  
HETATM   11  C   UNL     1     -10.284   7.392  66.673  1.00  0.00    -0.247 A  
HETATM   12  C   UNL     1      -9.882   8.481  67.451  1.00  0.00    -0.244 A  
BRANCH  10  13
HETATM   13  C   UNL     1      -9.490   9.588  69.695  1.00  0.00    -0.213 C  
BRANCH  13  14
HETATM   14  C   UNL     1     -10.373  10.820  69.659  1.00  0.00    -0.142 A  
HETATM   15  C   UNL     1     -11.539  10.968  70.423  1.00  0.00    -0.293 A  
HETATM   16 CL   UNL     1     -12.035   9.798  71.592  1.00  0.00    -0.471 Cl 
HETATM   17  C   UNL     1     -12.374  12.073  70.232  1.00  0.00    -0.275 A  
HETATM   18  C   UNL     1     -12.098  13.001  69.225  1.00  0.00    -0.251 A  
HETATM   19  C   UNL     1     -10.969  12.852  68.411  1.00  0.00    -0.285 A  
HETATM   20  C   UNL     1     -10.074  11.810  68.703  1.00  0.00    -0.198 A  
BRANCH  19  21
HETATM   21  C   UNL     1     -10.844  13.658  67.125  1.00  0.00    -0.285 C  
HETATM   22  O   UNL     1     -10.735  15.051  67.477  1.00  0.00    -0.272 OA 
HETATM   23  C   UNL     1     -10.343  15.879  66.378  1.00  0.00    -0.306 C  
HETATM   24  H   UNL     1     -12.660  11.943  64.977  1.00  0.00     0.000 HD 
HETATM   25  C   UNL     1     -11.415  15.826  65.290  1.00  0.00     0.024 C  
HETATM   26  O   UNL     1     -11.986  12.074  65.633  1.00  0.00    -0.479 OA 
HETATM   27  C   UNL     1     -11.638  14.369  64.856  1.00  0.00    -0.395 C  
HETATM   28  O   UNL     1     -11.066  16.604  64.141  1.00  0.00    -1.338 OA 
HETATM   29  H   UNL     1     -12.829  13.419  63.618  1.00  0.00     0.000 HD 
HETATM   30  C   UNL     1     -11.943  13.445  66.057  1.00  0.00    -0.415 C  
HETATM   31  H   UNL     1     -11.733  16.571  63.465  1.00  0.00     0.000 HD 
HETATM   32  O   UNL     1     -12.691  14.320  63.886  1.00  0.00    -0.749 OA 
BRANCH  23  33
HETATM   33  C   UNL     1     -10.141  17.302  66.910  1.00  0.00    -0.304 C  
HETATM   34  O   UNL     1      -9.301  18.033  66.006  1.00  0.00    -0.505 OA 
HETATM   35  H   UNL     1      -9.176  18.915  66.336  1.00  0.00     0.000 HD 
ENDBRANCH  23  33
ENDBRANCH  19  21
ENDBRANCH  13  14
ENDBRANCH  10  13
ENDBRANCH   6   7
ENDBRANCH   1   6
TORSDOF 6
ENDMDL
MODEL       12
REMARK 921   NORMALIZED FREE ENERGY PREDICTED BY IDOCK:   -7.58 KCAL/MOL
REMARK 922        TOTAL FREE ENERGY PREDICTED BY IDOCK:  -11.20 KCAL/MOL
REMARK 923 INTER-LIGAND FREE ENERGY PREDICTED BY IDOCK:  -10.20 KCAL/MOL
REMARK 924 INTRA-LIGAND FREE ENERGY PREDICTED BY IDOCK:   -1.00 KCAL/MOL
REMARK 927      BINDING AFFINITY PREDICTED BY RF-SCORE:    0.00 PKD
ROOT
HETATM    1  C   UNL     1     -11.997   8.837  70.978  1.00  0.00    -0.251 C  
HETATM    2  C   UNL     1     -12.494   8.423  72.351  1.00  0.00    -0.390 C  
HETATM    3  O   UNL     1     -13.080  10.678  72.076  1.00  0.00    -0.481 OA 
HETATM    4  C   UNL     1     -13.550   9.454  72.650  1.00  0.00    -0.266 C  
HETATM    5  C   UNL     1     -12.104  10.358  71.068  1.00  0.00    -0.385 C  
ENDROOT
BRANCH   1   6
HETATM    6  O   UNL     1     -10.662   8.363  70.840  1.00  0.00    -0.213 OA 
BRANCH   6   7
HETATM    7  C   UNL     1     -10.157   8.176  69.587  1.00  0.00    -0.199 A  
HETATM    8  C   UNL     1     -10.131   7.347  67.313  1.00  0.00    -0.296 A  
HETATM    9  C   UNL     1     -10.700   7.362  68.598  1.00  0.00    -0.134 A  
HETATM   10  C   UNL     1      -9.016   8.144  67.003  1.00  0.00    -0.160 A  
HETATM   11  C   UNL     1      -9.040   8.958  69.290  1.00  0.00    -0.145 A  
HETATM   12  C   UNL     1      -8.467   8.938  68.016  1.00  0.00    -0.126 A  
BRANCH  10  13
HETATM   13  C   UNL     1      -8.465   8.215  65.588  1.00  0.00    -0.170 C  
BRANCH  13  14
HETATM   14  C   UNL     1      -9.159   9.268  64.747  1.00  0.00    -0.201 A  
HETATM   15  C   UNL     1      -8.840   9.534  63.409  1.00  0.00    -0.214 A  
HETATM   16 CL   UNL     1      -7.689   8.596  62.526  1.00  0.00    -0.117 Cl 
HETATM   17  C   UNL     1      -9.427  10.614  62.742  1.00  0.00    -0.355 A  
HETATM   18  C   UNL     1     -10.279  11.486  63.425  1.00  0.00    -0.462 A  
HETATM   19  C   UNL     1     -10.577  11.276  64.777  1.00  0.00    -0.376 A  
HETATM   20  C   UNL     1     -10.080  10.115  65.392  1.00  0.00    -0.342 A  
BRANCH  19  21
HETATM   21  C   UNL     1     -11.225  12.384  65.596  1.00  0.00    -0.322 C  
HETATM   22  O   UNL     1     -10.645  13.639  65.191  1.00  0.00    -0.322 OA 
HETATM   23  C   UNL     1     -11.359  14.774  65.691  1.00  0.00    -0.343 C  
HETATM   24  H   UNL     1     -11.829  10.932  68.491  1.00  0.00     0.000 HD 
HETATM   25  C   UNL     1     -11.301  14.782  67.218  1.00  0.00    -0.357 C  
HETATM   26  O   UNL     1     -11.852  11.027  67.546  1.00  0.00    -0.571 OA 
HETATM   27  C   UNL     1     -11.872  13.464  67.763  1.00  0.00    -0.358 C  
HETATM   28  O   UNL     1     -12.031  15.875  67.786  1.00  0.00    -0.079 OA 
HETATM   29  H   UNL     1     -12.106  12.636  69.527  1.00  0.00     0.000 HD 
HETATM   30  C   UNL     1     -11.187  12.230  67.134  1.00  0.00    -0.307 C  
HETATM   31  H   UNL     1     -11.996  15.879  68.736  1.00  0.00     0.000 HD 
HETATM   32  O   UNL     1     -11.753  13.451  69.191  1.00  0.00    -0.284 OA 
BRANCH  23  33
HETATM   33  C   UNL     1     -10.721  16.031  65.090  1.00  0.00    -0.409 C  
HETATM   34  O   UNL     1     -11.438  16.407  63.905  1.00  0.00    -1.569 OA 
HETATM   35  H   UNL     1     -11.043  17.186  63.531  1.00  0.00     0.000 HD 
ENDBRANCH  23  33
ENDBRANCH  19  21
ENDBRANCH  13  14
ENDBRANCH  10  13
ENDBRANCH   6   7
ENDBRANCH   1   6
TORSDOF 6
ENDMDL
MODEL       13
REMARK 921   NORMALIZED FREE ENERGY PREDICTED BY IDOCK:   -7.46 KCAL/MOL
REMARK 922        TOTAL FREE ENERGY PREDICTED BY IDOCK:  -11.05 KCAL/MOL
REMARK 923 INTER-LIGAND FREE ENERGY PREDICTED BY IDOCK:  -10.26 KCAL/MOL
REMARK 924 INTRA-LIGAND FREE ENERGY PREDICTED BY IDOCK:   -0.79 KCAL/MOL
REMARK 927      BINDING AFFINITY PREDICTED BY RF-SCORE:    0.00 PKD
ROOT
HETATM    1  C   UNL     1      -8.810  18.289  67.263  1.00  0.00    -0.255 C  
HETATM    2  C   UNL     1      -9.191  19.740  67.034  1.00  0.00    -0.449 C  
HETATM    3  O   UNL     1      -7.103  19.754  68.103  1.00  0.00    -0.275 OA 
HETATM    4  C   UNL     1      -7.866  20.450  67.114  1.00  0.00    -0.335 C  
HETATM    5  C   UNL     1      -7.660  18.434  68.256  1.00  0.00    -0.286 C  
ENDROOT
BRANCH   1   6
HETATM    6  O   UNL     1      -9.949  17.622  67.798  1.00  0.00    -0.290 OA 
BRANCH   6   7
HETATM    7  C   UNL     1     -10.446  16.537  67.138  1.00  0.00    -0.300 A  
HETATM    8  C   UNL     1     -10.641  14.954  65.317  1.00  0.00    -0.421 A  
HETATM    9  C   UNL     1     -10.135  16.158  65.835  1.00  0.00    -0.379 A  
HETATM   10  C   UNL     1     -11.461  14.117  66.092  1.00  0.00    -0.350 A  
HETATM   11  C   UNL     1     -11.274  15.719  67.907  1.00  0.00    -0.313 A  
HETATM   12  C   UNL     1     -11.786  14.525  67.390  1.00  0.00    -0.425 A  
BRANCH  10  13
HETATM   13  C   UNL     1     -11.921  12.763  65.576  1.00  0.00    -0.497 C  
BRANCH  13  14
HETATM   14  C   UNL     1     -11.054  11.625  66.078  1.00  0.00    -0.325 A  
HETATM   15  C   UNL     1     -10.377  10.730  65.239  1.00  0.00    -0.258 A  
HETATM   16 CL   UNL     1     -10.360  10.902  63.521  1.00  0.00    -0.394 Cl 
HETATM   17  C   UNL     1      -9.710   9.624  65.776  1.00  0.00    -0.350 A  
HETATM   18  C   UNL     1      -9.777   9.355  67.145  1.00  0.00    -0.225 A  
HETATM   19  C   UNL     1     -10.489  10.204  68.002  1.00  0.00    -0.249 A  
HETATM   20  C   UNL     1     -11.041  11.377  67.464  1.00  0.00    -0.339 A  
BRANCH  19  21
HETATM   21  C   UNL     1     -10.835   9.746  69.413  1.00  0.00    -0.232 C  
HETATM   22  O   UNL     1     -11.029   8.319  69.387  1.00  0.00    -0.144 OA 
HETATM   23  C   UNL     1     -11.093   7.737  70.693  1.00  0.00    -0.256 C  
HETATM   24  H   UNL     1     -12.521  12.296  70.644  1.00  0.00     0.000 HD 
HETATM   25  C   UNL     1     -12.305   8.291  71.441  1.00  0.00    -0.299 C  
HETATM   26  O   UNL     1     -11.790  11.862  70.219  1.00  0.00    -0.331 OA 
HETATM   27  C   UNL     1     -12.217   9.823  71.503  1.00  0.00    -0.406 C  
HETATM   28  O   UNL     1     -12.405   7.777  72.773  1.00  0.00    -0.580 OA 
HETATM   29  H   UNL     1     -13.335  11.286  72.184  1.00  0.00     0.000 HD 
HETATM   30  C   UNL     1     -12.026  10.452  70.103  1.00  0.00    -0.276 C  
HETATM   31  H   UNL     1     -13.158   8.122  73.238  1.00  0.00     0.000 HD 
HETATM   32  O   UNL     1     -13.389  10.339  72.145  1.00  0.00    -0.443 OA 
BRANCH  23  33
HETATM   33  C   UNL     1     -11.171   6.216  70.525  1.00  0.00    -0.334 C  
HETATM   34  O   UNL     1     -10.834   5.583  71.768  1.00  0.00    -0.242 OA 
HETATM   35  H   UNL     1     -10.883   4.640  71.664  1.00  0.00     0.000 HD 
ENDBRANCH  23  33
ENDBRANCH  19  21
ENDBRANCH  13  14
ENDBRANCH  10  13
ENDBRANCH   6   7
ENDBRANCH   1   6
TORSDOF 6
ENDMDL
MODEL       14
REMARK 921   NORMALIZED FREE ENERGY PREDICTED BY IDOCK:   -7.44 KCAL/MOL
REMARK 922        TOTAL FREE ENERGY PREDICTED BY IDOCK:  -11.02 KCAL/MOL
REMARK 923 INTER-LIGAND FREE ENERGY PREDICTED BY IDOCK:  -10.05 KCAL/MOL
REMARK 924 INTRA-LIGAND FREE ENERGY PREDICTED BY IDOCK:   -0.97 KCAL/MOL
REMARK 927      BINDING AFFINITY PREDICTED BY RF-SCORE:    0.00 PKD
ROOT
HETATM    1  C   UNL     1     -12.708   9.346  70.955  1.00  0.00    -0.201 C  
HETATM    2  C   UNL     1     -12.508   7.894  71.351  1.00  0.00    -0.330 C  
HETATM    3  O   UNL     1     -14.332   8.686  72.597  1.00  0.00    -0.533 OA 
HETATM    4  C   UNL     1     -13.847   7.518  71.928  1.00  0.00    -0.254 C  
HETATM    5  C   UNL     1     -13.643   9.831  72.060  1.00  0.00    -0.349 C  
ENDROOT
BRANCH   1   6
HETATM    6  O   UNL     1     -11.432   9.976  70.966  1.00  0.00    -0.348 OA 
BRANCH   6   7
HETATM    7  C   UNL     1     -10.954  10.513  69.806  1.00  0.00    -0.294 A  
HETATM    8  C   UNL     1      -9.345  10.874  68.034  1.00  0.00    -0.160 A  
HETATM    9  C   UNL     1      -9.669  10.350  69.297  1.00  0.00    -0.231 A  
HETATM   10  C   UNL     1     -10.299  11.564  67.267  1.00  0.00    -0.236 A  
HETATM   11  C   UNL     1     -11.901  11.211  69.056  1.00  0.00    -0.418 A  
HETATM   12  C   UNL     1     -11.578  11.741  67.804  1.00  0.00    -0.374 A  
BRANCH  10  13
HETATM   13  C   UNL     1      -9.986  12.037  65.857  1.00  0.00    -0.260 C  
BRANCH  13  14
HETATM   14  C   UNL     1     -10.601  13.388  65.547  1.00  0.00    -0.294 A  
HETATM   15  C   UNL     1     -11.529  13.607  64.521  1.00  0.00    -0.379 A  
HETATM   16 CL   UNL     1     -12.172  12.322  63.563  1.00  0.00    -0.641 Cl 
HETATM   17  C   UNL     1     -11.945  14.905  64.208  1.00  0.00    -0.355 A  
HETATM   18  C   UNL     1     -11.381  16.004  64.862  1.00  0.00    -0.232 A  
HETATM   19  C   UNL     1     -10.413  15.819  65.857  1.00  0.00    -0.366 A  
HETATM   20  C   UNL     1     -10.105  14.505  66.246  1.00  0.00    -0.308 A  
BRANCH  19  21
HETATM   21  C   UNL     1      -9.573  16.997  66.331  1.00  0.00    -0.282 C  
HETATM   22  O   UNL     1      -8.901  16.610  67.545  1.00  0.00    -0.194 OA 
HETATM   23  C   UNL     1      -7.878  17.530  67.938  1.00  0.00    -0.218 C  
HETATM   24  H   UNL     1     -11.339  19.615  65.390  1.00  0.00     0.000 HD 
HETATM   25  C   UNL     1      -8.503  18.889  68.246  1.00  0.00    -0.330 C  
HETATM   26  O   UNL     1     -10.890  18.785  65.278  1.00  0.00    -0.576 OA 
HETATM   27  C   UNL     1      -9.279  19.390  67.018  1.00  0.00    -0.318 C  
HETATM   28  O   UNL     1      -7.526  19.870  68.609  1.00  0.00    -0.308 OA 
HETATM   29  H   UNL     1     -10.398  20.941  66.576  1.00  0.00     0.000 HD 
HETATM   30  C   UNL     1     -10.304  18.349  66.513  1.00  0.00    -0.400 C  
HETATM   31  H   UNL     1      -7.915  20.715  68.800  1.00  0.00     0.000 HD 
HETATM   32  O   UNL     1      -9.918  20.632  67.336  1.00  0.00    -0.438 OA 
BRANCH  23  33
HETATM   33  C   UNL     1      -7.163  16.941  69.159  1.00  0.00    -0.209 C  
HETATM   34  O   UNL     1      -5.920  17.630  69.360  1.00  0.00    -0.211 OA 
HETATM   35  H   UNL     1      -5.476  17.265  70.117  1.00  0.00     0.000 HD 
ENDBRANCH  23  33
ENDBRANCH  19  21
ENDBRANCH  13  14
ENDBRANCH  10  13
ENDBRANCH   6   7
ENDBRANCH   1   6
TORSDOF 6
ENDMDL
MODEL       15
REMARK 921   NORMALIZED FREE ENERGY PREDICTED BY IDOCK:   -7.43 KCAL/MOL
REMARK 922        TOTAL FREE ENERGY PREDICTED BY IDOCK:  -11.00 KCAL/MOL
REMARK 923 INTER-LIGAND FREE ENERGY PREDICTED BY IDOCK:   -9.77 KCAL/MOL
REMARK 924 INTRA-LIGAND FREE ENERGY PREDICTED BY IDOCK:   -1.23 KCAL/MOL
REMARK 927      BINDING AFFINITY PREDICTED BY RF-SCORE:    0.00 PKD
ROOT
HETATM    1  C   UNL     1     -13.014  13.561  71.798  1.00  0.00    -0.348 C  
HETATM    2  C   UNL     1     -14.283  14.255  71.340  1.00  0.00    -0.295 C  
HETATM    3  O   UNL     1     -13.294  15.654  72.943  1.00  0.00    -0.465 OA 
HETATM    4  C   UNL     1     -14.036  15.690  71.720  1.00  0.00    -0.352 C  
HETATM    5  C   UNL     1     -12.673  14.359  73.054  1.00  0.00    -0.357 C  
ENDROOT
BRANCH   1   6
HETATM    6  O   UNL     1     -13.334  12.198  72.054  1.00  0.00    -0.503 OA 
BRANCH   6   7
HETATM    7  C   UNL     1     -12.596  11.224  71.447  1.00  0.00    -0.351 A  
HETATM    8  C   UNL     1     -11.932   8.957  70.918  1.00  0.00    -0.254 A  
HETATM    9  C   UNL     1     -12.680   9.858  71.696  1.00  0.00    -0.527 A  
HETATM   10  C   UNL     1     -11.093   9.411  69.886  1.00  0.00    -0.223 A  
HETATM   11  C   UNL     1     -11.752  11.683  70.434  1.00  0.00    -0.292 A  
HETATM   12  C   UNL     1     -11.000  10.790  69.666  1.00  0.00    -0.320 A  
BRANCH  10  13
HETATM   13  C   UNL     1     -10.367   8.437  68.973  1.00  0.00    -0.231 C  
BRANCH  13  14
HETATM   14  C   UNL     1      -9.390   9.131  68.043  1.00  0.00    -0.149 A  
HETATM   15  C   UNL     1      -8.000   9.115  68.218  1.00  0.00    -0.103 A  
HETATM   16 CL   UNL     1      -7.232   8.191  69.458  1.00  0.00    -0.071 Cl 
HETATM   17  C   UNL     1      -7.175   9.893  67.398  1.00  0.00    -0.086 A  
HETATM   18  C   UNL     1      -7.733  10.754  66.450  1.00  0.00    -0.145 A  
HETATM   19  C   UNL     1      -9.121  10.830  66.287  1.00  0.00    -0.192 A  
HETATM   20  C   UNL     1      -9.924   9.947  67.028  1.00  0.00    -0.254 A  
BRANCH  19  21
HETATM   21  C   UNL     1      -9.735  11.982  65.504  1.00  0.00    -0.202 C  
HETATM   22  O   UNL     1     -10.200  12.968  66.446  1.00  0.00    -0.267 OA 
HETATM   23  C   UNL     1     -10.549  14.212  65.830  1.00  0.00    -0.298 C  
HETATM   24  H   UNL     1     -11.038  10.497  62.867  1.00  0.00     0.000 HD 
HETATM   25  C   UNL     1     -11.718  13.997  64.870  1.00  0.00    -0.380 C  
HETATM   26  O   UNL     1     -10.356  10.717  63.490  1.00  0.00    -0.312 OA 
HETATM   27  C   UNL     1     -11.341  12.932  63.829  1.00  0.00    -0.435 C  
HETATM   28  O   UNL     1     -12.093  15.198  64.189  1.00  0.00    -0.787 OA 
HETATM   29  H   UNL     1     -12.231  12.027  62.331  1.00  0.00     0.000 HD 
HETATM   30  C   UNL     1     -10.846  11.624  64.489  1.00  0.00    -0.324 C  
HETATM   31  H   UNL     1     -12.820  15.064  63.592  1.00  0.00     0.000 HD 
HETATM   32  O   UNL     1     -12.465  12.686  62.974  1.00  0.00    -0.458 OA 
BRANCH  23  33
HETATM   33  C   UNL     1     -10.901  15.204  66.944  1.00  0.00    -0.317 C  
HETATM   34  O   UNL     1     -12.208  14.901  67.455  1.00  0.00    -0.470 OA 
HETATM   35  H   UNL     1     -12.426  15.515  68.146  1.00  0.00     0.000 HD 
ENDBRANCH  23  33
ENDBRANCH  19  21
ENDBRANCH  13  14
ENDBRANCH  10  13
ENDBRANCH   6   7
ENDBRANCH   1   6
TORSDOF 6
ENDMDL
MODEL       16
REMARK 921   NORMALIZED FREE ENERGY PREDICTED BY IDOCK:   -7.43 KCAL/MOL
REMARK 922        TOTAL FREE ENERGY PREDICTED BY IDOCK:  -11.00 KCAL/MOL
REMARK 923 INTER-LIGAND FREE ENERGY PREDICTED BY IDOCK:   -9.86 KCAL/MOL
REMARK 924 INTRA-LIGAND FREE ENERGY PREDICTED BY IDOCK:   -1.15 KCAL/MOL
REMARK 927      BINDING AFFINITY PREDICTED BY RF-SCORE:    0.00 PKD
ROOT
HETATM    1  C   UNL     1      -9.995   4.665  71.858  1.00  0.00    -0.189 C  
HETATM    2  C   UNL     1      -9.335   4.856  70.504  1.00  0.00    -0.216 C  
HETATM    3  O   UNL     1      -8.361   2.950  71.464  1.00  0.00    -0.062 OA 
HETATM    4  C   UNL     1      -8.781   3.489  70.207  1.00  0.00    -0.067 C  
HETATM    5  C   UNL     1      -9.052   3.658  72.511  1.00  0.00    -0.104 C  
ENDROOT
BRANCH   1   6
HETATM    6  O   UNL     1     -10.021   5.931  72.508  1.00  0.00    -0.175 OA 
BRANCH   6   7
HETATM    7  C   UNL     1     -10.875   6.890  72.046  1.00  0.00    -0.225 A  
HETATM    8  C   UNL     1     -12.993   7.790  71.295  1.00  0.00    -0.257 A  
HETATM    9  C   UNL     1     -12.194   6.689  71.651  1.00  0.00    -0.401 A  
HETATM   10  C   UNL     1     -12.483   9.099  71.331  1.00  0.00    -0.396 A  
HETATM   11  C   UNL     1     -10.358   8.186  72.068  1.00  0.00    -0.320 A  
HETATM   12  C   UNL     1     -11.148   9.280  71.706  1.00  0.00    -0.398 A  
BRANCH  10  13
HETATM   13  C   UNL     1     -13.373  10.300  71.054  1.00  0.00    -0.299 C  
BRANCH  13  14
HETATM   14  C   UNL     1     -12.592  11.495  70.543  1.00  0.00    -0.286 A  
HETATM   15  C   UNL     1     -12.686  12.781  71.091  1.00  0.00    -0.263 A  
HETATM   16 CL   UNL     1     -13.622  13.122  72.502  1.00  0.00    -0.665 Cl 
HETATM   17  C   UNL     1     -12.041  13.861  70.478  1.00  0.00    -0.426 A  
HETATM   18  C   UNL     1     -11.362  13.683  69.270  1.00  0.00    -0.323 A  
HETATM   19  C   UNL     1     -11.294  12.419  68.672  1.00  0.00    -0.332 A  
HETATM   20  C   UNL     1     -11.836  11.327  69.368  1.00  0.00    -0.424 A  
BRANCH  19  21
HETATM   21  C   UNL     1     -10.848  12.285  67.222  1.00  0.00    -0.245 C  
HETATM   22  O   UNL     1     -11.939  12.699  66.377  1.00  0.00    -0.464 OA 
HETATM   23  C   UNL     1     -11.555  12.876  65.009  1.00  0.00    -0.332 C  
HETATM   24  H   UNL     1      -8.821   9.689  67.288  1.00  0.00     0.000 HD 
HETATM   25  C   UNL     1     -11.090  11.539  64.433  1.00  0.00    -0.291 C  
HETATM   26  O   UNL     1      -9.155  10.536  67.558  1.00  0.00    -0.138 OA 
HETATM   27  C   UNL     1      -9.937  10.984  65.283  1.00  0.00    -0.266 C  
HETATM   28  O   UNL     1     -10.653  11.653  63.075  1.00  0.00    -0.643 OA 
HETATM   29  H   UNL     1      -8.838   9.357  65.303  1.00  0.00     0.000 HD 
HETATM   30  C   UNL     1     -10.305  10.905  66.782  1.00  0.00    -0.241 C  
HETATM   31  H   UNL     1     -10.364  10.822  62.717  1.00  0.00     0.000 HD 
HETATM   32  O   UNL     1      -9.551   9.700  64.777  1.00  0.00    -0.265 OA 
BRANCH  23  33
HETATM   33  C   UNL     1     -12.764  13.434  64.251  1.00  0.00    -0.042 C  
HETATM   34  O   UNL     1     -12.343  13.891  62.957  1.00  0.00    -1.101 OA 
HETATM   35  H   UNL     1     -13.092  14.237  62.487  1.00  0.00     0.000 HD 
ENDBRANCH  23  33
ENDBRANCH  19  21
ENDBRANCH  13  14
ENDBRANCH  10  13
ENDBRANCH   6   7
ENDBRANCH   1   6
TORSDOF 6
ENDMDL
MODEL       17
REMARK 921   NORMALIZED FREE ENERGY PREDICTED BY IDOCK:   -7.39 KCAL/MOL
REMARK 922        TOTAL FREE ENERGY PREDICTED BY IDOCK:  -10.95 KCAL/MOL
REMARK 923 INTER-LIGAND FREE ENERGY PREDICTED BY IDOCK:  -10.12 KCAL/MOL
REMARK 924 INTRA-LIGAND FREE ENERGY PREDICTED BY IDOCK:   -0.83 KCAL/MOL
REMARK 927      BINDING AFFINITY PREDICTED BY RF-SCORE:    0.00 PKD
ROOT
HETATM    1  C   UNL     1      -7.878   7.686  72.429  1.00  0.00    -0.103 C  
HETATM    2  C   UNL     1      -7.971   8.192  73.857  1.00  0.00    -0.277 C  
HETATM    3  O   UNL     1      -6.412   6.439  73.865  1.00  0.00    -0.069 OA 
HETATM    4  C   UNL     1      -6.683   7.708  74.468  1.00  0.00    -0.100 C  
HETATM    5  C   UNL     1      -7.144   6.362  72.627  1.00  0.00    -0.075 C  
ENDROOT
BRANCH   1   6
HETATM    6  O   UNL     1      -9.205   7.539  71.935  1.00  0.00    -0.131 OA 
BRANCH   6   7
HETATM    7  C   UNL     1      -9.812   8.612  71.351  1.00  0.00    -0.256 A  
HETATM    8  C   UNL     1     -10.099  10.369  69.712  1.00  0.00    -0.201 A  
HETATM    9  C   UNL     1      -9.316   9.352  70.282  1.00  0.00    -0.294 A  
HETATM   10  C   UNL     1     -11.385  10.658  70.202  1.00  0.00    -0.402 A  
HETATM   11  C   UNL     1     -11.081   8.904  71.853  1.00  0.00    -0.442 A  
HETATM   12  C   UNL     1     -11.858   9.922  71.293  1.00  0.00    -0.479 A  
BRANCH  10  13
HETATM   13  C   UNL     1     -12.278  11.681  69.520  1.00  0.00    -0.257 C  
BRANCH  13  14
HETATM   14  C   UNL     1     -11.988  13.099  69.974  1.00  0.00    -0.391 A  
HETATM   15  C   UNL     1     -12.577  13.695  71.097  1.00  0.00    -0.371 A  
HETATM   16 CL   UNL     1     -13.618  12.829  72.168  1.00  0.00    -0.606 Cl 
HETATM   17  C   UNL     1     -12.366  15.051  71.371  1.00  0.00    -0.395 A  
HETATM   18  C   UNL     1     -11.630  15.843  70.486  1.00  0.00    -0.402 A  
HETATM   19  C   UNL     1     -11.072  15.286  69.329  1.00  0.00    -0.277 A  
HETATM   20  C   UNL     1     -11.186  13.899  69.139  1.00  0.00    -0.311 A  
BRANCH  19  21
HETATM   21  C   UNL     1     -10.561  16.193  68.217  1.00  0.00    -0.288 C  
HETATM   22  O   UNL     1     -10.755  17.560  68.628  1.00  0.00    -0.318 OA 
HETATM   23  C   UNL     1     -10.072  18.500  67.791  1.00  0.00    -0.364 C  
HETATM   24  H   UNL     1     -11.214  14.477  65.481  1.00  0.00     0.000 HD 
HETATM   25  C   UNL     1     -10.636  18.426  66.373  1.00  0.00    -0.309 C  
HETATM   26  O   UNL     1     -10.859  14.623  66.350  1.00  0.00    -0.303 OA 
HETATM   27  C   UNL     1     -10.508  16.990  65.841  1.00  0.00    -0.274 C  
HETATM   28  O   UNL     1      -9.968  19.316  65.473  1.00  0.00    -0.330 OA 
HETATM   29  H   UNL     1     -11.021  16.026  64.210  1.00  0.00     0.000 HD 
HETATM   30  C   UNL     1     -11.138  15.956  66.801  1.00  0.00    -0.064 C  
HETATM   31  H   UNL     1     -10.319  19.269  64.591  1.00  0.00     0.000 HD 
HETATM   32  O   UNL     1     -11.100  16.914  64.538  1.00  0.00    -1.054 OA 
BRANCH  23  33
HETATM   33  C   UNL     1     -10.253  19.892  68.405  1.00  0.00    -0.433 C  
HETATM   34  O   UNL     1     -10.369  19.771  69.831  1.00  0.00    -0.545 OA 
HETATM   35  H   UNL     1     -10.481  20.634  70.212  1.00  0.00     0.000 HD 
ENDBRANCH  23  33
ENDBRANCH  19  21
ENDBRANCH  13  14
ENDBRANCH  10  13
ENDBRANCH   6   7
ENDBRANCH   1   6
TORSDOF 6
ENDMDL
MODEL       18
REMARK 921   NORMALIZED FREE ENERGY PREDICTED BY IDOCK:   -7.38 KCAL/MOL
REMARK 922        TOTAL FREE ENERGY PREDICTED BY IDOCK:  -10.93 KCAL/MOL
REMARK 923 INTER-LIGAND FREE ENERGY PREDICTED BY IDOCK:  -11.02 KCAL/MOL
REMARK 924 INTRA-LIGAND FREE ENERGY PREDICTED BY IDOCK:    0.10 KCAL/MOL
REMARK 927      BINDING AFFINITY PREDICTED BY RF-SCORE:    0.00 PKD
ROOT
HETATM    1  C   UNL     1     -10.969   6.675  72.573  1.00  0.00    -0.247 C  
HETATM    2  C   UNL     1     -11.646   5.381  72.987  1.00  0.00    -0.268 C  
HETATM    3  O   UNL     1      -9.336   4.968  73.007  1.00  0.00    -0.129 OA 
HETATM    4  C   UNL     1     -10.545   4.641  73.699  1.00  0.00    -0.249 C  
HETATM    5  C   UNL     1      -9.552   6.190  72.276  1.00  0.00    -0.152 C  
ENDROOT
BRANCH   1   6
HETATM    6  O   UNL     1     -11.656   7.175  71.431  1.00  0.00    -0.260 OA 
BRANCH   6   7
HETATM    7  C   UNL     1     -12.212   8.419  71.491  1.00  0.00    -0.302 A  
HETATM    8  C   UNL     1     -13.777  10.109  72.237  1.00  0.00    -0.132 A  
HETATM    9  C   UNL     1     -13.375   8.764  72.173  1.00  0.00    -0.465 A  
HETATM   10  C   UNL     1     -13.022  11.123  71.623  1.00  0.00    -0.548 A  
HETATM   11  C   UNL     1     -11.467   9.419  70.865  1.00  0.00    -0.382 A  
HETATM   12  C   UNL     1     -11.869  10.756  70.920  1.00  0.00    -0.400 A  
BRANCH  10  13
HETATM   13  C   UNL     1     -13.391  12.588  71.782  1.00  0.00    -0.382 C  
BRANCH  13  14
HETATM   14  C   UNL     1     -12.413  13.513  71.083  1.00  0.00    -0.424 A  
HETATM   15  C   UNL     1     -11.989  14.742  71.606  1.00  0.00    -0.345 A  
HETATM   16 CL   UNL     1     -12.448  15.287  73.179  1.00  0.00    -0.510 Cl 
HETATM   17  C   UNL     1     -11.195  15.601  70.840  1.00  0.00    -0.407 A  
HETATM   18  C   UNL     1     -10.880  15.279  69.517  1.00  0.00    -0.275 A  
HETATM   19  C   UNL     1     -11.332  14.082  68.950  1.00  0.00    -0.314 A  
HETATM   20  C   UNL     1     -12.018  13.175  69.775  1.00  0.00    -0.382 A  
BRANCH  19  21
HETATM   21  C   UNL     1     -11.274  13.883  67.441  1.00  0.00    -0.312 C  
HETATM   22  O   UNL     1     -11.388  15.175  66.814  1.00  0.00    -0.326 OA 
HETATM   23  C   UNL     1     -11.077  15.150  65.417  1.00  0.00    -0.367 C  
HETATM   24  H   UNL     1     -12.722  10.956  67.006  1.00  0.00     0.000 HD 
HETATM   25  C   UNL     1     -12.082  14.262  64.685  1.00  0.00    -0.463 C  
HETATM   26  O   UNL     1     -12.104  11.570  67.382  1.00  0.00    -0.593 OA 
HETATM   27  C   UNL     1     -12.067  12.853  65.298  1.00  0.00    -0.453 C  
HETATM   28  O   UNL     1     -11.803  14.162  63.285  1.00  0.00    -0.555 OA 
HETATM   29  H   UNL     1     -13.050  11.175  65.031  1.00  0.00     0.000 HD 
HETATM   30  C   UNL     1     -12.282  12.883  66.828  1.00  0.00    -0.133 C  
HETATM   31  H   UNL     1     -12.428  13.609  62.830  1.00  0.00     0.000 HD 
HETATM   32  O   UNL     1     -13.059  12.046  64.652  1.00  0.00    -0.533 OA 
BRANCH  23  33
HETATM   33  C   UNL     1     -11.111  16.594  64.903  1.00  0.00    -0.129 C  
HETATM   34  O   UNL     1     -10.205  17.395  65.676  1.00  0.00    -0.586 OA 
HETATM   35  H   UNL     1     -10.226  18.289  65.358  1.00  0.00     0.000 HD 
ENDBRANCH  23  33
ENDBRANCH  19  21
ENDBRANCH  13  14
ENDBRANCH  10  13
ENDBRANCH   6   7
ENDBRANCH   1   6
TORSDOF 6
ENDMDL
MODEL       19
REMARK 921   NORMALIZED FREE ENERGY PREDICTED BY IDOCK:   -7.37 KCAL/MOL
REMARK 922        TOTAL FREE ENERGY PREDICTED BY IDOCK:  -10.92 KCAL/MOL
REMARK 923 INTER-LIGAND FREE ENERGY PREDICTED BY IDOCK:  -10.17 KCAL/MOL
REMARK 924 INTRA-LIGAND FREE ENERGY PREDICTED BY IDOCK:   -0.75 KCAL/MOL
REMARK 927      BINDING AFFINITY PREDICTED BY RF-SCORE:    0.00 PKD
ROOT
HETATM    1  C   UNL     1     -10.346  11.519  63.488  1.00  0.00    -0.433 C  
HETATM    2  C   UNL     1      -9.263  11.303  62.446  1.00  0.00    -0.175 C  
HETATM    3  O   UNL     1      -9.065   9.552  63.995  1.00  0.00    -0.228 OA 
HETATM    4  C   UNL     1      -8.939   9.841  62.600  1.00  0.00    -0.273 C  
HETATM    5  C   UNL     1      -9.892  10.568  64.593  1.00  0.00    -0.340 C  
ENDROOT
BRANCH   1   6
HETATM    6  O   UNL     1     -10.317  12.891  63.864  1.00  0.00    -0.409 OA 
BRANCH   6   7
HETATM    7  C   UNL     1     -10.544  13.221  65.168  1.00  0.00    -0.330 A  
HETATM    8  C   UNL     1      -9.951  13.908  67.412  1.00  0.00    -0.240 A  
HETATM    9  C   UNL     1      -9.571  13.475  66.130  1.00  0.00    -0.219 A  
HETATM   10  C   UNL     1     -11.304  14.092  67.746  1.00  0.00    -0.330 A  
HETATM   11  C   UNL     1     -11.890  13.386  65.498  1.00  0.00    -0.394 A  
HETATM   12  C   UNL     1     -12.270  13.807  66.775  1.00  0.00    -0.440 A  
BRANCH  10  13
HETATM   13  C   UNL     1     -11.714  14.664  69.093  1.00  0.00    -0.342 C  
BRANCH  13  14
HETATM   14  C   UNL     1     -12.293  13.612  70.019  1.00  0.00    -0.342 A  
HETATM   15  C   UNL     1     -12.954  13.907  71.219  1.00  0.00    -0.341 A  
HETATM   16 CL   UNL     1     -13.291  15.525  71.718  1.00  0.00    -0.543 Cl 
HETATM   17  C   UNL     1     -13.336  12.878  72.087  1.00  0.00    -0.615 A  
HETATM   18  C   UNL     1     -12.994  11.553  71.804  1.00  0.00    -0.500 A  
HETATM   19  C   UNL     1     -12.289  11.234  70.638  1.00  0.00    -0.477 A  
HETATM   20  C   UNL     1     -12.028  12.263  69.719  1.00  0.00    -0.365 A  
BRANCH  19  21
HETATM   21  C   UNL     1     -11.638   9.864  70.492  1.00  0.00    -0.309 C  
HETATM   22  O   UNL     1     -11.368   9.353  71.811  1.00  0.00    -0.379 OA 
HETATM   23  C   UNL     1     -11.009   7.967  71.813  1.00  0.00    -0.251 C  
HETATM   24  H   UNL     1      -9.894  10.148  67.711  1.00  0.00     0.000 HD 
HETATM   25  C   UNL     1      -9.706   7.777  71.037  1.00  0.00    -0.163 C  
HETATM   26  O   UNL     1     -10.669  10.198  68.258  1.00  0.00    -0.208 OA 
HETATM   27  C   UNL     1      -9.870   8.321  69.610  1.00  0.00    -0.184 C  
HETATM   28  O   UNL     1      -9.309   6.403  70.967  1.00  0.00    -0.163 OA 
HETATM   29  H   UNL     1      -8.728   8.538  68.029  1.00  0.00     0.000 HD 
HETATM   30  C   UNL     1     -10.377   9.782  69.600  1.00  0.00    -0.238 C  
HETATM   31  H   UNL     1      -8.499   6.285  70.485  1.00  0.00     0.000 HD 
HETATM   32  O   UNL     1      -8.626   8.201  68.911  1.00  0.00    -0.129 OA 
BRANCH  23  33
HETATM   33  C   UNL     1     -10.875   7.520  73.272  1.00  0.00    -0.355 C  
HETATM   34  O   UNL     1     -11.338   6.168  73.399  1.00  0.00    -0.454 OA 
HETATM   35  H   UNL     1     -11.255   5.890  74.304  1.00  0.00     0.000 HD 
ENDBRANCH  23  33
ENDBRANCH  19  21
ENDBRANCH  13  14
ENDBRANCH  10  13
ENDBRANCH   6   7
ENDBRANCH   1   6
TORSDOF 6
ENDMDL
MODEL       20
REMARK 921   NORMALIZED FREE ENERGY PREDICTED BY IDOCK:   -7.37 KCAL/MOL
REMARK 922        TOTAL FREE ENERGY PREDICTED BY IDOCK:  -10.92 KCAL/MOL
REMARK 923 INTER-LIGAND FREE ENERGY PREDICTED BY IDOCK:  -11.01 KCAL/MOL
REMARK 924 INTRA-LIGAND FREE ENERGY PREDICTED BY IDOCK:    0.09 KCAL/MOL
REMARK 927      BINDING AFFINITY PREDICTED BY RF-SCORE:    0.00 PKD
ROOT
HETATM    1  C   UNL     1     -10.094   5.785  70.260  1.00  0.00    -0.211 C  
HETATM    2  C   UNL     1     -11.196   6.261  69.331  1.00  0.00    -0.489 C  
HETATM    3  O   UNL     1      -9.220   6.225  68.067  1.00  0.00    -0.119 OA 
HETATM    4  C   UNL     1     -10.627   5.982  67.966  1.00  0.00    -0.262 C  
HETATM    5  C   UNL     1      -8.848   6.147  69.456  1.00  0.00    -0.130 C  
ENDROOT
BRANCH   1   6
HETATM    6  O   UNL     1     -10.218   6.505  71.482  1.00  0.00    -0.191 OA 
BRANCH   6   7
HETATM    7  C   UNL     1     -10.782   7.746  71.459  1.00  0.00    -0.222 A  
HETATM    8  C   UNL     1     -10.989  10.071  70.816  1.00  0.00    -0.375 A  
HETATM    9  C   UNL     1     -10.246   8.878  70.852  1.00  0.00    -0.304 A  
HETATM   10  C   UNL     1     -12.272  10.145  71.385  1.00  0.00    -0.492 A  
HETATM   11  C   UNL     1     -12.048   7.819  72.041  1.00  0.00    -0.351 A  
HETATM   12  C   UNL     1     -12.785   9.006  72.014  1.00  0.00    -0.467 A  
BRANCH  10  13
HETATM   13  C   UNL     1     -13.122  11.398  71.252  1.00  0.00    -0.297 C  
BRANCH  13  14
HETATM   14  C   UNL     1     -12.352  12.563  70.660  1.00  0.00    -0.369 A  
HETATM   15  C   UNL     1     -12.378  13.863  71.183  1.00  0.00    -0.359 A  
HETATM   16 CL   UNL     1     -13.205  14.257  72.647  1.00  0.00    -0.562 Cl 
HETATM   17  C   UNL     1     -11.753  14.912  70.501  1.00  0.00    -0.344 A  
HETATM   18  C   UNL     1     -11.164  14.691  69.254  1.00  0.00    -0.306 A  
HETATM   19  C   UNL     1     -11.167  13.413  68.682  1.00  0.00    -0.304 A  
HETATM   20  C   UNL     1     -11.684  12.350  69.440  1.00  0.00    -0.384 A  
BRANCH  19  21
HETATM   21  C   UNL     1     -10.827  13.237  67.208  1.00  0.00    -0.264 C  
HETATM   22  O   UNL     1     -11.800  13.963  66.433  1.00  0.00    -0.369 OA 
HETATM   23  C   UNL     1     -11.434  14.097  65.056  1.00  0.00    -0.352 C  
HETATM   24  H   UNL     1      -9.558  10.199  67.082  1.00  0.00     0.000 HD 
HETATM   25  C   UNL     1     -11.361  12.715  64.410  1.00  0.00    -0.344 C  
HETATM   26  O   UNL     1      -9.646  11.090  67.398  1.00  0.00    -0.163 OA 
HETATM   27  C   UNL     1     -10.365  11.836  65.181  1.00  0.00    -0.279 C  
HETATM   28  O   UNL     1     -10.960  12.775  63.037  1.00  0.00    -0.596 OA 
HETATM   29  H   UNL     1      -9.736   9.979  65.089  1.00  0.00     0.000 HD 
HETATM   30  C   UNL     1     -10.684  11.785  66.693  1.00  0.00    -0.263 C  
HETATM   31  H   UNL     1     -10.915  11.915  62.635  1.00  0.00     0.000 HD 
HETATM   32  O   UNL     1     -10.352  10.522  64.611  1.00  0.00    -0.344 OA 
BRANCH  23  33
HETATM   33  C   UNL     1     -12.479  14.990  64.378  1.00  0.00    -0.140 C  
HETATM   34  O   UNL     1     -11.853  16.202  63.935  1.00  0.00    -1.359 OA 
HETATM   35  H   UNL     1     -12.500  16.756  63.514  1.00  0.00     0.000 HD 
ENDBRANCH  23  33
ENDBRANCH  19  21
ENDBRANCH  13  14
ENDBRANCH  10  13
ENDBRANCH   6   7
ENDBRANCH   1   6
TORSDOF 6
ENDMDL
MODEL       21
REMARK 921   NORMALIZED FREE ENERGY PREDICTED BY IDOCK:   -7.35 KCAL/MOL
REMARK 922        TOTAL FREE ENERGY PREDICTED BY IDOCK:  -10.90 KCAL/MOL
REMARK 923 INTER-LIGAND FREE ENERGY PREDICTED BY IDOCK:  -10.12 KCAL/MOL
REMARK 924 INTRA-LIGAND FREE ENERGY PREDICTED BY IDOCK:   -0.78 KCAL/MOL
REMARK 927      BINDING AFFINITY PREDICTED BY RF-SCORE:    0.00 PKD
ROOT
HETATM    1  C   UNL     1     -10.592   5.971  71.389  1.00  0.00    -0.246 C  
HETATM    2  C   UNL     1     -11.592   5.915  72.530  1.00  0.00    -0.327 C  
HETATM    3  O   UNL     1     -10.214   4.029  72.750  1.00  0.00    -0.153 OA 
HETATM    4  C   UNL     1     -10.915   5.008  73.523  1.00  0.00    -0.328 C  
HETATM    5  C   UNL     1     -10.018   4.557  71.424  1.00  0.00    -0.189 C  
ENDROOT
BRANCH   1   6
HETATM    6  O   UNL     1     -11.313   6.269  70.198  1.00  0.00    -0.372 OA 
BRANCH   6   7
HETATM    7  C   UNL     1     -10.678   6.944  69.197  1.00  0.00    -0.234 A  
HETATM    8  C   UNL     1      -9.105   8.516  68.240  1.00  0.00    -0.138 A  
HETATM    9  C   UNL     1      -9.764   7.981  69.360  1.00  0.00    -0.170 A  
HETATM   10  C   UNL     1      -9.352   8.023  66.948  1.00  0.00    -0.209 A  
HETATM   11  C   UNL     1     -10.940   6.461  67.914  1.00  0.00    -0.416 A  
HETATM   12  C   UNL     1     -10.293   6.999  66.798  1.00  0.00    -0.291 A  
BRANCH  10  13
HETATM   13  C   UNL     1      -8.564   8.522  65.748  1.00  0.00    -0.190 C  
BRANCH  13  14
HETATM   14  C   UNL     1      -9.313   9.579  64.960  1.00  0.00    -0.294 A  
HETATM   15  C   UNL     1      -9.088   9.847  63.603  1.00  0.00    -0.259 A  
HETATM   16 CL   UNL     1      -8.005   8.908  62.640  1.00  0.00    -0.137 Cl 
HETATM   17  C   UNL     1      -9.720  10.929  62.981  1.00  0.00    -0.380 A  
HETATM   18  C   UNL     1     -10.519  11.801  63.724  1.00  0.00    -0.466 A  
HETATM   19  C   UNL     1     -10.722  11.589  65.093  1.00  0.00    -0.348 A  
HETATM   20  C   UNL     1     -10.185  10.426  65.670  1.00  0.00    -0.308 A  
BRANCH  19  21
HETATM   21  C   UNL     1     -11.309  12.696  65.958  1.00  0.00    -0.327 C  
HETATM   22  O   UNL     1     -10.707  13.943  65.560  1.00  0.00    -0.284 OA 
HETATM   23  C   UNL     1     -11.369  15.087  66.109  1.00  0.00    -0.270 C  
HETATM   24  H   UNL     1     -11.853  11.198  68.842  1.00  0.00     0.000 HD 
HETATM   25  C   UNL     1     -11.258  15.059  67.632  1.00  0.00    -0.326 C  
HETATM   26  O   UNL     1     -11.907  11.315  67.900  1.00  0.00    -0.597 OA 
HETATM   27  C   UNL     1     -11.848  13.747  68.169  1.00  0.00    -0.376 C  
HETATM   28  O   UNL     1     -11.936  16.159  68.249  1.00  0.00    -0.237 OA 
HETATM   29  H   UNL     1     -12.045  12.886  69.922  1.00  0.00     0.000 HD 
HETATM   30  C   UNL     1     -11.221  12.507  67.491  1.00  0.00    -0.291 C  
HETATM   31  H   UNL     1     -11.868  16.142  69.196  1.00  0.00     0.000 HD 
HETATM   32  O   UNL     1     -11.680  13.698  69.591  1.00  0.00    -0.291 OA 
BRANCH  23  33
HETATM   33  C   UNL     1     -10.717  16.338  65.512  1.00  0.00    -0.313 C  
HETATM   34  O   UNL     1     -11.219  16.548  64.184  1.00  0.00    -1.355 OA 
HETATM   35  H   UNL     1     -10.814  17.324  63.813  1.00  0.00     0.000 HD 
ENDBRANCH  23  33
ENDBRANCH  19  21
ENDBRANCH  13  14
ENDBRANCH  10  13
ENDBRANCH   6   7
ENDBRANCH   1   6
TORSDOF 6
ENDMDL
MODEL       22
REMARK 921   NORMALIZED FREE ENERGY PREDICTED BY IDOCK:   -7.32 KCAL/MOL
REMARK 922        TOTAL FREE ENERGY PREDICTED BY IDOCK:  -10.86 KCAL/MOL
REMARK 923 INTER-LIGAND FREE ENERGY PREDICTED BY IDOCK:   -9.70 KCAL/MOL
REMARK 924 INTRA-LIGAND FREE ENERGY PREDICTED BY IDOCK:   -1.16 KCAL/MOL
REMARK 927      BINDING AFFINITY PREDICTED BY RF-SCORE:    0.00 PKD
ROOT
HETATM    1  C   UNL     1     -10.951   9.039  71.490  1.00  0.00    -0.348 C  
HETATM    2  C   UNL     1     -11.911   9.939  70.732  1.00  0.00    -0.415 C  
HETATM    3  O   UNL     1     -13.061   9.176  72.630  1.00  0.00    -0.415 OA 
HETATM    4  C   UNL     1     -12.912  10.324  71.788  1.00  0.00    -0.469 C  
HETATM    5  C   UNL     1     -11.900   8.341  72.461  1.00  0.00    -0.373 C  
ENDROOT
BRANCH   1   6
HETATM    6  O   UNL     1     -10.347   8.160  70.546  1.00  0.00    -0.198 OA 
BRANCH   6   7
HETATM    7  C   UNL     1      -9.969   8.657  69.334  1.00  0.00    -0.197 A  
HETATM    8  C   UNL     1     -10.157   9.070  66.956  1.00  0.00    -0.318 A  
HETATM    9  C   UNL     1     -10.591   8.404  68.115  1.00  0.00    -0.175 A  
HETATM   10  C   UNL     1      -9.099   9.994  67.002  1.00  0.00    -0.159 A  
HETATM   11  C   UNL     1      -8.907   9.561  69.383  1.00  0.00    -0.172 A  
HETATM   12  C   UNL     1      -8.468  10.217  68.229  1.00  0.00    -0.121 A  
BRANCH  10  13
HETATM   13  C   UNL     1      -8.699  10.796  65.775  1.00  0.00    -0.194 C  
BRANCH  13  14
HETATM   14  C   UNL     1      -9.786  11.755  65.328  1.00  0.00    -0.236 A  
HETATM   15  C   UNL     1     -10.271  11.828  64.015  1.00  0.00    -0.348 A  
HETATM   16 CL   UNL     1      -9.763  10.737  62.777  1.00  0.00    -0.317 Cl 
HETATM   17  C   UNL     1     -11.174  12.832  63.650  1.00  0.00    -0.482 A  
HETATM   18  C   UNL     1     -11.542  13.818  64.568  1.00  0.00    -0.413 A  
HETATM   19  C   UNL     1     -11.033  13.801  65.872  1.00  0.00    -0.283 A  
HETATM   20  C   UNL     1     -10.231  12.714  66.256  1.00  0.00    -0.264 A  
BRANCH  19  21
HETATM   21  C   UNL     1     -11.166  15.032  66.759  1.00  0.00    -0.322 C  
HETATM   22  O   UNL     1     -10.133  15.966  66.388  1.00  0.00    -0.263 OA 
HETATM   23  C   UNL     1     -10.320  17.265  66.959  1.00  0.00    -0.318 C  
HETATM   24  H   UNL     1     -12.266  13.798  69.609  1.00  0.00     0.000 HD 
HETATM   25  C   UNL     1     -10.243  17.169  68.483  1.00  0.00    -0.346 C  
HETATM   26  O   UNL     1     -12.262  13.944  68.670  1.00  0.00    -0.345 OA 
HETATM   27  C   UNL     1     -11.291  16.167  68.990  1.00  0.00    -0.340 C  
HETATM   28  O   UNL     1     -10.460  18.432  69.120  1.00  0.00    -0.447 OA 
HETATM   29  H   UNL     1     -11.815  15.412  70.725  1.00  0.00     0.000 HD 
HETATM   30  C   UNL     1     -11.172  14.796  68.287  1.00  0.00    -0.286 C  
HETATM   31  H   UNL     1     -10.413  18.372  70.068  1.00  0.00     0.000 HD 
HETATM   32  O   UNL     1     -11.167  16.032  70.411  1.00  0.00    -0.342 OA 
BRANCH  23  33
HETATM   33  C   UNL     1      -9.236  18.187  66.390  1.00  0.00    -0.255 C  
HETATM   34  O   UNL     1      -8.193  17.392  65.808  1.00  0.00    -0.540 OA 
HETATM   35  H   UNL     1      -7.522  17.963  65.454  1.00  0.00     0.000 HD 
ENDBRANCH  23  33
ENDBRANCH  19  21
ENDBRANCH  13  14
ENDBRANCH  10  13
ENDBRANCH   6   7
ENDBRANCH   1   6
TORSDOF 6
ENDMDL
MODEL       23
REMARK 921   NORMALIZED FREE ENERGY PREDICTED BY IDOCK:   -7.31 KCAL/MOL
REMARK 922        TOTAL FREE ENERGY PREDICTED BY IDOCK:  -10.84 KCAL/MOL
REMARK 923 INTER-LIGAND FREE ENERGY PREDICTED BY IDOCK:   -9.79 KCAL/MOL
REMARK 924 INTRA-LIGAND FREE ENERGY PREDICTED BY IDOCK:   -1.05 KCAL/MOL
REMARK 927      BINDING AFFINITY PREDICTED BY RF-SCORE:    0.00 PKD
ROOT
HETATM    1  C   UNL     1     -10.283   4.562  72.890  1.00  0.00    -0.174 C  
HETATM    2  C   UNL     1     -10.580   4.125  74.313  1.00  0.00    -0.287 C  
HETATM    3  O   UNL     1      -9.646   2.271  73.221  1.00  0.00    -0.082 OA 
HETATM    4  C   UNL     1      -9.682   2.931  74.490  1.00  0.00    -0.105 C  
HETATM    5  C   UNL     1     -10.037   3.218  72.209  1.00  0.00    -0.145 C  
ENDROOT
BRANCH   1   6
HETATM    6  O   UNL     1     -11.429   5.252  72.401  1.00  0.00    -0.187 OA 
BRANCH   6   7
HETATM    7  C   UNL     1     -11.255   6.437  71.749  1.00  0.00    -0.277 A  
HETATM    8  C   UNL     1     -11.155   7.914  69.834  1.00  0.00    -0.123 A  
HETATM    9  C   UNL     1     -11.238   6.618  70.369  1.00  0.00    -0.398 A  
HETATM   10  C   UNL     1     -11.087   9.042  70.670  1.00  0.00    -0.314 A  
HETATM   11  C   UNL     1     -11.171   7.552  72.584  1.00  0.00    -0.399 A  
HETATM   12  C   UNL     1     -11.079   8.841  72.054  1.00  0.00    -0.441 A  
BRANCH  10  13
HETATM   13  C   UNL     1     -11.108  10.450  70.098  1.00  0.00    -0.383 C  
BRANCH  13  14
HETATM   14  C   UNL     1     -10.112  10.633  68.969  1.00  0.00    -0.226 A  
HETATM   15  C   UNL     1      -8.749  10.324  69.072  1.00  0.00    -0.163 A  
HETATM   16 CL   UNL     1      -8.071   9.581  70.475  1.00  0.00    -0.209 Cl 
HETATM   17  C   UNL     1      -7.869  10.651  68.034  1.00  0.00    -0.105 A  
HETATM   18  C   UNL     1      -8.326  11.357  66.919  1.00  0.00    -0.159 A  
HETATM   19  C   UNL     1      -9.672  11.724  66.811  1.00  0.00    -0.213 A  
HETATM   20  C   UNL     1     -10.562  11.275  67.800  1.00  0.00    -0.239 A  
BRANCH  19  21
HETATM   21  C   UNL     1     -10.100  12.759  65.779  1.00  0.00    -0.286 C  
HETATM   22  O   UNL     1     -10.332  14.006  66.462  1.00  0.00    -0.276 OA 
HETATM   23  C   UNL     1     -10.475  15.116  65.571  1.00  0.00    -0.379 C  
HETATM   24  H   UNL     1     -11.774  10.977  63.569  1.00  0.00     0.000 HD 
HETATM   25  C   UNL     1     -11.707  14.909  64.691  1.00  0.00    -0.404 C  
HETATM   26  O   UNL     1     -11.035  11.203  64.122  1.00  0.00    -0.358 OA 
HETATM   27  C   UNL     1     -11.581  13.581  63.930  1.00  0.00    -0.306 C  
HETATM   28  O   UNL     1     -11.887  15.969  63.746  1.00  0.00    -1.334 OA 
HETATM   29  H   UNL     1     -12.690  12.539  62.690  1.00  0.00     0.000 HD 
HETATM   30  C   UNL     1     -11.304  12.392  64.879  1.00  0.00    -0.317 C  
HETATM   31  H   UNL     1     -12.653  15.840  63.199  1.00  0.00     0.000 HD 
HETATM   32  O   UNL     1     -12.769  13.361  63.160  1.00  0.00    -0.663 OA 
BRANCH  23  33
HETATM   33  C   UNL     1     -10.588  16.387  66.420  1.00  0.00    -0.236 C  
HETATM   34  O   UNL     1     -10.394  17.536  65.583  1.00  0.00    -0.601 OA 
HETATM   35  H   UNL     1     -10.463  18.324  66.109  1.00  0.00     0.000 HD 
ENDBRANCH  23  33
ENDBRANCH  19  21
ENDBRANCH  13  14
ENDBRANCH  10  13
ENDBRANCH   6   7
ENDBRANCH   1   6
TORSDOF 6
ENDMDL
MODEL       24
REMARK 921   NORMALIZED FREE ENERGY PREDICTED BY IDOCK:   -7.27 KCAL/MOL
REMARK 922        TOTAL FREE ENERGY PREDICTED BY IDOCK:  -10.78 KCAL/MOL
REMARK 923 INTER-LIGAND FREE ENERGY PREDICTED BY IDOCK:   -9.24 KCAL/MOL
REMARK 924 INTRA-LIGAND FREE ENERGY PREDICTED BY IDOCK:   -1.54 KCAL/MOL
REMARK 927      BINDING AFFINITY PREDICTED BY RF-SCORE:    0.00 PKD
ROOT
HETATM    1  C   UNL     1      -8.807  18.404  67.549  1.00  0.00    -0.261 C  
HETATM    2  C   UNL     1      -9.098  19.888  67.421  1.00  0.00    -0.436 C  
HETATM    3  O   UNL     1      -6.888  19.700  68.186  1.00  0.00    -0.261 OA 
HETATM    4  C   UNL     1      -7.722  20.493  67.335  1.00  0.00    -0.324 C  
HETATM    5  C   UNL     1      -7.523  18.421  68.374  1.00  0.00    -0.286 C  
ENDROOT
BRANCH   1   6
HETATM    6  O   UNL     1      -9.911  17.803  68.217  1.00  0.00    -0.314 OA 
BRANCH   6   7
HETATM    7  C   UNL     1     -10.524  16.729  67.641  1.00  0.00    -0.328 A  
HETATM    8  C   UNL     1     -11.034  15.163  65.867  1.00  0.00    -0.339 A  
HETATM    9  C   UNL     1     -10.434  16.357  66.303  1.00  0.00    -0.298 A  
HETATM   10  C   UNL     1     -11.728  14.330  66.762  1.00  0.00    -0.424 A  
HETATM   11  C   UNL     1     -11.225  15.915  68.530  1.00  0.00    -0.362 A  
HETATM   12  C   UNL     1     -11.831  14.732  68.097  1.00  0.00    -0.318 A  
BRANCH  10  13
HETATM   13  C   UNL     1     -12.284  12.986  66.319  1.00  0.00    -0.390 C  
BRANCH  13  14
HETATM   14  C   UNL     1     -11.193  12.007  65.930  1.00  0.00    -0.385 A  
HETATM   15  C   UNL     1     -10.908  11.642  64.607  1.00  0.00    -0.314 A  
HETATM   16 CL   UNL     1     -11.698  12.368  63.254  1.00  0.00    -0.511 Cl 
HETATM   17  C   UNL     1      -9.982  10.629  64.337  1.00  0.00    -0.415 A  
HETATM   18  C   UNL     1      -9.389   9.917  65.383  1.00  0.00    -0.297 A  
HETATM   19  C   UNL     1      -9.693  10.225  66.715  1.00  0.00    -0.231 A  
HETATM   20  C   UNL     1     -10.525  11.329  66.966  1.00  0.00    -0.272 A  
BRANCH  19  21
HETATM   21  C   UNL     1      -9.313   9.257  67.827  1.00  0.00    -0.128 C  
HETATM   22  O   UNL     1     -10.447   8.407  68.089  1.00  0.00    -0.212 OA 
HETATM   23  C   UNL     1     -10.128   7.286  68.919  1.00  0.00    -0.180 C  
HETATM   24  H   UNL     1      -7.255  11.023  69.698  1.00  0.00     0.000 HD 
HETATM   25  C   UNL     1      -9.674   7.780  70.292  1.00  0.00    -0.179 C  
HETATM   26  O   UNL     1      -7.586  10.643  68.893  1.00  0.00    -0.095 OA 
HETATM   27  C   UNL     1      -8.477   8.728  70.130  1.00  0.00    -0.137 C  
HETATM   28  O   UNL     1      -9.301   6.706  71.162  1.00  0.00    -0.162 OA 
HETATM   29  H   UNL     1      -7.360   9.826  71.314  1.00  0.00     0.000 HD 
HETATM   30  C   UNL     1      -8.774   9.876  69.138  1.00  0.00    -0.159 C  
HETATM   31  H   UNL     1      -9.019   7.013  72.016  1.00  0.00     0.000 HD 
HETATM   32  O   UNL     1      -8.100   9.240  71.414  1.00  0.00    -0.330 OA 
BRANCH  23  33
HETATM   33  C   UNL     1     -11.376   6.403  69.014  1.00  0.00    -0.255 C  
HETATM   34  O   UNL     1     -12.181   6.835  70.121  1.00  0.00    -0.634 OA 
HETATM   35  H   UNL     1     -12.956   6.288  70.180  1.00  0.00     0.000 HD 
ENDBRANCH  23  33
ENDBRANCH  19  21
ENDBRANCH  13  14
ENDBRANCH  10  13
ENDBRANCH   6   7
ENDBRANCH   1   6
TORSDOF 6
ENDMDL
MODEL       25
REMARK 921   NORMALIZED FREE ENERGY PREDICTED BY IDOCK:   -7.26 KCAL/MOL
REMARK 922        TOTAL FREE ENERGY PREDICTED BY IDOCK:  -10.77 KCAL/MOL
REMARK 923 INTER-LIGAND FREE ENERGY PREDICTED BY IDOCK:   -9.75 KCAL/MOL
REMARK 924 INTRA-LIGAND FREE ENERGY PREDICTED BY IDOCK:   -1.02 KCAL/MOL
REMARK 927      BINDING AFFINITY PREDICTED BY RF-SCORE:    0.00 PKD
ROOT
HETATM    1  C   UNL     1      -6.654  18.369  68.140  1.00  0.00    -0.216 C  
HETATM    2  C   UNL     1      -5.759  19.023  67.103  1.00  0.00    -0.166 C  
HETATM    3  O   UNL     1      -6.316  20.690  68.657  1.00  0.00    -0.312 OA 
HETATM    4  C   UNL     1      -5.243  20.238  67.826  1.00  0.00    -0.186 C  
HETATM    5  C   UNL     1      -7.226  19.591  68.855  1.00  0.00    -0.362 C  
ENDROOT
BRANCH   1   6
HETATM    6  O   UNL     1      -7.631  17.602  67.445  1.00  0.00    -0.193 OA 
BRANCH   6   7
HETATM    7  C   UNL     1      -8.742  17.186  68.119  1.00  0.00    -0.232 A  
HETATM    8  C   UNL     1     -11.109  17.030  68.600  1.00  0.00    -0.128 A  
HETATM    9  C   UNL     1     -10.044  17.624  67.901  1.00  0.00    -0.345 A  
HETATM   10  C   UNL     1     -10.885  15.993  69.522  1.00  0.00    -0.317 A  
HETATM   11  C   UNL     1      -8.511  16.168  69.046  1.00  0.00    -0.251 A  
HETATM   12  C   UNL     1      -9.567  15.582  69.748  1.00  0.00    -0.205 A  
BRANCH  10  13
HETATM   13  C   UNL     1     -12.040  15.274  70.197  1.00  0.00    -0.394 C  
BRANCH  13  14
HETATM   14  C   UNL     1     -12.160  13.827  69.758  1.00  0.00    -0.400 A  
HETATM   15  C   UNL     1     -12.397  12.761  70.637  1.00  0.00    -0.297 A  
HETATM   16 CL   UNL     1     -12.702  12.998  72.320  1.00  0.00    -0.154 Cl 
HETATM   17  C   UNL     1     -12.355  11.441  70.175  1.00  0.00    -0.344 A  
HETATM   18  C   UNL     1     -12.001  11.167  68.852  1.00  0.00    -0.367 A  
HETATM   19  C   UNL     1     -11.709  12.209  67.963  1.00  0.00    -0.409 A  
HETATM   20  C   UNL     1     -11.882  13.529  68.411  1.00  0.00    -0.408 A  
BRANCH  19  21
HETATM   21  C   UNL     1     -11.015  11.911  66.641  1.00  0.00    -0.291 C  
HETATM   22  O   UNL     1     -11.975  12.090  65.581  1.00  0.00    -0.479 OA 
HETATM   23  C   UNL     1     -11.378  12.103  64.280  1.00  0.00    -0.360 C  
HETATM   24  H   UNL     1      -8.845   9.562  67.435  1.00  0.00     0.000 HD 
HETATM   25  C   UNL     1     -10.726  10.750  64.003  1.00  0.00     0.027 C  
HETATM   26  O   UNL     1      -9.281  10.403  67.511  1.00  0.00    -0.144 OA 
HETATM   27  C   UNL     1      -9.696  10.439  65.099  1.00  0.00    -0.291 C  
HETATM   28  O   UNL     1     -10.074  10.708  62.729  1.00  0.00    -0.689 OA 
HETATM   29  H   UNL     1      -8.501   8.947  65.549  1.00  0.00     0.000 HD 
HETATM   30  C   UNL     1     -10.306  10.542  66.516  1.00  0.00    -0.233 C  
HETATM   31  H   UNL     1      -9.669   9.866  62.557  1.00  0.00     0.000 HD 
HETATM   32  O   UNL     1      -9.138   9.139  64.871  1.00  0.00    -0.210 OA 
BRANCH  23  33
HETATM   33  C   UNL     1     -12.478  12.426  63.263  1.00  0.00    -0.337 C  
HETATM   34  O   UNL     1     -12.566  13.848  63.093  1.00  0.00    -1.057 OA 
HETATM   35  H   UNL     1     -13.248  14.048  62.463  1.00  0.00     0.000 HD 
ENDBRANCH  23  33
ENDBRANCH  19  21
ENDBRANCH  13  14
ENDBRANCH  10  13
ENDBRANCH   6   7
ENDBRANCH   1   6
TORSDOF 6
ENDMDL
MODEL       26
REMARK 921   NORMALIZED FREE ENERGY PREDICTED BY IDOCK:   -7.23 KCAL/MOL
REMARK 922        TOTAL FREE ENERGY PREDICTED BY IDOCK:  -10.73 KCAL/MOL
REMARK 923 INTER-LIGAND FREE ENERGY PREDICTED BY IDOCK:   -9.34 KCAL/MOL
REMARK 924 INTRA-LIGAND FREE ENERGY PREDICTED BY IDOCK:   -1.38 KCAL/MOL
REMARK 927      BINDING AFFINITY PREDICTED BY RF-SCORE:    0.00 PKD
ROOT
HETATM    1  C   UNL     1     -12.024  15.299  71.886  1.00  0.00    -0.401 C  
HETATM    2  C   UNL     1     -12.278  16.327  72.974  1.00  0.00    -0.619 C  
HETATM    3  O   UNL     1     -13.150  14.293  73.754  1.00  0.00    -0.276 OA 
HETATM    4  C   UNL     1     -12.477  15.475  74.199  1.00  0.00    -0.662 C  
HETATM    5  C   UNL     1     -12.930  14.156  72.337  1.00  0.00    -0.391 C  
ENDROOT
BRANCH   1   6
HETATM    6  O   UNL     1     -12.408  15.879  70.644  1.00  0.00    -0.395 OA 
BRANCH   6   7
HETATM    7  C   UNL     1     -11.729  15.526  69.516  1.00  0.00    -0.365 A  
HETATM    8  C   UNL     1     -11.176  14.140  67.609  1.00  0.00    -0.315 A  
HETATM    9  C   UNL     1     -11.864  14.328  68.821  1.00  0.00    -0.377 A  
HETATM   10  C   UNL     1     -10.348  15.145  67.080  1.00  0.00    -0.263 A  
HETATM   11  C   UNL     1     -10.895  16.521  69.004  1.00  0.00    -0.329 A  
HETATM   12  C   UNL     1     -10.204  16.333  67.805  1.00  0.00    -0.270 A  
BRANCH  10  13
HETATM   13  C   UNL     1      -9.691  14.990  65.719  1.00  0.00    -0.375 C  
BRANCH  13  14
HETATM   14  C   UNL     1     -10.335  13.902  64.883  1.00  0.00    -0.430 A  
HETATM   15  C   UNL     1     -11.556  14.053  64.211  1.00  0.00    -0.329 A  
HETATM   16 CL   UNL     1     -12.408  15.555  64.163  1.00  0.00    -0.172 Cl 
HETATM   17  C   UNL     1     -12.154  12.960  63.575  1.00  0.00    -0.633 A  
HETATM   18  C   UNL     1     -11.581  11.689  63.670  1.00  0.00    -0.435 A  
HETATM   19  C   UNL     1     -10.389  11.497  64.378  1.00  0.00    -0.364 A  
HETATM   20  C   UNL     1      -9.738  12.627  64.898  1.00  0.00     0.033 A  
BRANCH  19  21
HETATM   21  C   UNL     1      -9.945  10.090  64.756  1.00  0.00    -0.178 C  
HETATM   22  O   UNL     1     -10.060   9.953  66.186  1.00  0.00    -0.250 OA 
HETATM   23  C   UNL     1      -9.931   8.598  66.631  1.00  0.00    -0.287 C  
HETATM   24  H   UNL     1      -7.602   9.413  62.540  1.00  0.00     0.000 HD 
HETATM   25  C   UNL     1      -8.534   8.080  66.292  1.00  0.00    -0.133 C  
HETATM   26  O   UNL     1      -8.462   9.687  62.838  1.00  0.00    -0.152 OA 
HETATM   27  C   UNL     1      -8.289   8.208  64.781  1.00  0.00    -0.104 C  
HETATM   28  O   UNL     1      -8.352   6.713  66.677  1.00  0.00    -0.112 OA 
HETATM   29  H   UNL     1      -6.803   7.863  63.545  1.00  0.00     0.000 HD 
HETATM   30  C   UNL     1      -8.545   9.645  64.271  1.00  0.00    -0.191 C  
HETATM   31  H   UNL     1      -7.483   6.390  66.465  1.00  0.00     0.000 HD 
HETATM   32  O   UNL     1      -6.955   7.783  64.480  1.00  0.00    -0.057 OA 
BRANCH  23  33
HETATM   33  C   UNL     1     -10.197   8.574  68.140  1.00  0.00    -0.208 C  
HETATM   34  O   UNL     1     -10.673   7.274  68.518  1.00  0.00    -0.305 OA 
HETATM   35  H   UNL     1     -10.839   7.259  69.453  1.00  0.00     0.000 HD 
ENDBRANCH  23  33
ENDBRANCH  19  21
ENDBRANCH  13  14
ENDBRANCH  10  13
ENDBRANCH   6   7
ENDBRANCH   1   6
TORSDOF 6
ENDMDL
MODEL       27
REMARK 921   NORMALIZED FREE ENERGY PREDICTED BY IDOCK:   -7.18 KCAL/MOL
REMARK 922        TOTAL FREE ENERGY PREDICTED BY IDOCK:  -10.66 KCAL/MOL
REMARK 923 INTER-LIGAND FREE ENERGY PREDICTED BY IDOCK:   -9.51 KCAL/MOL
REMARK 924 INTRA-LIGAND FREE ENERGY PREDICTED BY IDOCK:   -1.16 KCAL/MOL
REMARK 927      BINDING AFFINITY PREDICTED BY RF-SCORE:    0.00 PKD
ROOT
HETATM    1  C   UNL     1      -9.628  18.264  67.617  1.00  0.00    -0.282 C  
HETATM    2  C   UNL     1     -10.353  19.572  67.358  1.00  0.00    -0.572 C  
HETATM    3  O   UNL     1      -8.179  20.132  68.038  1.00  0.00    -0.262 OA 
HETATM    4  C   UNL     1      -9.223  20.545  67.152  1.00  0.00    -0.351 C  
HETATM    5  C   UNL     1      -8.397  18.750  68.379  1.00  0.00    -0.342 C  
ENDROOT
BRANCH   1   6
HETATM    6  O   UNL     1     -10.491  17.437  68.390  1.00  0.00    -0.357 OA 
BRANCH   6   7
HETATM    7  C   UNL     1     -10.805  16.195  67.921  1.00  0.00    -0.332 A  
HETATM    8  C   UNL     1     -11.789  13.985  67.998  1.00  0.00    -0.403 A  
HETATM    9  C   UNL     1     -11.431  15.182  68.641  1.00  0.00    -0.341 A  
HETATM   10  C   UNL     1     -11.526  13.787  66.631  1.00  0.00    -0.362 A  
HETATM   11  C   UNL     1     -10.526  15.998  66.568  1.00  0.00    -0.303 A  
HETATM   12  C   UNL     1     -10.873  14.805  65.929  1.00  0.00    -0.331 A  
BRANCH  10  13
HETATM   13  C   UNL     1     -12.009  12.541  65.907  1.00  0.00    -0.472 C  
BRANCH  13  14
HETATM   14  C   UNL     1     -10.999  11.411  65.959  1.00  0.00    -0.286 A  
HETATM   15  C   UNL     1     -10.182  11.044  64.881  1.00  0.00    -0.311 A  
HETATM   16 CL   UNL     1     -10.152  11.926  63.398  1.00  0.00    -0.454 Cl 
HETATM   17  C   UNL     1      -9.376   9.903  64.962  1.00  0.00    -0.323 A  
HETATM   18  C   UNL     1      -9.435   9.075  66.086  1.00  0.00    -0.318 A  
HETATM   19  C   UNL     1     -10.280   9.389  67.157  1.00  0.00    -0.319 A  
HETATM   20  C   UNL     1     -10.982  10.604  67.112  1.00  0.00    -0.312 A  
BRANCH  19  21
HETATM   21  C   UNL     1     -10.589   8.341  68.217  1.00  0.00    -0.103 C  
HETATM   22  O   UNL     1      -9.974   8.756  69.452  1.00  0.00    -0.186 OA 
HETATM   23  C   UNL     1     -10.416   7.998  70.582  1.00  0.00    -0.210 C  
HETATM   24  H   UNL     1     -10.677   5.530  66.500  1.00  0.00     0.000 HD 
HETATM   25  C   UNL     1     -10.008   6.535  70.407  1.00  0.00    -0.179 C  
HETATM   26  O   UNL     1     -10.905   6.429  66.706  1.00  0.00    -0.326 OA 
HETATM   27  C   UNL     1     -10.589   5.992  69.093  1.00  0.00    -0.295 C  
HETATM   28  O   UNL     1     -10.455   5.711  71.488  1.00  0.00    -0.223 OA 
HETATM   29  H   UNL     1     -10.507   4.307  68.090  1.00  0.00     0.000 HD 
HETATM   30  C   UNL     1     -10.216   6.877  67.882  1.00  0.00    -0.174 C  
HETATM   31  H   UNL     1     -10.202   4.802  71.379  1.00  0.00     0.000 HD 
HETATM   32  O   UNL     1     -10.148   4.642  68.902  1.00  0.00    -0.139 OA 
BRANCH  23  33
HETATM   33  C   UNL     1      -9.791   8.618  71.837  1.00  0.00    -0.314 C  
HETATM   34  O   UNL     1     -10.517   8.181  72.995  1.00  0.00    -0.325 OA 
HETATM   35  H   UNL     1     -10.130   8.566  73.773  1.00  0.00     0.000 HD 
ENDBRANCH  23  33
ENDBRANCH  19  21
ENDBRANCH  13  14
ENDBRANCH  10  13
ENDBRANCH   6   7
ENDBRANCH   1   6
TORSDOF 6
ENDMDL
MODEL       28
REMARK 921   NORMALIZED FREE ENERGY PREDICTED BY IDOCK:   -7.18 KCAL/MOL
REMARK 922        TOTAL FREE ENERGY PREDICTED BY IDOCK:  -10.66 KCAL/MOL
REMARK 923 INTER-LIGAND FREE ENERGY PREDICTED BY IDOCK:   -9.77 KCAL/MOL
REMARK 924 INTRA-LIGAND FREE ENERGY PREDICTED BY IDOCK:   -0.89 KCAL/MOL
REMARK 927      BINDING AFFINITY PREDICTED BY RF-SCORE:    0.00 PKD
ROOT
HETATM    1  C   UNL     1     -11.029   8.254  71.088  1.00  0.00    -0.245 C  
HETATM    2  C   UNL     1     -10.541   8.113  72.519  1.00  0.00    -0.411 C  
HETATM    3  O   UNL     1     -12.146   6.434  72.187  1.00  0.00    -0.326 OA 
HETATM    4  C   UNL     1     -10.910   6.694  72.859  1.00  0.00    -0.262 C  
HETATM    5  C   UNL     1     -12.282   7.383  71.112  1.00  0.00    -0.324 C  
ENDROOT
BRANCH   1   6
HETATM    6  O   UNL     1     -11.293   9.633  70.855  1.00  0.00    -0.300 OA 
BRANCH   6   7
HETATM    7  C   UNL     1     -11.185  10.118  69.585  1.00  0.00    -0.261 A  
HETATM    8  C   UNL     1     -11.595  11.656  67.762  1.00  0.00    -0.359 A  
HETATM    9  C   UNL     1     -11.885  11.199  69.059  1.00  0.00    -0.418 A  
HETATM   10  C   UNL     1     -10.606  11.039  66.978  1.00  0.00    -0.303 A  
HETATM   11  C   UNL     1     -10.212   9.490  68.805  1.00  0.00    -0.215 A  
HETATM   12  C   UNL     1      -9.930   9.937  67.512  1.00  0.00    -0.229 A  
BRANCH  10  13
HETATM   13  C   UNL     1     -10.213  11.596  65.619  1.00  0.00    -0.284 C  
BRANCH  13  14
HETATM   14  C   UNL     1     -10.751  12.995  65.388  1.00  0.00    -0.309 A  
HETATM   15  C   UNL     1     -11.776  13.298  64.482  1.00  0.00    -0.378 A  
HETATM   16 CL   UNL     1     -12.630  12.078  63.607  1.00  0.00    -0.640 Cl 
HETATM   17  C   UNL     1     -12.122  14.628  64.223  1.00  0.00    -0.437 A  
HETATM   18  C   UNL     1     -11.398  15.672  64.806  1.00  0.00    -0.348 A  
HETATM   19  C   UNL     1     -10.335  15.400  65.676  1.00  0.00    -0.395 A  
HETATM   20  C   UNL     1     -10.088  14.062  66.023  1.00  0.00    -0.327 A  
BRANCH  19  21
HETATM   21  C   UNL     1      -9.353  16.504  66.047  1.00  0.00    -0.267 C  
HETATM   22  O   UNL     1      -8.480  16.000  67.076  1.00  0.00    -0.180 OA 
HETATM   23  C   UNL     1      -7.349  16.843  67.315  1.00  0.00    -0.169 C  
HETATM   24  H   UNL     1     -11.117  19.257  65.642  1.00  0.00     0.000 HD 
HETATM   25  C   UNL     1      -7.824  18.203  67.826  1.00  0.00    -0.235 C  
HETATM   26  O   UNL     1     -10.747  18.419  65.392  1.00  0.00    -0.594 OA 
HETATM   27  C   UNL     1      -8.795  18.825  66.811  1.00  0.00    -0.305 C  
HETATM   28  O   UNL     1      -6.740  19.111  68.049  1.00  0.00    -0.228 OA 
HETATM   29  H   UNL     1      -9.888  20.451  66.699  1.00  0.00     0.000 HD 
HETATM   30  C   UNL     1      -9.956  17.868  66.455  1.00  0.00    -0.357 C  
HETATM   31  H   UNL     1      -7.036  19.956  68.366  1.00  0.00     0.000 HD 
HETATM   32  O   UNL     1      -9.288  20.067  67.327  1.00  0.00    -0.334 OA 
BRANCH  23  33
HETATM   33  C   UNL     1      -6.443  16.137  68.330  1.00  0.00    -0.119 C  
HETATM   34  O   UNL     1      -6.807  16.546  69.657  1.00  0.00    -0.215 OA 
HETATM   35  H   UNL     1      -6.246  16.109  70.286  1.00  0.00     0.000 HD 
ENDBRANCH  23  33
ENDBRANCH  19  21
ENDBRANCH  13  14
ENDBRANCH  10  13
ENDBRANCH   6   7
ENDBRANCH   1   6
TORSDOF 6
ENDMDL
MODEL       29
REMARK 921   NORMALIZED FREE ENERGY PREDICTED BY IDOCK:   -7.16 KCAL/MOL
REMARK 922        TOTAL FREE ENERGY PREDICTED BY IDOCK:  -10.63 KCAL/MOL
REMARK 923 INTER-LIGAND FREE ENERGY PREDICTED BY IDOCK:   -9.67 KCAL/MOL
REMARK 924 INTRA-LIGAND FREE ENERGY PREDICTED BY IDOCK:   -0.96 KCAL/MOL
REMARK 927      BINDING AFFINITY PREDICTED BY RF-SCORE:    0.00 PKD
ROOT
HETATM    1  C   UNL     1      -8.079   5.914  73.228  1.00  0.00    -0.116 C  
HETATM    2  C   UNL     1      -7.024   5.476  72.229  1.00  0.00    -0.081 C  
HETATM    3  O   UNL     1      -6.464   4.481  74.279  1.00  0.00    -0.053 OA 
HETATM    4  C   UNL     1      -6.451   4.239  72.869  1.00  0.00    -0.036 C  
HETATM    5  C   UNL     1      -7.423   5.521  74.549  1.00  0.00    -0.084 C  
ENDROOT
BRANCH   1   6
HETATM    6  O   UNL     1      -8.264   7.318  73.074  1.00  0.00    -0.105 OA 
BRANCH   6   7
HETATM    7  C   UNL     1      -9.155   7.765  72.144  1.00  0.00    -0.144 A  
HETATM    8  C   UNL     1     -11.287   7.889  71.003  1.00  0.00    -0.292 A  
HETATM    9  C   UNL     1     -10.434   7.260  71.926  1.00  0.00    -0.224 A  
HETATM   10  C   UNL     1     -10.873   9.027  70.289  1.00  0.00    -0.269 A  
HETATM   11  C   UNL     1      -8.733   8.885  71.426  1.00  0.00    -0.262 A  
HETATM   12  C   UNL     1      -9.576   9.506  70.501  1.00  0.00    -0.312 A  
BRANCH  10  13
HETATM   13  C   UNL     1     -11.827   9.774  69.373  1.00  0.00     0.270 C  
BRANCH  13  14
HETATM   14  C   UNL     1     -11.925  11.249  69.714  1.00  0.00    -0.431 A  
HETATM   15  C   UNL     1     -12.461  11.738  70.913  1.00  0.00    -0.318 A  
HETATM   16 CL   UNL     1     -12.964  10.699  72.197  1.00  0.00    -0.456 Cl 
HETATM   17  C   UNL     1     -12.645  13.113  71.096  1.00  0.00    -0.403 A  
HETATM   18  C   UNL     1     -12.370  14.006  70.057  1.00  0.00    -0.397 A  
HETATM   19  C   UNL     1     -11.881  13.542  68.831  1.00  0.00    -0.384 A  
HETATM   20  C   UNL     1     -11.582  12.175  68.711  1.00  0.00    -0.380 A  
BRANCH  19  21
HETATM   21  C   UNL     1     -11.892  14.453  67.611  1.00  0.00    -0.378 C  
HETATM   22  O   UNL     1     -12.050  13.632  66.438  1.00  0.00    -0.403 OA 
HETATM   23  C   UNL     1     -12.345  14.388  65.259  1.00  0.00    -0.371 C  
HETATM   24  H   UNL     1      -9.861  16.899  68.475  1.00  0.00     0.000 HD 
HETATM   25  C   UNL     1     -11.174  15.316  64.941  1.00  0.00    -0.415 C  
HETATM   26  O   UNL     1     -10.596  16.306  68.574  1.00  0.00    -0.262 OA 
HETATM   27  C   UNL     1     -10.894  16.226  66.146  1.00  0.00    -0.105 C  
HETATM   28  O   UNL     1     -11.422  16.132  63.791  1.00  0.00    -1.323 OA 
HETATM   29  H   UNL     1      -9.581  17.609  66.611  1.00  0.00     0.000 HD 
HETATM   30  C   UNL     1     -10.695  15.419  67.449  1.00  0.00    -0.296 C  
HETATM   31  H   UNL     1     -10.693  16.709  63.593  1.00  0.00     0.000 HD 
HETATM   32  O   UNL     1      -9.754  17.046  65.866  1.00  0.00    -0.479 OA 
BRANCH  23  33
HETATM   33  C   UNL     1     -12.613  13.396  64.121  1.00  0.00    -0.135 C  
HETATM   34  O   UNL     1     -12.505  14.077  62.863  1.00  0.00    -1.028 OA 
HETATM   35  H   UNL     1     -12.672  13.463  62.157  1.00  0.00     0.000 HD 
ENDBRANCH  23  33
ENDBRANCH  19  21
ENDBRANCH  13  14
ENDBRANCH  10  13
ENDBRANCH   6   7
ENDBRANCH   1   6
TORSDOF 6
ENDMDL
MODEL       30
REMARK 921   NORMALIZED FREE ENERGY PREDICTED BY IDOCK:   -7.15 KCAL/MOL
REMARK 922        TOTAL FREE ENERGY PREDICTED BY IDOCK:  -10.63 KCAL/MOL
REMARK 923 INTER-LIGAND FREE ENERGY PREDICTED BY IDOCK:   -9.52 KCAL/MOL
REMARK 924 INTRA-LIGAND FREE ENERGY PREDICTED BY IDOCK:   -1.11 KCAL/MOL
REMARK 927      BINDING AFFINITY PREDICTED BY RF-SCORE:    0.00 PKD
ROOT
HETATM    1  C   UNL     1     -11.842   9.828  71.459  1.00  0.00    -0.399 C  
HETATM    2  C   UNL     1     -12.511   8.579  72.004  1.00  0.00    -0.417 C  
HETATM    3  O   UNL     1     -10.199   8.195  72.094  1.00  0.00    -0.217 OA 
HETATM    4  C   UNL     1     -11.413   7.932  72.804  1.00  0.00    -0.368 C  
HETATM    5  C   UNL     1     -10.417   9.329  71.233  1.00  0.00    -0.338 C  
ENDROOT
BRANCH   1   6
HETATM    6  O   UNL     1     -12.519  10.195  70.262  1.00  0.00    -0.214 OA 
BRANCH   6   7
HETATM    7  C   UNL     1     -11.897  11.035  69.386  1.00  0.00    -0.335 A  
HETATM    8  C   UNL     1     -10.932  13.122  68.630  1.00  0.00    -0.296 A  
HETATM    9  C   UNL     1     -11.683  12.398  69.571  1.00  0.00    -0.388 A  
HETATM   10  C   UNL     1     -10.387  12.494  67.496  1.00  0.00    -0.225 A  
HETATM   11  C   UNL     1     -11.373  10.409  68.254  1.00  0.00    -0.292 A  
HETATM   12  C   UNL     1     -10.634  11.130  67.312  1.00  0.00    -0.279 A  
BRANCH  10  13
HETATM   13  C   UNL     1      -9.484  13.248  66.534  1.00  0.00    -0.251 C  
BRANCH  13  14
HETATM   14  C   UNL     1     -10.094  14.557  66.069  1.00  0.00    -0.336 A  
HETATM   15  C   UNL     1     -10.971  14.667  64.982  1.00  0.00    -0.405 A  
HETATM   16 CL   UNL     1     -11.553  13.290  64.117  1.00  0.00    -0.429 Cl 
HETATM   17  C   UNL     1     -11.381  15.925  64.528  1.00  0.00    -0.316 A  
HETATM   18  C   UNL     1     -10.861  17.087  65.104  1.00  0.00    -0.059 A  
HETATM   19  C   UNL     1      -9.944  17.008  66.159  1.00  0.00    -0.314 A  
HETATM   20  C   UNL     1      -9.644  15.740  66.684  1.00  0.00    -0.266 A  
BRANCH  19  21
HETATM   21  C   UNL     1      -9.139  18.236  66.562  1.00  0.00    -0.282 C  
HETATM   22  O   UNL     1      -7.973  18.306  65.718  1.00  0.00    -0.513 OA 
HETATM   23  C   UNL     1      -7.283  19.556  65.816  1.00  0.00    -0.295 C  
HETATM   24  H   UNL     1      -9.670  18.460  69.806  1.00  0.00     0.000 HD 
HETATM   25  C   UNL     1      -6.756  19.738  67.239  1.00  0.00    -0.208 C  
HETATM   26  O   UNL     1      -9.911  18.386  68.890  1.00  0.00    -0.381 OA 
HETATM   27  C   UNL     1      -7.921  19.650  68.236  1.00  0.00    -0.321 C  
HETATM   28  O   UNL     1      -6.086  20.991  67.416  1.00  0.00    -0.249 OA 
HETATM   29  H   UNL     1      -8.131  19.700  70.187  1.00  0.00     0.000 HD 
HETATM   30  C   UNL     1      -8.746  18.356  68.054  1.00  0.00    -0.287 C  
HETATM   31  H   UNL     1      -5.759  21.104  68.301  1.00  0.00     0.000 HD 
HETATM   32  O   UNL     1      -7.410  19.754  69.571  1.00  0.00    -0.293 OA 
BRANCH  23  33
HETATM   33  C   UNL     1      -6.150  19.548  64.784  1.00  0.00    -0.273 C  
HETATM   34  O   UNL     1      -6.013  20.860  64.219  1.00  0.00    -0.271 OA 
HETATM   35  H   UNL     1      -5.311  20.856  63.579  1.00  0.00     0.000 HD 
ENDBRANCH  23  33
ENDBRANCH  19  21
ENDBRANCH  13  14
ENDBRANCH  10  13
ENDBRANCH   6   7
ENDBRANCH   1   6
TORSDOF 6
ENDMDL
MODEL       31
REMARK 921   NORMALIZED FREE ENERGY PREDICTED BY IDOCK:   -7.14 KCAL/MOL
REMARK 922        TOTAL FREE ENERGY PREDICTED BY IDOCK:  -10.61 KCAL/MOL
REMARK 923 INTER-LIGAND FREE ENERGY PREDICTED BY IDOCK:   -9.49 KCAL/MOL
REMARK 924 INTRA-LIGAND FREE ENERGY PREDICTED BY IDOCK:   -1.12 KCAL/MOL
REMARK 927      BINDING AFFINITY PREDICTED BY RF-SCORE:    0.00 PKD
ROOT
HETATM    1  C   UNL     1     -10.920   8.439  71.424  1.00  0.00    -0.253 C  
HETATM    2  C   UNL     1     -11.992   9.265  70.738  1.00  0.00    -0.269 C  
HETATM    3  O   UNL     1     -12.778   8.805  72.900  1.00  0.00    -0.306 OA 
HETATM    4  C   UNL     1     -12.776   9.824  71.896  1.00  0.00    -0.410 C  
HETATM    5  C   UNL     1     -11.679   7.912  72.639  1.00  0.00    -0.341 C  
ENDROOT
BRANCH   1   6
HETATM    6  O   UNL     1     -10.511   7.422  70.516  1.00  0.00    -0.213 OA 
BRANCH   6   7
HETATM    7  C   UNL     1     -10.115   7.781  69.262  1.00  0.00    -0.199 A  
HETATM    8  C   UNL     1     -10.304   7.991  66.857  1.00  0.00    -0.408 A  
HETATM    9  C   UNL     1     -10.768   7.463  68.075  1.00  0.00    -0.191 A  
HETATM   10  C   UNL     1      -9.184   8.839  66.813  1.00  0.00    -0.211 A  
HETATM   11  C   UNL     1      -8.993   8.609  69.222  1.00  0.00    -0.145 A  
HETATM   12  C   UNL     1      -8.524   9.127  68.012  1.00  0.00    -0.121 A  
BRANCH  10  13
HETATM   13  C   UNL     1      -8.745   9.499  65.516  1.00  0.00    -0.180 C  
BRANCH  13  14
HETATM   14  C   UNL     1      -9.565  10.730  65.184  1.00  0.00    -0.295 A  
HETATM   15  C   UNL     1      -9.909  11.111  63.880  1.00  0.00    -0.308 A  
HETATM   16 CL   UNL     1      -9.533  10.141  62.502  1.00  0.00    -0.312 Cl 
HETATM   17  C   UNL     1     -10.548  12.333  63.645  1.00  0.00    -0.501 A  
HETATM   18  C   UNL     1     -10.781  13.221  64.698  1.00  0.00    -0.415 A  
HETATM   19  C   UNL     1     -10.402  12.890  66.005  1.00  0.00    -0.294 A  
HETATM   20  C   UNL     1      -9.880  11.608  66.238  1.00  0.00    -0.245 A  
BRANCH  19  21
HETATM   21  C   UNL     1     -10.353  13.968  67.080  1.00  0.00    -0.267 C  
HETATM   22  O   UNL     1     -11.363  13.667  68.063  1.00  0.00    -0.257 OA 
HETATM   23  C   UNL     1     -11.236  14.449  69.255  1.00  0.00    -0.275 C  
HETATM   24  H   UNL     1      -9.472  16.667  65.408  1.00  0.00     0.000 HD 
HETATM   25  C   UNL     1     -11.434  15.927  68.919  1.00  0.00    -0.386 C  
HETATM   26  O   UNL     1      -9.402  15.766  65.700  1.00  0.00    -0.304 OA 
HETATM   27  C   UNL     1     -10.419  16.353  67.848  1.00  0.00    -0.307 C  
HETATM   28  O   UNL     1     -11.281  16.771  70.065  1.00  0.00    -0.424 OA 
HETATM   29  H   UNL     1     -10.026  17.983  66.827  1.00  0.00     0.000 HD 
HETATM   30  C   UNL     1     -10.467  15.435  66.604  1.00  0.00    -0.293 C  
HETATM   31  H   UNL     1     -11.403  17.690  69.856  1.00  0.00     0.000 HD 
HETATM   32  O   UNL     1     -10.654  17.720  67.490  1.00  0.00    -0.377 OA 
BRANCH  23  33
HETATM   33  C   UNL     1     -12.280  13.947  70.258  1.00  0.00    -0.358 C  
HETATM   34  O   UNL     1     -13.327  14.922  70.382  1.00  0.00    -0.628 OA 
HETATM   35  H   UNL     1     -13.974  14.611  71.004  1.00  0.00     0.000 HD 
ENDBRANCH  23  33
ENDBRANCH  19  21
ENDBRANCH  13  14
ENDBRANCH  10  13
ENDBRANCH   6   7
ENDBRANCH   1   6
TORSDOF 6
ENDMDL
MODEL       32
REMARK 921   NORMALIZED FREE ENERGY PREDICTED BY IDOCK:   -7.13 KCAL/MOL
REMARK 922        TOTAL FREE ENERGY PREDICTED BY IDOCK:  -10.59 KCAL/MOL
REMARK 923 INTER-LIGAND FREE ENERGY PREDICTED BY IDOCK:   -9.27 KCAL/MOL
REMARK 924 INTRA-LIGAND FREE ENERGY PREDICTED BY IDOCK:   -1.32 KCAL/MOL
REMARK 927      BINDING AFFINITY PREDICTED BY RF-SCORE:    0.00 PKD
ROOT
HETATM    1  C   UNL     1     -10.393   7.343  71.224  1.00  0.00    -0.192 C  
HETATM    2  C   UNL     1     -10.600   5.864  71.498  1.00  0.00    -0.300 C  
HETATM    3  O   UNL     1     -10.705   6.954  73.573  1.00  0.00    -0.325 OA 
HETATM    4  C   UNL     1     -11.277   5.865  72.842  1.00  0.00    -0.253 C  
HETATM    5  C   UNL     1     -10.123   7.873  72.629  1.00  0.00    -0.279 C  
ENDROOT
BRANCH   1   6
HETATM    6  O   UNL     1      -9.285   7.468  70.340  1.00  0.00    -0.156 OA 
BRANCH   6   7
HETATM    7  C   UNL     1      -9.479   8.048  69.120  1.00  0.00    -0.155 A  
HETATM    8  C   UNL     1     -10.658   8.528  67.062  1.00  0.00    -0.305 A  
HETATM    9  C   UNL     1     -10.523   7.777  68.242  1.00  0.00    -0.215 A  
HETATM   10  C   UNL     1      -9.753   9.556  66.747  1.00  0.00    -0.254 A  
HETATM   11  C   UNL     1      -8.567   9.056  68.805  1.00  0.00    -0.132 A  
HETATM   12  C   UNL     1      -8.693   9.798  67.628  1.00  0.00    -0.125 A  
BRANCH  10  13
HETATM   13  C   UNL     1      -9.957  10.442  65.529  1.00  0.00    -0.348 C  
BRANCH  13  14
HETATM   14  C   UNL     1     -10.959  11.552  65.780  1.00  0.00    -0.305 A  
HETATM   15  C   UNL     1     -11.719  12.160  64.772  1.00  0.00    -0.327 A  
HETATM   16 CL   UNL     1     -11.683  11.622  63.131  1.00  0.00    -0.255 Cl 
HETATM   17  C   UNL     1     -12.520  13.270  65.062  1.00  0.00    -0.498 A  
HETATM   18  C   UNL     1     -12.511  13.832  66.341  1.00  0.00    -0.404 A  
HETATM   19  C   UNL     1     -11.722  13.277  67.356  1.00  0.00    -0.419 A  
HETATM   20  C   UNL     1     -11.027  12.088  67.080  1.00  0.00    -0.323 A  
BRANCH  19  21
HETATM   21  C   UNL     1     -11.458  14.064  68.633  1.00  0.00    -0.302 C  
HETATM   22  O   UNL     1     -12.641  14.000  69.452  1.00  0.00    -0.193 OA 
HETATM   23  C   UNL     1     -12.426  14.469  70.787  1.00  0.00    -0.351 C  
HETATM   24  H   UNL     1      -9.457  16.483  67.632  1.00  0.00     0.000 HD 
HETATM   25  C   UNL     1     -12.044  15.948  70.753  1.00  0.00    -0.355 C  
HETATM   26  O   UNL     1      -9.749  15.585  67.734  1.00  0.00    -0.211 OA 
HETATM   27  C   UNL     1     -10.800  16.140  69.873  1.00  0.00    -0.355 C  
HETATM   28  O   UNL     1     -11.776  16.472  72.058  1.00  0.00    -0.596 OA 
HETATM   29  H   UNL     1      -9.719  17.655  69.247  1.00  0.00     0.000 HD 
HETATM   30  C   UNL     1     -10.982  15.527  68.466  1.00  0.00    -0.288 C  
HETATM   31  H   UNL     1     -11.538  17.392  72.036  1.00  0.00     0.000 HD 
HETATM   32  O   UNL     1     -10.488  17.536  69.791  1.00  0.00    -0.026 OA 
BRANCH  23  33
HETATM   33  C   UNL     1     -13.714  14.230  71.582  1.00  0.00    -0.386 C  
HETATM   34  O   UNL     1     -13.385  13.981  72.956  1.00  0.00    -0.641 OA 
HETATM   35  H   UNL     1     -14.184  13.833  73.449  1.00  0.00     0.000 HD 
ENDBRANCH  23  33
ENDBRANCH  19  21
ENDBRANCH  13  14
ENDBRANCH  10  13
ENDBRANCH   6   7
ENDBRANCH   1   6
TORSDOF 6
ENDMDL
MODEL       33
REMARK 921   NORMALIZED FREE ENERGY PREDICTED BY IDOCK:   -7.11 KCAL/MOL
REMARK 922        TOTAL FREE ENERGY PREDICTED BY IDOCK:  -10.57 KCAL/MOL
REMARK 923 INTER-LIGAND FREE ENERGY PREDICTED BY IDOCK:   -9.87 KCAL/MOL
REMARK 924 INTRA-LIGAND FREE ENERGY PREDICTED BY IDOCK:   -0.70 KCAL/MOL
REMARK 927      BINDING AFFINITY PREDICTED BY RF-SCORE:    0.00 PKD
ROOT
HETATM    1  C   UNL     1     -10.946   7.966  71.240  1.00  0.00    -0.238 C  
HETATM    2  C   UNL     1     -10.680   7.975  72.734  1.00  0.00    -0.431 C  
HETATM    3  O   UNL     1     -11.981   6.073  72.294  1.00  0.00    -0.318 OA 
HETATM    4  C   UNL     1     -10.913   6.540  73.124  1.00  0.00    -0.221 C  
HETATM    5  C   UNL     1     -12.064   6.931  71.141  1.00  0.00    -0.381 C  
ENDROOT
BRANCH   1   6
HETATM    6  O   UNL     1     -11.344   9.279  70.863  1.00  0.00    -0.267 OA 
BRANCH   6   7
HETATM    7  C   UNL     1     -10.955   9.761  69.648  1.00  0.00    -0.241 A  
HETATM    8  C   UNL     1      -9.676   9.808  67.593  1.00  0.00    -0.186 A  
HETATM    9  C   UNL     1      -9.899   9.283  68.877  1.00  0.00    -0.170 A  
HETATM   10  C   UNL     1     -10.504  10.813  67.065  1.00  0.00    -0.297 A  
HETATM   11  C   UNL     1     -11.771  10.771  69.135  1.00  0.00    -0.368 A  
HETATM   12  C   UNL     1     -11.545  11.300  67.862  1.00  0.00    -0.330 A  
BRANCH  10  13
HETATM   13  C   UNL     1     -10.336  11.306  65.637  1.00  0.00    -0.310 C  
BRANCH  13  14
HETATM   14  C   UNL     1     -10.882  12.706  65.437  1.00  0.00    -0.318 A  
HETATM   15  C   UNL     1     -11.779  13.056  64.419  1.00  0.00    -0.373 A  
HETATM   16 CL   UNL     1     -12.461  11.891  63.343  1.00  0.00    -0.669 Cl 
HETATM   17  C   UNL     1     -12.129  14.395  64.215  1.00  0.00    -0.461 A  
HETATM   18  C   UNL     1     -11.529  15.405  64.971  1.00  0.00    -0.263 A  
HETATM   19  C   UNL     1     -10.590  15.090  65.961  1.00  0.00    -0.329 A  
HETATM   20  C   UNL     1     -10.350  13.734  66.238  1.00  0.00    -0.294 A  
BRANCH  19  21
HETATM   21  C   UNL     1      -9.706  16.182  66.549  1.00  0.00    -0.263 C  
HETATM   22  O   UNL     1     -10.105  17.440  65.972  1.00  0.00    -0.430 OA 
HETATM   23  C   UNL     1      -9.535  18.570  66.641  1.00  0.00    -0.311 C  
HETATM   24  H   UNL     1      -6.826  14.653  67.020  1.00  0.00     0.000 HD 
HETATM   25  C   UNL     1      -8.013  18.532  66.503  1.00  0.00    -0.274 C  
HETATM   26  O   UNL     1      -7.765  14.776  67.092  1.00  0.00    -0.200 OA 
HETATM   27  C   UNL     1      -7.477  17.206  67.064  1.00  0.00    -0.188 C  
HETATM   28  O   UNL     1      -7.376  19.616  67.186  1.00  0.00    -0.212 OA 
HETATM   29  H   UNL     1      -5.728  16.329  67.217  1.00  0.00     0.000 HD 
HETATM   30  C   UNL     1      -8.177  15.981  66.431  1.00  0.00    -0.274 C  
HETATM   31  H   UNL     1      -6.430  19.592  67.100  1.00  0.00     0.000 HD 
HETATM   32  O   UNL     1      -6.059  17.148  66.870  1.00  0.00    -0.156 OA 
BRANCH  23  33
HETATM   33  C   UNL     1     -10.133  19.835  66.017  1.00  0.00    -0.477 C  
HETATM   34  O   UNL     1      -9.848  20.961  66.861  1.00  0.00    -0.620 OA 
HETATM   35  H   UNL     1     -10.219  21.746  66.474  1.00  0.00     0.000 HD 
ENDBRANCH  23  33
ENDBRANCH  19  21
ENDBRANCH  13  14
ENDBRANCH  10  13
ENDBRANCH   6   7
ENDBRANCH   1   6
TORSDOF 6
ENDMDL
MODEL       34
REMARK 921   NORMALIZED FREE ENERGY PREDICTED BY IDOCK:   -7.06 KCAL/MOL
REMARK 922        TOTAL FREE ENERGY PREDICTED BY IDOCK:  -10.50 KCAL/MOL
REMARK 923 INTER-LIGAND FREE ENERGY PREDICTED BY IDOCK:  -10.40 KCAL/MOL
REMARK 924 INTRA-LIGAND FREE ENERGY PREDICTED BY IDOCK:   -0.10 KCAL/MOL
REMARK 927      BINDING AFFINITY PREDICTED BY RF-SCORE:    0.00 PKD
ROOT
HETATM    1  C   UNL     1     -12.893   9.962  71.348  1.00  0.00    -0.405 C  
HETATM    2  C   UNL     1     -11.598   9.211  71.598  1.00  0.00    -0.449 C  
HETATM    3  O   UNL     1     -13.325   7.628  71.713  1.00  0.00    -0.336 OA 
HETATM    4  C   UNL     1     -11.970   7.788  71.281  1.00  0.00    -0.302 C  
HETATM    5  C   UNL     1     -13.927   8.934  71.800  1.00  0.00    -0.393 C  
ENDROOT
BRANCH   1   6
HETATM    6  O   UNL     1     -12.869  11.141  72.146  1.00  0.00    -0.304 OA 
BRANCH   6   7
HETATM    7  C   UNL     1     -12.842  12.355  71.524  1.00  0.00    -0.274 A  
HETATM    8  C   UNL     1     -13.120  14.752  71.339  1.00  0.00    -0.424 A  
HETATM    9  C   UNL     1     -13.309  13.555  72.050  1.00  0.00    -0.563 A  
HETATM   10  C   UNL     1     -12.464  14.763  70.096  1.00  0.00    -0.359 A  
HETATM   11  C   UNL     1     -12.205  12.357  70.283  1.00  0.00    -0.345 A  
HETATM   12  C   UNL     1     -12.024  13.544  69.569  1.00  0.00    -0.390 A  
BRANCH  10  13
HETATM   13  C   UNL     1     -12.161  16.066  69.375  1.00  0.00    -0.090 C  
BRANCH  13  14
HETATM   14  C   UNL     1     -10.876  16.000  68.572  1.00  0.00    -0.304 A  
HETATM   15  C   UNL     1     -10.057  17.108  68.316  1.00  0.00    -0.314 A  
HETATM   16 CL   UNL     1     -10.364  18.664  68.998  1.00  0.00    -0.194 Cl 
HETATM   17  C   UNL     1      -8.962  16.994  67.452  1.00  0.00    -0.216 A  
HETATM   18  C   UNL     1      -8.720  15.797  66.774  1.00  0.00    -0.305 A  
HETATM   19  C   UNL     1      -9.551  14.687  66.970  1.00  0.00    -0.246 A  
HETATM   20  C   UNL     1     -10.565  14.782  67.938  1.00  0.00    -0.248 A  
BRANCH  19  21
HETATM   21  C   UNL     1      -9.491  13.510  66.007  1.00  0.00    -0.088 C  
HETATM   22  O   UNL     1     -10.713  13.492  65.244  1.00  0.00    -0.298 OA 
HETATM   23  C   UNL     1     -10.663  12.601  64.124  1.00  0.00    -0.406 C  
HETATM   24  H   UNL     1      -7.762  11.254  67.673  1.00  0.00     0.000 HD 
HETATM   25  C   UNL     1     -10.481  11.167  64.620  1.00  0.00    -0.335 C  
HETATM   26  O   UNL     1      -7.939  12.108  67.297  1.00  0.00    -0.160 OA 
HETATM   27  C   UNL     1      -9.211  11.075  65.479  1.00  0.00    -0.213 C  
HETATM   28  O   UNL     1     -10.384  10.227  63.545  1.00  0.00    -0.438 OA 
HETATM   29  H   UNL     1      -8.299   9.688  66.527  1.00  0.00     0.000 HD 
HETATM   30  C   UNL     1      -9.204  12.119  66.620  1.00  0.00    -0.206 C  
HETATM   31  H   UNL     1     -10.270   9.335  63.854  1.00  0.00     0.000 HD 
HETATM   32  O   UNL     1      -9.084   9.745  65.995  1.00  0.00    -0.147 OA 
BRANCH  23  33
HETATM   33  C   UNL     1     -11.963  12.771  63.332  1.00  0.00    -0.535 C  
HETATM   34  O   UNL     1     -12.399  14.135  63.419  1.00  0.00    -1.109 OA 
HETATM   35  H   UNL     1     -13.205  14.241  62.928  1.00  0.00     0.000 HD 
ENDBRANCH  23  33
ENDBRANCH  19  21
ENDBRANCH  13  14
ENDBRANCH  10  13
ENDBRANCH   6   7
ENDBRANCH   1   6
TORSDOF 6
ENDMDL
MODEL       35
REMARK 921   NORMALIZED FREE ENERGY PREDICTED BY IDOCK:   -7.03 KCAL/MOL
REMARK 922        TOTAL FREE ENERGY PREDICTED BY IDOCK:  -10.46 KCAL/MOL
REMARK 923 INTER-LIGAND FREE ENERGY PREDICTED BY IDOCK:   -9.18 KCAL/MOL
REMARK 924 INTRA-LIGAND FREE ENERGY PREDICTED BY IDOCK:   -1.28 KCAL/MOL
REMARK 927      BINDING AFFINITY PREDICTED BY RF-SCORE:    0.00 PKD
ROOT
HETATM    1  C   UNL     1      -9.683   4.015  65.152  1.00  0.00    -0.196 C  
HETATM    2  C   UNL     1     -10.204   3.395  63.868  1.00  0.00    -0.216 C  
HETATM    3  O   UNL     1      -8.090   4.285  63.375  1.00  0.00    -0.082 OA 
HETATM    4  C   UNL     1      -8.949   3.183  63.065  1.00  0.00    -0.092 C  
HETATM    5  C   UNL     1      -8.517   4.850  64.629  1.00  0.00    -0.143 C  
ENDROOT
BRANCH   1   6
HETATM    6  O   UNL     1     -10.736   4.789  65.717  1.00  0.00    -0.305 OA 
BRANCH   6   7
HETATM    7  C   UNL     1     -10.530   5.399  66.919  1.00  0.00    -0.277 A  
HETATM    8  C   UNL     1      -9.671   5.616  69.172  1.00  0.00    -0.193 A  
HETATM    9  C   UNL     1      -9.911   4.833  68.029  1.00  0.00    -0.185 A  
HETATM   10  C   UNL     1     -10.047   6.970  69.217  1.00  0.00    -0.178 A  
HETATM   11  C   UNL     1     -10.921   6.738  66.964  1.00  0.00    -0.439 A  
HETATM   12  C   UNL     1     -10.692   7.516  68.103  1.00  0.00    -0.145 A  
BRANCH  10  13
HETATM   13  C   UNL     1      -9.693   7.847  70.406  1.00  0.00    -0.179 C  
BRANCH  13  14
HETATM   14  C   UNL     1     -10.904   8.544  70.995  1.00  0.00    -0.290 A  
HETATM   15  C   UNL     1     -11.960   7.874  71.627  1.00  0.00    -0.294 A  
HETATM   16 CL   UNL     1     -11.937   6.171  71.915  1.00  0.00    -0.338 Cl 
HETATM   17  C   UNL     1     -13.107   8.572  72.021  1.00  0.00    -0.403 A  
HETATM   18  C   UNL     1     -13.245   9.929  71.717  1.00  0.00    -0.535 A  
HETATM   19  C   UNL     1     -12.229  10.614  71.041  1.00  0.00    -0.498 A  
HETATM   20  C   UNL     1     -11.034   9.928  70.770  1.00  0.00    -0.407 A  
BRANCH  19  21
HETATM   21  C   UNL     1     -12.508  11.980  70.428  1.00  0.00    -0.153 C  
HETATM   22  O   UNL     1     -11.542  12.209  69.384  1.00  0.00    -0.282 OA 
HETATM   23  C   UNL     1     -11.865  13.332  68.557  1.00  0.00    -0.349 C  
HETATM   24  H   UNL     1     -13.629  13.740  72.979  1.00  0.00     0.000 HD 
HETATM   25  C   UNL     1     -11.851  14.607  69.400  1.00  0.00    -0.329 C  
HETATM   26  O   UNL     1     -13.594  13.001  72.382  1.00  0.00    -0.578 OA 
HETATM   27  C   UNL     1     -12.832  14.462  70.573  1.00  0.00    -0.294 C  
HETATM   28  O   UNL     1     -12.205  15.767  68.639  1.00  0.00    -0.536 OA 
HETATM   29  H   UNL     1     -13.370  15.542  72.120  1.00  0.00     0.000 HD 
HETATM   30  C   UNL     1     -12.564  13.183  71.399  1.00  0.00    -0.256 C  
HETATM   31  H   UNL     1     -12.196  16.559  69.163  1.00  0.00     0.000 HD 
HETATM   32  O   UNL     1     -12.763  15.632  71.395  1.00  0.00    -0.420 OA 
BRANCH  23  33
HETATM   33  C   UNL     1     -10.839  13.387  67.421  1.00  0.00    -0.268 C  
HETATM   34  O   UNL     1     -11.336  14.233  66.373  1.00  0.00    -0.325 OA 
HETATM   35  H   UNL     1     -10.700  14.268  65.668  1.00  0.00     0.000 HD 
ENDBRANCH  23  33
ENDBRANCH  19  21
ENDBRANCH  13  14
ENDBRANCH  10  13
ENDBRANCH   6   7
ENDBRANCH   1   6
TORSDOF 6
ENDMDL
MODEL       36
REMARK 921   NORMALIZED FREE ENERGY PREDICTED BY IDOCK:   -7.03 KCAL/MOL
REMARK 922        TOTAL FREE ENERGY PREDICTED BY IDOCK:  -10.46 KCAL/MOL
REMARK 923 INTER-LIGAND FREE ENERGY PREDICTED BY IDOCK:   -8.90 KCAL/MOL
REMARK 924 INTRA-LIGAND FREE ENERGY PREDICTED BY IDOCK:   -1.55 KCAL/MOL
REMARK 927      BINDING AFFINITY PREDICTED BY RF-SCORE:    0.00 PKD
ROOT
HETATM    1  C   UNL     1     -13.194  15.163  71.143  1.00  0.00    -0.469 C  
HETATM    2  C   UNL     1     -12.686  13.733  71.107  1.00  0.00    -0.438 C  
HETATM    3  O   UNL     1     -13.753  14.016  73.178  1.00  0.00    -0.485 OA 
HETATM    4  C   UNL     1     -13.537  13.050  72.144  1.00  0.00    -0.526 C  
HETATM    5  C   UNL     1     -13.525  15.326  72.625  1.00  0.00    -0.507 C  
ENDROOT
BRANCH   1   6
HETATM    6  O   UNL     1     -12.139  16.008  70.694  1.00  0.00    -0.361 OA 
BRANCH   6   7
HETATM    7  C   UNL     1     -11.299  15.550  69.722  1.00  0.00    -0.319 A  
HETATM    8  C   UNL     1      -9.199  14.785  68.794  1.00  0.00    -0.196 A  
HETATM    9  C   UNL     1      -9.926  15.365  69.847  1.00  0.00    -0.229 A  
HETATM   10  C   UNL     1      -9.835  14.383  67.607  1.00  0.00    -0.224 A  
HETATM   11  C   UNL     1     -11.934  15.169  68.539  1.00  0.00    -0.243 A  
HETATM   12  C   UNL     1     -11.211  14.600  67.487  1.00  0.00    -0.343 A  
BRANCH  10  13
HETATM   13  C   UNL     1      -9.073  13.656  66.511  1.00  0.00    -0.138 C  
BRANCH  13  14
HETATM   14  C   UNL     1      -9.481  12.201  66.388  1.00  0.00    -0.238 A  
HETATM   15  C   UNL     1     -10.193  11.678  65.300  1.00  0.00    -0.272 A  
HETATM   16 CL   UNL     1     -10.582  12.622  63.907  1.00  0.00    -0.448 Cl 
HETATM   17  C   UNL     1     -10.653  10.357  65.324  1.00  0.00    -0.064 A  
HETATM   18  C   UNL     1     -10.476   9.569  66.464  1.00  0.00    -0.201 A  
HETATM   19  C   UNL     1      -9.814  10.081  67.586  1.00  0.00    -0.194 A  
HETATM   20  C   UNL     1      -9.247  11.362  67.494  1.00  0.00    -0.160 A  
BRANCH  19  21
HETATM   21  C   UNL     1      -9.907   9.356  68.923  1.00  0.00    -0.171 C  
HETATM   22  O   UNL     1     -11.113   9.788  69.584  1.00  0.00    -0.237 OA 
HETATM   23  C   UNL     1     -11.450   8.982  70.718  1.00  0.00    -0.282 C  
HETATM   24  H   UNL     1      -6.756   9.025  69.827  1.00  0.00     0.000 HD 
HETATM   25  C   UNL     1     -10.352   9.102  71.774  1.00  0.00    -0.260 C  
HETATM   26  O   UNL     1      -7.505   8.953  69.247  1.00  0.00    -0.072 OA 
HETATM   27  C   UNL     1      -9.003   8.692  71.164  1.00  0.00    -0.201 C  
HETATM   28  O   UNL     1     -10.609   8.288  72.923  1.00  0.00    -0.320 OA 
HETATM   29  H   UNL     1      -7.134   8.618  71.762  1.00  0.00     0.000 HD 
HETATM   30  C   UNL     1      -8.689   9.474  69.868  1.00  0.00    -0.210 C  
HETATM   31  H   UNL     1      -9.925   8.362  73.579  1.00  0.00     0.000 HD 
HETATM   32  O   UNL     1      -7.968   8.871  72.139  1.00  0.00    -0.364 OA 
BRANCH  23  33
HETATM   33  C   UNL     1     -12.805   9.462  71.247  1.00  0.00    -0.309 C  
HETATM   34  O   UNL     1     -13.268   8.556  72.259  1.00  0.00    -0.422 OA 
HETATM   35  H   UNL     1     -14.109   8.853  72.587  1.00  0.00     0.000 HD 
ENDBRANCH  23  33
ENDBRANCH  19  21
ENDBRANCH  13  14
ENDBRANCH  10  13
ENDBRANCH   6   7
ENDBRANCH   1   6
TORSDOF 6
ENDMDL
MODEL       37
REMARK 921   NORMALIZED FREE ENERGY PREDICTED BY IDOCK:   -7.02 KCAL/MOL
REMARK 922        TOTAL FREE ENERGY PREDICTED BY IDOCK:  -10.45 KCAL/MOL
REMARK 923 INTER-LIGAND FREE ENERGY PREDICTED BY IDOCK:   -8.82 KCAL/MOL
REMARK 924 INTRA-LIGAND FREE ENERGY PREDICTED BY IDOCK:   -1.63 KCAL/MOL
REMARK 927      BINDING AFFINITY PREDICTED BY RF-SCORE:    0.00 PKD
ROOT
HETATM    1  C   UNL     1      -5.801  12.148  69.646  1.00  0.00    -0.107 C  
HETATM    2  C   UNL     1      -5.254  11.297  70.777  1.00  0.00    -0.119 C  
HETATM    3  O   UNL     1      -6.723   9.933  69.559  1.00  0.00    -0.048 OA 
HETATM    4  C   UNL     1      -5.491   9.894  70.284  1.00  0.00    -0.045 C  
HETATM    5  C   UNL     1      -6.976  11.297  69.172  1.00  0.00    -0.114 C  
ENDROOT
BRANCH   1   6
HETATM    6  O   UNL     1      -6.187  13.403  70.198  1.00  0.00    -0.131 OA 
BRANCH   6   7
HETATM    7  C   UNL     1      -6.058  14.525  69.433  1.00  0.00    -0.106 A  
HETATM    8  C   UNL     1      -5.277  15.850  67.564  1.00  0.00    -0.085 A  
HETATM    9  C   UNL     1      -5.231  14.668  68.323  1.00  0.00    -0.113 A  
HETATM   10  C   UNL     1      -6.149  16.899  67.905  1.00  0.00    -0.146 A  
HETATM   11  C   UNL     1      -6.913  15.569  69.786  1.00  0.00    -0.132 A  
HETATM   12  C   UNL     1      -6.954  16.749  69.038  1.00  0.00    -0.218 A  
BRANCH  10  13
HETATM   13  C   UNL     1      -6.282  18.132  67.026  1.00  0.00    -0.186 C  
BRANCH  13  14
HETATM   14  C   UNL     1      -7.718  18.406  66.624  1.00  0.00    -0.258 A  
HETATM   15  C   UNL     1      -8.341  19.654  66.757  1.00  0.00    -0.308 A  
HETATM   16 CL   UNL     1      -7.494  21.062  67.288  1.00  0.00    -0.368 Cl 
HETATM   17  C   UNL     1      -9.709  19.793  66.495  1.00  0.00    -0.529 A  
HETATM   18  C   UNL     1     -10.483  18.676  66.174  1.00  0.00    -0.473 A  
HETATM   19  C   UNL     1      -9.898  17.407  66.083  1.00  0.00    -0.260 A  
HETATM   20  C   UNL     1      -8.504  17.309  66.222  1.00  0.00    -0.278 A  
BRANCH  19  21
HETATM   21  C   UNL     1     -10.775  16.163  66.059  1.00  0.00    -0.241 C  
HETATM   22  O   UNL     1     -10.187  15.182  66.934  1.00  0.00    -0.252 OA 
HETATM   23  C   UNL     1     -11.056  14.078  67.205  1.00  0.00    -0.302 C  
HETATM   24  H   UNL     1     -11.946  16.120  62.979  1.00  0.00     0.000 HD 
HETATM   25  C   UNL     1     -11.350  13.328  65.907  1.00  0.00    -0.311 C  
HETATM   26  O   UNL     1     -11.758  16.496  63.831  1.00  0.00    -1.148 OA 
HETATM   27  C   UNL     1     -11.958  14.294  64.879  1.00  0.00    -0.425 C  
HETATM   28  O   UNL     1     -12.248  12.231  66.102  1.00  0.00    -0.647 OA 
HETATM   29  H   UNL     1     -12.544  14.198  63.008  1.00  0.00     0.000 HD 
HETATM   30  C   UNL     1     -11.081  15.550  64.672  1.00  0.00    -0.359 C  
HETATM   31  H   UNL     1     -12.431  11.765  65.294  1.00  0.00     0.000 HD 
HETATM   32  O   UNL     1     -12.168  13.600  63.643  1.00  0.00    -0.614 OA 
BRANCH  23  33
HETATM   33  C   UNL     1     -10.366  13.181  68.239  1.00  0.00    -0.252 C  
HETATM   34  O   UNL     1     -11.345  12.339  68.866  1.00  0.00    -0.246 OA 
HETATM   35  H   UNL     1     -10.918  11.782  69.506  1.00  0.00     0.000 HD 
ENDBRANCH  23  33
ENDBRANCH  19  21
ENDBRANCH  13  14
ENDBRANCH  10  13
ENDBRANCH   6   7
ENDBRANCH   1   6
TORSDOF 6
ENDMDL
MODEL       38
REMARK 921   NORMALIZED FREE ENERGY PREDICTED BY IDOCK:   -6.97 KCAL/MOL
REMARK 922        TOTAL FREE ENERGY PREDICTED BY IDOCK:  -10.38 KCAL/MOL
REMARK 923 INTER-LIGAND FREE ENERGY PREDICTED BY IDOCK:   -9.43 KCAL/MOL
REMARK 924 INTRA-LIGAND FREE ENERGY PREDICTED BY IDOCK:   -0.95 KCAL/MOL
REMARK 927      BINDING AFFINITY PREDICTED BY RF-SCORE:    0.00 PKD
ROOT
HETATM    1  C   UNL     1     -10.486   6.902  72.437  1.00  0.00    -0.208 C  
HETATM    2  C   UNL     1     -10.287   6.160  73.746  1.00  0.00    -0.288 C  
HETATM    3  O   UNL     1     -10.263   4.543  72.046  1.00  0.00    -0.192 OA 
HETATM    4  C   UNL     1      -9.662   4.864  73.304  1.00  0.00    -0.137 C  
HETATM    5  C   UNL     1     -10.812   5.752  71.487  1.00  0.00    -0.253 C  
ENDROOT
BRANCH   1   6
HETATM    6  O   UNL     1     -11.560   7.818  72.618  1.00  0.00    -0.354 OA 
BRANCH   6   7
HETATM    7  C   UNL     1     -11.587   8.957  71.868  1.00  0.00    -0.371 A  
HETATM    8  C   UNL     1     -10.747  10.581  70.281  1.00  0.00    -0.165 A  
HETATM    9  C   UNL     1     -10.544   9.448  71.088  1.00  0.00    -0.403 A  
HETATM   10  C   UNL     1     -11.991  11.234  70.245  1.00  0.00    -0.466 A  
HETATM   11  C   UNL     1     -12.819   9.611  71.849  1.00  0.00    -0.515 A  
HETATM   12  C   UNL     1     -13.020  10.743  71.055  1.00  0.00    -0.425 A  
BRANCH  10  13
HETATM   13  C   UNL     1     -12.247  12.391  69.293  1.00  0.00    -0.088 C  
BRANCH  13  14
HETATM   14  C   UNL     1     -11.884  13.733  69.899  1.00  0.00    -0.394 A  
HETATM   15  C   UNL     1     -12.672  14.401  70.846  1.00  0.00    -0.355 A  
HETATM   16 CL   UNL     1     -14.098  13.703  71.524  1.00  0.00    -0.087 Cl 
HETATM   17  C   UNL     1     -12.340  15.697  71.254  1.00  0.00    -0.484 A  
HETATM   18  C   UNL     1     -11.267  16.370  70.664  1.00  0.00    -0.211 A  
HETATM   19  C   UNL     1     -10.493  15.747  69.678  1.00  0.00    -0.289 A  
HETATM   20  C   UNL     1     -10.761  14.401  69.377  1.00  0.00    -0.184 A  
BRANCH  19  21
HETATM   21  C   UNL     1      -9.549  16.573  68.815  1.00  0.00    -0.248 C  
HETATM   22  O   UNL     1     -10.290  17.060  67.679  1.00  0.00    -0.310 OA 
HETATM   23  C   UNL     1      -9.589  18.066  66.941  1.00  0.00    -0.295 C  
HETATM   24  H   UNL     1      -6.643  15.073  69.219  1.00  0.00     0.000 HD 
HETATM   25  C   UNL     1      -8.309  17.471  66.356  1.00  0.00    -0.262 C  
HETATM   26  O   UNL     1      -7.449  15.492  69.496  1.00  0.00    -0.206 OA 
HETATM   27  C   UNL     1      -7.447  16.888  67.486  1.00  0.00    -0.158 C  
HETATM   28  O   UNL     1      -7.538  18.438  65.635  1.00  0.00    -0.522 OA 
HETATM   29  H   UNL     1      -5.749  15.913  67.623  1.00  0.00     0.000 HD 
HETATM   30  C   UNL     1      -8.236  15.890  68.364  1.00  0.00    -0.161 C  
HETATM   31  H   UNL     1      -6.742  18.068  65.271  1.00  0.00     0.000 HD 
HETATM   32  O   UNL     1      -6.281  16.273  66.924  1.00  0.00    -0.299 OA 
BRANCH  23  33
HETATM   33  C   UNL     1     -10.529  18.585  65.847  1.00  0.00    -0.347 C  
HETATM   34  O   UNL     1     -11.016  17.478  65.075  1.00  0.00    -0.754 OA 
HETATM   35  H   UNL     1     -11.599  17.800  64.397  1.00  0.00     0.000 HD 
ENDBRANCH  23  33
ENDBRANCH  19  21
ENDBRANCH  13  14
ENDBRANCH  10  13
ENDBRANCH   6   7
ENDBRANCH   1   6
TORSDOF 6
ENDMDL
MODEL       39
REMARK 921   NORMALIZED FREE ENERGY PREDICTED BY IDOCK:   -6.96 KCAL/MOL
REMARK 922        TOTAL FREE ENERGY PREDICTED BY IDOCK:  -10.36 KCAL/MOL
REMARK 923 INTER-LIGAND FREE ENERGY PREDICTED BY IDOCK:   -9.45 KCAL/MOL
REMARK 924 INTRA-LIGAND FREE ENERGY PREDICTED BY IDOCK:   -0.92 KCAL/MOL
REMARK 927      BINDING AFFINITY PREDICTED BY RF-SCORE:    0.00 PKD
ROOT
HETATM    1  C   UNL     1     -10.432   6.544  71.447  1.00  0.00    -0.213 C  
HETATM    2  C   UNL     1     -11.053   7.460  72.486  1.00  0.00    -0.350 C  
HETATM    3  O   UNL     1     -10.607   5.425  73.564  1.00  0.00    -0.227 OA 
HETATM    4  C   UNL     1     -10.613   6.838  73.785  1.00  0.00    -0.295 C  
HETATM    5  C   UNL     1     -10.529   5.191  72.145  1.00  0.00    -0.220 C  
ENDROOT
BRANCH   1   6
HETATM    6  O   UNL     1     -11.219   6.638  70.264  1.00  0.00    -0.297 OA 
BRANCH   6   7
HETATM    7  C   UNL     1     -10.630   7.080  69.116  1.00  0.00    -0.219 A  
HETATM    8  C   UNL     1     -10.341   7.307  66.723  1.00  0.00    -0.311 A  
HETATM    9  C   UNL     1     -10.962   6.689  67.822  1.00  0.00    -0.367 A  
HETATM   10  C   UNL     1      -9.384   8.321  66.904  1.00  0.00    -0.222 A  
HETATM   11  C   UNL     1      -9.668   8.074  69.303  1.00  0.00    -0.167 A  
HETATM   12  C   UNL     1      -9.043   8.683  68.212  1.00  0.00    -0.141 A  
BRANCH  10  13
HETATM   13  C   UNL     1      -8.792   9.068  65.721  1.00  0.00    -0.216 C  
BRANCH  13  14
HETATM   14  C   UNL     1      -9.713  10.153  65.199  1.00  0.00    -0.370 A  
HETATM   15  C   UNL     1      -9.768  10.553  63.857  1.00  0.00    -0.325 A  
HETATM   16 CL   UNL     1      -8.867   9.760  62.616  1.00  0.00    -0.226 Cl 
HETATM   17  C   UNL     1     -10.541  11.656  63.478  1.00  0.00    -0.496 A  
HETATM   18  C   UNL     1     -11.205  12.417  64.444  1.00  0.00    -0.384 A  
HETATM   19  C   UNL     1     -11.128  12.072  65.798  1.00  0.00    -0.371 A  
HETATM   20  C   UNL     1     -10.454  10.889  66.143  1.00  0.00    -0.290 A  
BRANCH  19  21
HETATM   21  C   UNL     1     -11.567  13.067  66.864  1.00  0.00    -0.366 C  
HETATM   22  O   UNL     1     -10.794  14.272  66.699  1.00  0.00    -0.295 OA 
HETATM   23  C   UNL     1     -11.299  15.372  67.463  1.00  0.00    -0.269 C  
HETATM   24  H   UNL     1     -12.346  11.142  69.423  1.00  0.00     0.000 HD 
HETATM   25  C   UNL     1     -11.211  15.042  68.953  1.00  0.00    -0.277 C  
HETATM   26  O   UNL     1     -12.372  11.440  68.521  1.00  0.00    -0.504 OA 
HETATM   27  C   UNL     1     -11.982  13.746  69.242  1.00  0.00    -0.352 C  
HETATM   28  O   UNL     1     -11.737  16.089  69.775  1.00  0.00    -0.319 OA 
HETATM   29  H   UNL     1     -12.315  12.606  70.804  1.00  0.00     0.000 HD 
HETATM   30  C   UNL     1     -11.524  12.582  68.333  1.00  0.00    -0.312 C  
HETATM   31  H   UNL     1     -11.683  15.884  70.701  1.00  0.00     0.000 HD 
HETATM   32  O   UNL     1     -11.838  13.407  70.626  1.00  0.00    -0.250 OA 
BRANCH  23  33
HETATM   33  C   UNL     1     -10.473  16.611  67.103  1.00  0.00    -0.300 C  
HETATM   34  O   UNL     1     -10.183  16.597  65.698  1.00  0.00    -0.496 OA 
HETATM   35  H   UNL     1      -9.671  17.365  65.474  1.00  0.00     0.000 HD 
ENDBRANCH  23  33
ENDBRANCH  19  21
ENDBRANCH  13  14
ENDBRANCH  10  13
ENDBRANCH   6   7
ENDBRANCH   1   6
TORSDOF 6
ENDMDL
MODEL       40
REMARK 921   NORMALIZED FREE ENERGY PREDICTED BY IDOCK:   -6.95 KCAL/MOL
REMARK 922        TOTAL FREE ENERGY PREDICTED BY IDOCK:  -10.35 KCAL/MOL
REMARK 923 INTER-LIGAND FREE ENERGY PREDICTED BY IDOCK:   -9.24 KCAL/MOL
REMARK 924 INTRA-LIGAND FREE ENERGY PREDICTED BY IDOCK:   -1.12 KCAL/MOL
REMARK 927      BINDING AFFINITY PREDICTED BY RF-SCORE:    0.00 PKD
ROOT
HETATM    1  C   UNL     1     -10.024  18.056  66.737  1.00  0.00    -0.346 C  
HETATM    2  C   UNL     1      -8.611  18.605  66.667  1.00  0.00    -0.304 C  
HETATM    3  O   UNL     1      -9.885  20.177  67.853  1.00  0.00    -0.379 OA 
HETATM    4  C   UNL     1      -8.579  19.594  67.801  1.00  0.00    -0.322 C  
HETATM    5  C   UNL     1     -10.802  19.289  67.188  1.00  0.00    -0.440 C  
ENDROOT
BRANCH   1   6
HETATM    6  O   UNL     1     -10.376  17.599  65.436  1.00  0.00    -0.617 OA 
BRANCH   6   7
HETATM    7  C   UNL     1     -10.572  16.263  65.239  1.00  0.00    -0.336 A  
HETATM    8  C   UNL     1     -10.210  13.897  65.601  1.00  0.00    -0.344 A  
HETATM    9  C   UNL     1      -9.829  15.234  65.809  1.00  0.00    -0.395 A  
HETATM   10  C   UNL     1     -11.335  13.575  64.822  1.00  0.00    -0.362 A  
HETATM   11  C   UNL     1     -11.680  15.949  64.451  1.00  0.00    -0.179 A  
HETATM   12  C   UNL     1     -12.055  14.621  64.235  1.00  0.00    -0.437 A  
BRANCH  10  13
HETATM   13  C   UNL     1     -11.815  12.140  64.684  1.00  0.00    -0.400 C  
BRANCH  13  14
HETATM   14  C   UNL     1     -10.789  11.135  65.173  1.00  0.00    -0.229 A  
HETATM   15  C   UNL     1      -9.711  10.682  64.401  1.00  0.00    -0.311 A  
HETATM   16 CL   UNL     1      -9.361  11.317  62.834  1.00  0.00    -0.370 Cl 
HETATM   17  C   UNL     1      -8.889   9.652  64.870  1.00  0.00    -0.234 A  
HETATM   18  C   UNL     1      -9.180   9.011  66.077  1.00  0.00    -0.284 A  
HETATM   19  C   UNL     1     -10.280   9.408  66.845  1.00  0.00    -0.318 A  
HETATM   20  C   UNL     1     -11.016  10.527  66.421  1.00  0.00    -0.019 A  
BRANCH  19  21
HETATM   21  C   UNL     1     -10.785   8.515  67.971  1.00  0.00    -0.059 C  
HETATM   22  O   UNL     1     -10.389   9.107  69.224  1.00  0.00    -0.205 OA 
HETATM   23  C   UNL     1     -11.033   8.510  70.355  1.00  0.00    -0.238 C  
HETATM   24  H   UNL     1     -10.613   5.491  66.676  1.00  0.00     0.000 HD 
HETATM   25  C   UNL     1     -10.623   7.042  70.460  1.00  0.00    -0.224 C  
HETATM   26  O   UNL     1     -10.861   6.407  66.711  1.00  0.00    -0.326 OA 
HETATM   27  C   UNL     1     -10.973   6.313  69.154  1.00  0.00    -0.377 C  
HETATM   28  O   UNL     1     -11.264   6.373  71.551  1.00  0.00    -0.261 OA 
HETATM   29  H   UNL     1     -10.742   4.505  68.427  1.00  0.00     0.000 HD 
HETATM   30  C   UNL     1     -10.381   7.023  67.915  1.00  0.00    -0.199 C  
HETATM   31  H   UNL     1     -11.009   5.460  71.616  1.00  0.00     0.000 HD 
HETATM   32  O   UNL     1     -10.525   4.955  69.234  1.00  0.00    -0.145 OA 
BRANCH  23  33
HETATM   33  C   UNL     1     -10.628   9.307  71.600  1.00  0.00    -0.290 C  
HETATM   34  O   UNL     1      -9.673   8.550  72.358  1.00  0.00    -0.288 OA 
HETATM   35  H   UNL     1      -9.422   9.043  73.130  1.00  0.00     0.000 HD 
ENDBRANCH  23  33
ENDBRANCH  19  21
ENDBRANCH  13  14
ENDBRANCH  10  13
ENDBRANCH   6   7
ENDBRANCH   1   6
TORSDOF 6
ENDMDL
MODEL       41
REMARK 921   NORMALIZED FREE ENERGY PREDICTED BY IDOCK:   -6.95 KCAL/MOL
REMARK 922        TOTAL FREE ENERGY PREDICTED BY IDOCK:  -10.35 KCAL/MOL
REMARK 923 INTER-LIGAND FREE ENERGY PREDICTED BY IDOCK:   -9.17 KCAL/MOL
REMARK 924 INTRA-LIGAND FREE ENERGY PREDICTED BY IDOCK:   -1.18 KCAL/MOL
REMARK 927      BINDING AFFINITY PREDICTED BY RF-SCORE:    0.00 PKD
ROOT
HETATM    1  C   UNL     1      -9.029  10.651  64.717  1.00  0.00    -0.199 C  
HETATM    2  C   UNL     1      -9.663   9.557  65.556  1.00  0.00    -0.344 C  
HETATM    3  O   UNL     1      -8.422   8.484  63.878  1.00  0.00    -0.134 OA 
HETATM    4  C   UNL     1      -8.800   8.361  65.253  1.00  0.00    -0.069 C  
HETATM    5  C   UNL     1      -8.574   9.863  63.491  1.00  0.00    -0.199 C  
ENDROOT
BRANCH   1   6
HETATM    6  O   UNL     1     -10.035  11.619  64.436  1.00  0.00    -0.251 OA 
BRANCH   6   7
HETATM    7  C   UNL     1     -10.508  12.390  65.457  1.00  0.00    -0.275 A  
HETATM    8  C   UNL     1     -12.195  13.475  66.813  1.00  0.00    -0.392 A  
HETATM    9  C   UNL     1     -11.833  12.763  65.656  1.00  0.00    -0.472 A  
HETATM   10  C   UNL     1     -11.237  13.821  67.781  1.00  0.00    -0.312 A  
HETATM   11  C   UNL     1      -9.549  12.746  66.407  1.00  0.00    -0.254 A  
HETATM   12  C   UNL     1      -9.904  13.462  67.553  1.00  0.00    -0.227 A  
BRANCH  10  13
HETATM   13  C   UNL     1     -11.639  14.494  69.083  1.00  0.00    -0.331 C  
BRANCH  13  14
HETATM   14  C   UNL     1     -12.274  13.527  70.064  1.00  0.00    -0.381 A  
HETATM   15  C   UNL     1     -13.126  13.918  71.106  1.00  0.00    -0.281 A  
HETATM   16 CL   UNL     1     -13.647  15.551  71.313  1.00  0.00    -0.574 Cl 
HETATM   17  C   UNL     1     -13.561  12.985  72.053  1.00  0.00    -0.530 A  
HETATM   18  C   UNL     1     -13.088  11.670  72.016  1.00  0.00    -0.433 A  
HETATM   19  C   UNL     1     -12.196  11.263  71.017  1.00  0.00    -0.417 A  
HETATM   20  C   UNL     1     -11.874  12.179  70.002  1.00  0.00    -0.383 A  
BRANCH  19  21
HETATM   21  C   UNL     1     -11.437   9.951  71.162  1.00  0.00    -0.383 C  
HETATM   22  O   UNL     1     -10.192  10.071  70.446  1.00  0.00    -0.266 OA 
HETATM   23  C   UNL     1      -9.276   9.009  70.731  1.00  0.00    -0.245 C  
HETATM   24  H   UNL     1     -13.837   7.696  71.281  1.00  0.00     0.000 HD 
HETATM   25  C   UNL     1      -9.874   7.681  70.270  1.00  0.00    -0.180 C  
HETATM   26  O   UNL     1     -13.377   8.488  71.533  1.00  0.00    -0.331 OA 
HETATM   27  C   UNL     1     -11.232   7.461  70.953  1.00  0.00    -0.270 C  
HETATM   28  O   UNL     1      -9.022   6.568  70.562  1.00  0.00    -0.150 OA 
HETATM   29  H   UNL     1     -12.657   6.112  70.888  1.00  0.00     0.000 HD 
HETATM   30  C   UNL     1     -12.186   8.661  70.751  1.00  0.00    -0.012 C  
HETATM   31  H   UNL     1      -9.394   5.742  70.275  1.00  0.00     0.000 HD 
HETATM   32  O   UNL     1     -11.817   6.248  70.465  1.00  0.00    -0.319 OA 
BRANCH  23  33
HETATM   33  C   UNL     1      -7.959   9.321  70.014  1.00  0.00    -0.121 C  
HETATM   34  O   UNL     1      -7.626  10.703  70.212  1.00  0.00    -0.437 OA 
HETATM   35  H   UNL     1      -6.809  10.897  69.767  1.00  0.00     0.000 HD 
ENDBRANCH  23  33
ENDBRANCH  19  21
ENDBRANCH  13  14
ENDBRANCH  10  13
ENDBRANCH   6   7
ENDBRANCH   1   6
TORSDOF 6
ENDMDL
MODEL       42
REMARK 921   NORMALIZED FREE ENERGY PREDICTED BY IDOCK:   -6.94 KCAL/MOL
REMARK 922        TOTAL FREE ENERGY PREDICTED BY IDOCK:  -10.34 KCAL/MOL
REMARK 923 INTER-LIGAND FREE ENERGY PREDICTED BY IDOCK:  -10.65 KCAL/MOL
REMARK 924 INTRA-LIGAND FREE ENERGY PREDICTED BY IDOCK:    0.31 KCAL/MOL
REMARK 927      BINDING AFFINITY PREDICTED BY RF-SCORE:    0.00 PKD
ROOT
HETATM    1  C   UNL     1     -10.531   6.815  68.843  1.00  0.00    -0.207 C  
HETATM    2  C   UNL     1      -9.520   7.282  67.812  1.00  0.00    -0.143 C  
HETATM    3  O   UNL     1      -9.687   4.953  67.584  1.00  0.00    -0.144 OA 
HETATM    4  C   UNL     1      -9.506   6.149  66.820  1.00  0.00    -0.146 C  
HETATM    5  C   UNL     1     -10.283   5.309  68.846  1.00  0.00    -0.178 C  
ENDROOT
BRANCH   1   6
HETATM    6  O   UNL     1     -10.216   7.451  70.077  1.00  0.00    -0.202 OA 
BRANCH   6   7
HETATM    7  C   UNL     1     -10.766   8.670  70.347  1.00  0.00    -0.224 A  
HETATM    8  C   UNL     1     -11.291  10.999  69.946  1.00  0.00    -0.364 A  
HETATM    9  C   UNL     1     -10.575   9.836  69.613  1.00  0.00    -0.260 A  
HETATM   10  C   UNL     1     -12.203  11.008  71.015  1.00  0.00    -0.456 A  
HETATM   11  C   UNL     1     -11.658   8.678  71.420  1.00  0.00    -0.354 A  
HETATM   12  C   UNL     1     -12.364   9.835  71.760  1.00  0.00    -0.470 A  
BRANCH  10  13
HETATM   13  C   UNL     1     -13.059  12.229  71.311  1.00  0.00    -0.208 C  
BRANCH  13  14
HETATM   14  C   UNL     1     -12.357  13.528  70.966  1.00  0.00    -0.422 A  
HETATM   15  C   UNL     1     -12.354  14.658  71.796  1.00  0.00    -0.346 A  
HETATM   16 CL   UNL     1     -13.057  14.652  73.373  1.00  0.00    -0.524 Cl 
HETATM   17  C   UNL     1     -11.802  15.863  71.347  1.00  0.00    -0.524 A  
HETATM   18  C   UNL     1     -11.320  15.975  70.041  1.00  0.00    -0.353 A  
HETATM   19  C   UNL     1     -11.356  14.878  69.172  1.00  0.00    -0.309 A  
HETATM   20  C   UNL     1     -11.794  13.644  69.682  1.00  0.00    -0.396 A  
BRANCH  19  21
HETATM   21  C   UNL     1     -11.142  15.080  67.678  1.00  0.00    -0.316 C  
HETATM   22  O   UNL     1     -11.088  16.497  67.421  1.00  0.00    -0.185 OA 
HETATM   23  C   UNL     1     -10.623  16.811  66.104  1.00  0.00    -0.210 C  
HETATM   24  H   UNL     1     -12.745  12.536  66.331  1.00  0.00     0.000 HD 
HETATM   25  C   UNL     1     -11.602  16.255  65.071  1.00  0.00     0.219 C  
HETATM   26  O   UNL     1     -12.129  12.963  66.915  1.00  0.00    -0.388 OA 
HETATM   27  C   UNL     1     -11.761  14.740  65.273  1.00  0.00    -0.311 C  
HETATM   28  O   UNL     1     -11.174  16.501  63.727  1.00  0.00    -1.389 OA 
HETATM   29  H   UNL     1     -12.829  13.302  64.471  1.00  0.00     0.000 HD 
HETATM   30  C   UNL     1     -12.146  14.386  66.728  1.00  0.00    -0.365 C  
HETATM   31  H   UNL     1     -11.783  16.155  63.084  1.00  0.00     0.000 HD 
HETATM   32  O   UNL     1     -12.731  14.238  64.345  1.00  0.00    -0.661 OA 
BRANCH  23  33
HETATM   33  C   UNL     1     -10.492  18.334  66.004  1.00  0.00    -0.361 C  
HETATM   34  O   UNL     1     -10.831  18.924  67.267  1.00  0.00    -0.458 OA 
HETATM   35  H   UNL     1     -10.750  19.869  67.206  1.00  0.00     0.000 HD 
ENDBRANCH  23  33
ENDBRANCH  19  21
ENDBRANCH  13  14
ENDBRANCH  10  13
ENDBRANCH   6   7
ENDBRANCH   1   6
TORSDOF 6
ENDMDL
MODEL       43
REMARK 921   NORMALIZED FREE ENERGY PREDICTED BY IDOCK:   -6.93 KCAL/MOL
REMARK 922        TOTAL FREE ENERGY PREDICTED BY IDOCK:  -10.32 KCAL/MOL
REMARK 923 INTER-LIGAND FREE ENERGY PREDICTED BY IDOCK:   -8.80 KCAL/MOL
REMARK 924 INTRA-LIGAND FREE ENERGY PREDICTED BY IDOCK:   -1.52 KCAL/MOL
REMARK 927      BINDING AFFINITY PREDICTED BY RF-SCORE:    0.00 PKD
ROOT
HETATM    1  C   UNL     1     -12.771  15.495  71.392  1.00  0.00    -0.451 C  
HETATM    2  C   UNL     1     -12.526  13.997  71.383  1.00  0.00    -0.438 C  
HETATM    3  O   UNL     1     -13.782  14.461  73.309  1.00  0.00    -0.427 OA 
HETATM    4  C   UNL     1     -13.611  13.476  72.286  1.00  0.00    -0.592 C  
HETATM    5  C   UNL     1     -13.255  15.710  72.824  1.00  0.00    -0.516 C  
ENDROOT
BRANCH   1   6
HETATM    6  O   UNL     1     -11.534  16.137  71.102  1.00  0.00    -0.413 OA 
BRANCH   6   7
HETATM    7  C   UNL     1     -10.976  15.962  69.870  1.00  0.00    -0.343 A  
HETATM    8  C   UNL     1      -9.197  15.512  68.291  1.00  0.00    -0.188 A  
HETATM    9  C   UNL     1      -9.621  15.789  69.602  1.00  0.00    -0.233 A  
HETATM   10  C   UNL     1     -10.119  15.406  67.236  1.00  0.00    -0.238 A  
HETATM   11  C   UNL     1     -11.895  15.874  68.824  1.00  0.00    -0.277 A  
HETATM   12  C   UNL     1     -11.474  15.608  67.518  1.00  0.00    -0.121 A  
BRANCH  10  13
HETATM   13  C   UNL     1      -9.678  14.999  65.839  1.00  0.00    -0.376 C  
BRANCH  13  14
HETATM   14  C   UNL     1     -10.242  13.655  65.421  1.00  0.00    -0.330 A  
HETATM   15  C   UNL     1     -11.322  13.501  64.542  1.00  0.00    -0.365 A  
HETATM   16 CL   UNL     1     -12.060  14.839  63.736  1.00  0.00    -0.017 Cl 
HETATM   17  C   UNL     1     -11.874  12.236  64.313  1.00  0.00    -0.482 A  
HETATM   18  C   UNL     1     -11.404  11.124  65.017  1.00  0.00     0.097 A  
HETATM   19  C   UNL     1     -10.360  11.255  65.940  1.00  0.00    -0.304 A  
HETATM   20  C   UNL     1      -9.735  12.508  66.059  1.00  0.00    -0.247 A  
BRANCH  19  21
HETATM   21  C   UNL     1     -10.073  10.135  66.931  1.00  0.00    -0.223 C  
HETATM   22  O   UNL     1     -10.191   8.879  66.235  1.00  0.00    -0.284 OA 
HETATM   23  C   UNL     1      -9.683   7.772  66.985  1.00  0.00    -0.197 C  
HETATM   24  H   UNL     1     -11.225  11.328  69.778  1.00  0.00     0.000 HD 
HETATM   25  C   UNL     1     -10.505   7.599  68.262  1.00  0.00    -0.174 C  
HETATM   26  O   UNL     1     -10.713  11.335  68.978  1.00  0.00    -0.206 OA 
HETATM   27  C   UNL     1     -10.474   8.901  69.076  1.00  0.00    -0.214 C  
HETATM   28  O   UNL     1     -10.023   6.529  69.080  1.00  0.00    -0.142 OA 
HETATM   29  H   UNL     1     -11.283   9.560  70.739  1.00  0.00     0.000 HD 
HETATM   30  C   UNL     1     -10.907  10.124  68.233  1.00  0.00    -0.252 C  
HETATM   31  H   UNL     1     -10.535   6.422  69.874  1.00  0.00     0.000 HD 
HETATM   32  O   UNL     1     -11.302   8.755  70.236  1.00  0.00    -0.239 OA 
BRANCH  23  33
HETATM   33  C   UNL     1      -9.750   6.529  66.091  1.00  0.00     0.073 C  
HETATM   34  O   UNL     1     -11.067   5.963  66.161  1.00  0.00    -0.683 OA 
HETATM   35  H   UNL     1     -11.108   5.193  65.607  1.00  0.00     0.000 HD 
ENDBRANCH  23  33
ENDBRANCH  19  21
ENDBRANCH  13  14
ENDBRANCH  10  13
ENDBRANCH   6   7
ENDBRANCH   1   6
TORSDOF 6
ENDMDL
MODEL       44
REMARK 921   NORMALIZED FREE ENERGY PREDICTED BY IDOCK:   -6.91 KCAL/MOL
REMARK 922        TOTAL FREE ENERGY PREDICTED BY IDOCK:  -10.30 KCAL/MOL
REMARK 923 INTER-LIGAND FREE ENERGY PREDICTED BY IDOCK:   -9.38 KCAL/MOL
REMARK 924 INTRA-LIGAND FREE ENERGY PREDICTED BY IDOCK:   -0.92 KCAL/MOL
REMARK 927      BINDING AFFINITY PREDICTED BY RF-SCORE:    0.00 PKD
ROOT
HETATM    1  C   UNL     1     -12.151   8.339  70.851  1.00  0.00    -0.137 C  
HETATM    2  C   UNL     1     -13.113   7.260  71.314  1.00  0.00    -0.363 C  
HETATM    3  O   UNL     1     -13.746   9.238  72.405  1.00  0.00    -0.465 OA 
HETATM    4  C   UNL     1     -14.290   8.054  71.815  1.00  0.00    -0.478 C  
HETATM    5  C   UNL     1     -12.423   9.441  71.872  1.00  0.00    -0.390 C  
ENDROOT
BRANCH   1   6
HETATM    6  O   UNL     1     -10.834   7.803  70.922  1.00  0.00    -0.230 OA 
BRANCH   6   7
HETATM    7  C   UNL     1      -9.834   8.426  70.235  1.00  0.00    -0.181 A  
HETATM    8  C   UNL     1      -8.748   9.394  68.301  1.00  0.00    -0.124 A  
HETATM    9  C   UNL     1      -9.794   8.642  68.861  1.00  0.00    -0.184 A  
HETATM   10  C   UNL     1      -7.731   9.938  69.105  1.00  0.00    -0.098 A  
HETATM   11  C   UNL     1      -8.819   8.949  71.038  1.00  0.00    -0.285 A  
HETATM   12  C   UNL     1      -7.772   9.689  70.481  1.00  0.00    -0.152 A  
BRANCH  10  13
HETATM   13  C   UNL     1      -6.660  10.842  68.519  1.00  0.00    -0.055 C  
BRANCH  13  14
HETATM   14  C   UNL     1      -7.123  12.279  68.383  1.00  0.00    -0.094 A  
HETATM   15  C   UNL     1      -6.848  13.281  69.323  1.00  0.00    -0.031 A  
HETATM   16 CL   UNL     1      -5.836  13.011  70.696  1.00  0.00    -0.163 Cl 
HETATM   17  C   UNL     1      -7.427  14.548  69.197  1.00  0.00    -0.118 A  
HETATM   18  C   UNL     1      -8.347  14.805  68.178  1.00  0.00    -0.144 A  
HETATM   19  C   UNL     1      -8.681  13.808  67.253  1.00  0.00    -0.226 A  
HETATM   20  C   UNL     1      -7.993  12.586  67.319  1.00  0.00    -0.173 A  
BRANCH  19  21
HETATM   21  C   UNL     1      -9.904  13.975  66.360  1.00  0.00    -0.296 C  
HETATM   22  O   UNL     1      -9.897  12.912  65.388  1.00  0.00    -0.224 OA 
HETATM   23  C   UNL     1     -11.130  12.803  64.668  1.00  0.00    -0.318 C  
HETATM   24  H   UNL     1     -10.301  17.243  66.223  1.00  0.00     0.000 HD 
HETATM   25  C   UNL     1     -11.366  14.079  63.862  1.00  0.00     0.146 C  
HETATM   26  O   UNL     1     -10.190  16.399  66.645  1.00  0.00    -0.277 OA 
HETATM   27  C   UNL     1     -11.361  15.293  64.803  1.00  0.00    -0.391 C  
HETATM   28  O   UNL     1     -12.605  14.051  63.147  1.00  0.00    -1.062 OA 
HETATM   29  H   UNL     1     -11.513  17.241  64.615  1.00  0.00     0.000 HD 
HETATM   30  C   UNL     1     -10.084  15.349  65.673  1.00  0.00    -0.376 C  
HETATM   31  H   UNL     1     -12.752  14.845  62.645  1.00  0.00     0.000 HD 
HETATM   32  O   UNL     1     -11.515  16.491  64.033  1.00  0.00    -1.137 OA 
BRANCH  23  33
HETATM   33  C   UNL     1     -11.038  11.567  63.767  1.00  0.00    -0.390 C  
HETATM   34  O   UNL     1     -12.225  11.474  62.965  1.00  0.00    -0.968 OA 
HETATM   35  H   UNL     1     -12.168  10.708  62.406  1.00  0.00     0.000 HD 
ENDBRANCH  23  33
ENDBRANCH  19  21
ENDBRANCH  13  14
ENDBRANCH  10  13
ENDBRANCH   6   7
ENDBRANCH   1   6
TORSDOF 6
ENDMDL
MODEL       45
REMARK 921   NORMALIZED FREE ENERGY PREDICTED BY IDOCK:   -6.87 KCAL/MOL
REMARK 922        TOTAL FREE ENERGY PREDICTED BY IDOCK:  -10.24 KCAL/MOL
REMARK 923 INTER-LIGAND FREE ENERGY PREDICTED BY IDOCK:   -9.35 KCAL/MOL
REMARK 924 INTRA-LIGAND FREE ENERGY PREDICTED BY IDOCK:   -0.89 KCAL/MOL
REMARK 927      BINDING AFFINITY PREDICTED BY RF-SCORE:    0.00 PKD
ROOT
HETATM    1  C   UNL     1     -10.070   5.371  71.063  1.00  0.00    -0.216 C  
HETATM    2  C   UNL     1     -11.322   6.082  71.545  1.00  0.00    -0.309 C  
HETATM    3  O   UNL     1     -10.965   4.283  73.008  1.00  0.00    -0.201 OA 
HETATM    4  C   UNL     1     -11.428   5.637  72.979  1.00  0.00    -0.192 C  
HETATM    5  C   UNL     1     -10.153   4.059  71.840  1.00  0.00    -0.144 C  
ENDROOT
BRANCH   1   6
HETATM    6  O   UNL     1     -10.180   5.211  69.653  1.00  0.00    -0.241 OA 
BRANCH   6   7
HETATM    7  C   UNL     1      -9.955   6.290  68.849  1.00  0.00    -0.153 A  
HETATM    8  C   UNL     1      -8.697   8.149  67.942  1.00  0.00    -0.128 A  
HETATM    9  C   UNL     1      -8.851   7.135  68.904  1.00  0.00    -0.130 A  
HETATM   10  C   UNL     1      -9.642   8.328  66.917  1.00  0.00    -0.269 A  
HETATM   11  C   UNL     1     -10.905   6.473  67.844  1.00  0.00    -0.383 A  
HETATM   12  C   UNL     1     -10.759   7.486  66.892  1.00  0.00    -0.299 A  
BRANCH  10  13
HETATM   13  C   UNL     1      -9.425   9.349  65.813  1.00  0.00    -0.325 C  
BRANCH  13  14
HETATM   14  C   UNL     1     -10.365  10.533  65.925  1.00  0.00    -0.275 A  
HETATM   15  C   UNL     1     -10.674  11.388  64.858  1.00  0.00    -0.286 A  
HETATM   16 CL   UNL     1     -10.106  11.109  63.251  1.00  0.00    -0.410 Cl 
HETATM   17  C   UNL     1     -11.439  12.539  65.073  1.00  0.00    -0.368 A  
HETATM   18  C   UNL     1     -11.837  12.891  66.365  1.00  0.00    -0.478 A  
HETATM   19  C   UNL     1     -11.499  12.084  67.458  1.00  0.00    -0.403 A  
HETATM   20  C   UNL     1     -10.843  10.868  67.205  1.00  0.00    -0.342 A  
BRANCH  19  21
HETATM   21  C   UNL     1     -11.640  12.622  68.876  1.00  0.00    -0.317 C  
HETATM   22  O   UNL     1     -12.401  11.669  69.643  1.00  0.00    -0.216 OA 
HETATM   23  C   UNL     1     -12.371  11.929  71.050  1.00  0.00    -0.259 C  
HETATM   24  H   UNL     1     -11.774  15.885  68.439  1.00  0.00     0.000 HD 
HETATM   25  C   UNL     1     -13.024  13.281  71.333  1.00  0.00    -0.311 C  
HETATM   26  O   UNL     1     -11.414  15.011  68.345  1.00  0.00    -0.295 OA 
HETATM   27  C   UNL     1     -12.305  14.379  70.535  1.00  0.00    -0.345 C  
HETATM   28  O   UNL     1     -12.992  13.621  72.723  1.00  0.00    -0.367 OA 
HETATM   29  H   UNL     1     -12.520  16.311  70.259  1.00  0.00     0.000 HD 
HETATM   30  C   UNL     1     -12.227  14.045  69.028  1.00  0.00    -0.245 C  
HETATM   31  H   UNL     1     -13.398  14.463  72.900  1.00  0.00     0.000 HD 
HETATM   32  O   UNL     1     -12.964  15.632  70.753  1.00  0.00    -0.478 OA 
BRANCH  23  33
HETATM   33  C   UNL     1     -13.104  10.783  71.754  1.00  0.00    -0.468 C  
HETATM   34  O   UNL     1     -13.761   9.965  70.775  1.00  0.00    -0.497 OA 
HETATM   35  H   UNL     1     -14.215   9.254  71.211  1.00  0.00     0.000 HD 
ENDBRANCH  23  33
ENDBRANCH  19  21
ENDBRANCH  13  14
ENDBRANCH  10  13
ENDBRANCH   6   7
ENDBRANCH   1   6
TORSDOF 6
ENDMDL
MODEL       46
REMARK 921   NORMALIZED FREE ENERGY PREDICTED BY IDOCK:   -6.86 KCAL/MOL
REMARK 922        TOTAL FREE ENERGY PREDICTED BY IDOCK:  -10.23 KCAL/MOL
REMARK 923 INTER-LIGAND FREE ENERGY PREDICTED BY IDOCK:   -8.60 KCAL/MOL
REMARK 924 INTRA-LIGAND FREE ENERGY PREDICTED BY IDOCK:   -1.62 KCAL/MOL
REMARK 927      BINDING AFFINITY PREDICTED BY RF-SCORE:    0.00 PKD
ROOT
HETATM    1  C   UNL     1      -6.421   8.546  66.897  1.00  0.00    -0.057 C  
HETATM    2  C   UNL     1      -7.508   7.555  67.270  1.00  0.00    -0.100 C  
HETATM    3  O   UNL     1      -5.458   6.514  67.740  1.00  0.00    -0.004 OA 
HETATM    4  C   UNL     1      -6.801   6.627  68.221  1.00  0.00    -0.074 C  
HETATM    5  C   UNL     1      -5.185   7.650  66.898  1.00  0.00    -0.023 C  
ENDROOT
BRANCH   1   6
HETATM    6  O   UNL     1      -6.742   9.079  65.616  1.00  0.00    -0.070 OA 
BRANCH   6   7
HETATM    7  C   UNL     1      -7.834   9.888  65.496  1.00  0.00    -0.126 A  
HETATM    8  C   UNL     1     -10.040  10.528  64.731  1.00  0.00    -0.406 A  
HETATM    9  C   UNL     1      -8.935   9.661  64.676  1.00  0.00    -0.274 A  
HETATM   10  C   UNL     1     -10.057  11.628  65.606  1.00  0.00    -0.278 A  
HETATM   11  C   UNL     1      -7.838  10.988  66.355  1.00  0.00    -0.150 A  
HETATM   12  C   UNL     1      -8.932  11.856  66.405  1.00  0.00    -0.180 A  
BRANCH  10  13
HETATM   13  C   UNL     1     -11.291  12.503  65.749  1.00  0.00    -0.373 C  
BRANCH  13  14
HETATM   14  C   UNL     1     -11.557  12.900  67.188  1.00  0.00    -0.421 A  
HETATM   15  C   UNL     1     -11.352  14.191  67.693  1.00  0.00    -0.319 A  
HETATM   16 CL   UNL     1     -10.882  15.515  66.688  1.00  0.00    -0.307 Cl 
HETATM   17  C   UNL     1     -11.487  14.446  69.062  1.00  0.00    -0.314 A  
HETATM   18  C   UNL     1     -11.751  13.401  69.951  1.00  0.00    -0.337 A  
HETATM   19  C   UNL     1     -11.911  12.091  69.482  1.00  0.00    -0.346 A  
HETATM   20  C   UNL     1     -11.900  11.879  68.094  1.00  0.00    -0.338 A  
BRANCH  19  21
HETATM   21  C   UNL     1     -11.871  10.923  70.458  1.00  0.00    -0.360 C  
HETATM   22  O   UNL     1     -11.490   9.741  69.727  1.00  0.00    -0.201 OA 
HETATM   23  C   UNL     1     -11.156   8.639  70.576  1.00  0.00    -0.242 C  
HETATM   24  H   UNL     1     -14.257  11.650  72.610  1.00  0.00     0.000 HD 
HETATM   25  C   UNL     1     -12.385   8.227  71.386  1.00  0.00    -0.299 C  
HETATM   26  O   UNL     1     -13.474  11.808  72.097  1.00  0.00    -0.446 OA 
HETATM   27  C   UNL     1     -12.901   9.430  72.189  1.00  0.00    -0.401 C  
HETATM   28  O   UNL     1     -12.108   7.151  72.288  1.00  0.00    -0.419 OA 
HETATM   29  H   UNL     1     -14.410   9.800  73.389  1.00  0.00     0.000 HD 
HETATM   30  C   UNL     1     -13.148  10.665  71.292  1.00  0.00    -0.359 C  
HETATM   31  H   UNL     1     -12.873   6.895  72.791  1.00  0.00     0.000 HD 
HETATM   32  O   UNL     1     -14.091   9.055  72.892  1.00  0.00    -0.487 OA 
BRANCH  23  33
HETATM   33  C   UNL     1     -10.650   7.498  69.687  1.00  0.00    -0.239 C  
HETATM   34  O   UNL     1     -11.719   6.572  69.447  1.00  0.00    -0.649 OA 
HETATM   35  H   UNL     1     -11.406   5.865  68.896  1.00  0.00     0.000 HD 
ENDBRANCH  23  33
ENDBRANCH  19  21
ENDBRANCH  13  14
ENDBRANCH  10  13
ENDBRANCH   6   7
ENDBRANCH   1   6
TORSDOF 6
ENDMDL
MODEL       47
REMARK 921   NORMALIZED FREE ENERGY PREDICTED BY IDOCK:   -6.83 KCAL/MOL
REMARK 922        TOTAL FREE ENERGY PREDICTED BY IDOCK:  -10.19 KCAL/MOL
REMARK 923 INTER-LIGAND FREE ENERGY PREDICTED BY IDOCK:   -8.64 KCAL/MOL
REMARK 924 INTRA-LIGAND FREE ENERGY PREDICTED BY IDOCK:   -1.55 KCAL/MOL
REMARK 927      BINDING AFFINITY PREDICTED BY RF-SCORE:    0.00 PKD
ROOT
HETATM    1  C   UNL     1      -8.240  10.057  67.583  1.00  0.00    -0.114 C  
HETATM    2  C   UNL     1      -7.894   9.563  66.190  1.00  0.00    -0.100 C  
HETATM    3  O   UNL     1      -9.315   7.956  67.140  1.00  0.00    -0.142 OA 
HETATM    4  C   UNL     1      -9.004   8.590  65.896  1.00  0.00    -0.189 C  
HETATM    5  C   UNL     1      -8.840   8.799  68.206  1.00  0.00    -0.141 C  
ENDROOT
BRANCH   1   6
HETATM    6  O   UNL     1      -7.031  10.484  68.203  1.00  0.00    -0.071 OA 
BRANCH   6   7
HETATM    7  C   UNL     1      -6.668  11.794  68.100  1.00  0.00    -0.064 A  
HETATM    8  C   UNL     1      -5.314  13.664  67.372  1.00  0.00     0.264 A  
HETATM    9  C   UNL     1      -5.509  12.278  67.500  1.00  0.00    -0.118 A  
HETATM   10  C   UNL     1      -6.271  14.580  67.842  1.00  0.00    -0.167 A  
HETATM   11  C   UNL     1      -7.615  12.698  68.583  1.00  0.00    -0.083 A  
HETATM   12  C   UNL     1      -7.418  14.077  68.466  1.00  0.00    -0.124 A  
BRANCH  10  13
HETATM   13  C   UNL     1      -6.116  16.073  67.608  1.00  0.00    -0.180 C  
BRANCH  13  14
HETATM   14  C   UNL     1      -7.449  16.777  67.444  1.00  0.00    -0.187 A  
HETATM   15  C   UNL     1      -7.789  17.968  68.099  1.00  0.00    -0.272 A  
HETATM   16 CL   UNL     1      -6.668  18.838  69.082  1.00  0.00    -0.305 Cl 
HETATM   17  C   UNL     1      -9.088  18.481  68.005  1.00  0.00    -0.319 A  
HETATM   18  C   UNL     1     -10.079  17.772  67.322  1.00  0.00    -0.337 A  
HETATM   19  C   UNL     1      -9.782  16.553  66.701  1.00  0.00    -0.275 A  
HETATM   20  C   UNL     1      -8.446  16.120  66.697  1.00  0.00    -0.315 A  
BRANCH  19  21
HETATM   21  C   UNL     1     -10.908  15.633  66.249  1.00  0.00    -0.262 C  
HETATM   22  O   UNL     1     -10.719  14.350  66.878  1.00  0.00    -0.286 OA 
HETATM   23  C   UNL     1     -11.854  13.489  66.747  1.00  0.00    -0.406 C  
HETATM   24  H   UNL     1     -11.522  16.642  63.173  1.00  0.00     0.000 HD 
HETATM   25  C   UNL     1     -12.092  13.178  65.269  1.00  0.00    -0.429 C  
HETATM   26  O   UNL     1     -11.397  16.739  64.110  1.00  0.00    -1.194 OA 
HETATM   27  C   UNL     1     -12.278  14.488  64.489  1.00  0.00    -0.465 C  
HETATM   28  O   UNL     1     -13.241  12.349  65.065  1.00  0.00    -0.607 OA 
HETATM   29  H   UNL     1     -12.547  15.002  62.614  1.00  0.00     0.000 HD 
HETATM   30  C   UNL     1     -11.111  15.474  64.724  1.00  0.00    -0.407 C  
HETATM   31  H   UNL     1     -13.389  12.156  64.146  1.00  0.00     0.000 HD 
HETATM   32  O   UNL     1     -12.433  14.192  63.096  1.00  0.00    -0.678 OA 
BRANCH  23  33
HETATM   33  C   UNL     1     -11.576  12.220  67.559  1.00  0.00    -0.353 C  
HETATM   34  O   UNL     1     -11.357  11.120  66.664  1.00  0.00    -0.314 OA 
HETATM   35  H   UNL     1     -11.185  10.333  67.167  1.00  0.00     0.000 HD 
ENDBRANCH  23  33
ENDBRANCH  19  21
ENDBRANCH  13  14
ENDBRANCH  10  13
ENDBRANCH   6   7
ENDBRANCH   1   6
TORSDOF 6
ENDMDL
MODEL       48
REMARK 921   NORMALIZED FREE ENERGY PREDICTED BY IDOCK:   -6.83 KCAL/MOL
REMARK 922        TOTAL FREE ENERGY PREDICTED BY IDOCK:  -10.19 KCAL/MOL
REMARK 923 INTER-LIGAND FREE ENERGY PREDICTED BY IDOCK:   -8.76 KCAL/MOL
REMARK 924 INTRA-LIGAND FREE ENERGY PREDICTED BY IDOCK:   -1.44 KCAL/MOL
REMARK 927      BINDING AFFINITY PREDICTED BY RF-SCORE:    0.00 PKD
ROOT
HETATM    1  C   UNL     1     -12.883  13.629  72.088  1.00  0.00    -0.253 C  
HETATM    2  C   UNL     1     -12.027  14.871  71.917  1.00  0.00    -0.432 C  
HETATM    3  O   UNL     1     -14.211  15.613  72.349  1.00  0.00    -0.551 OA 
HETATM    4  C   UNL     1     -12.840  15.935  72.606  1.00  0.00    -0.459 C  
HETATM    5  C   UNL     1     -14.288  14.219  71.997  1.00  0.00    -0.544 C  
ENDROOT
BRANCH   1   6
HETATM    6  O   UNL     1     -12.565  12.736  71.026  1.00  0.00    -0.363 OA 
BRANCH   6   7
HETATM    7  C   UNL     1     -12.577  11.394  71.270  1.00  0.00    -0.374 A  
HETATM    8  C   UNL     1     -13.413   9.323  72.203  1.00  0.00    -0.539 A  
HETATM    9  C   UNL     1     -13.445  10.726  72.128  1.00  0.00    -0.227 A  
HETATM   10  C   UNL     1     -12.515   8.574  71.422  1.00  0.00    -0.327 A  
HETATM   11  C   UNL     1     -11.672  10.657  70.505  1.00  0.00    -0.451 A  
HETATM   12  C   UNL     1     -11.632   9.263  70.584  1.00  0.00    -0.305 A  
BRANCH  10  13
HETATM   13  C   UNL     1     -12.551   7.055  71.417  1.00  0.00    -0.428 C  
BRANCH  13  14
HETATM   14  C   UNL     1     -11.171   6.442  71.274  1.00  0.00    -0.346 A  
HETATM   15  C   UNL     1     -10.208   6.440  72.292  1.00  0.00    -0.185 A  
HETATM   16 CL   UNL     1     -10.535   7.038  73.878  1.00  0.00    -0.399 Cl 
HETATM   17  C   UNL     1      -8.912   5.980  72.038  1.00  0.00    -0.140 A  
HETATM   18  C   UNL     1      -8.541   5.590  70.748  1.00  0.00    -0.128 A  
HETATM   19  C   UNL     1      -9.467   5.629  69.700  1.00  0.00    -0.180 A  
HETATM   20  C   UNL     1     -10.796   5.970  70.002  1.00  0.00    -0.429 A  
BRANCH  19  21
HETATM   21  C   UNL     1      -8.991   5.524  68.257  1.00  0.00    -0.108 C  
HETATM   22  O   UNL     1      -9.042   6.838  67.670  1.00  0.00    -0.119 OA 
HETATM   23  C   UNL     1      -8.368   6.917  66.410  1.00  0.00    -0.125 C  
HETATM   24  H   UNL     1     -10.016   2.530  67.338  1.00  0.00     0.000 HD 
HETATM   25  C   UNL     1      -9.061   6.003  65.401  1.00  0.00     0.105 C  
HETATM   26  O   UNL     1      -9.575   3.165  67.890  1.00  0.00    -0.192 OA 
HETATM   27  C   UNL     1      -9.092   4.566  65.943  1.00  0.00    -0.133 C  
HETATM   28  O   UNL     1      -8.411   6.005  64.126  1.00  0.00    -0.269 OA 
HETATM   29  H   UNL     1      -9.821   2.840  65.358  1.00  0.00     0.000 HD 
HETATM   30  C   UNL     1      -9.710   4.491  67.358  1.00  0.00    -0.178 C  
HETATM   31  H   UNL     1      -8.842   5.436  63.499  1.00  0.00     0.000 HD 
HETATM   32  O   UNL     1      -9.802   3.728  65.023  1.00  0.00    -0.178 OA 
BRANCH  23  33
HETATM   33  C   UNL     1      -8.386   8.382  65.960  1.00  0.00    -0.126 C  
HETATM   34  O   UNL     1      -9.497   8.594  65.078  1.00  0.00    -0.373 OA 
HETATM   35  H   UNL     1      -9.509   9.502  64.799  1.00  0.00     0.000 HD 
ENDBRANCH  23  33
ENDBRANCH  19  21
ENDBRANCH  13  14
ENDBRANCH  10  13
ENDBRANCH   6   7
ENDBRANCH   1   6
TORSDOF 6
ENDMDL
MODEL       49
REMARK 921   NORMALIZED FREE ENERGY PREDICTED BY IDOCK:   -6.81 KCAL/MOL
REMARK 922        TOTAL FREE ENERGY PREDICTED BY IDOCK:  -10.16 KCAL/MOL
REMARK 923 INTER-LIGAND FREE ENERGY PREDICTED BY IDOCK:   -9.28 KCAL/MOL
REMARK 924 INTRA-LIGAND FREE ENERGY PREDICTED BY IDOCK:   -0.89 KCAL/MOL
REMARK 927      BINDING AFFINITY PREDICTED BY RF-SCORE:    0.00 PKD
ROOT
HETATM    1  C   UNL     1      -8.200   9.772  64.693  1.00  0.00    -0.150 C  
HETATM    2  C   UNL     1      -6.835  10.436  64.666  1.00  0.00    -0.013 C  
HETATM    3  O   UNL     1      -6.937   9.031  62.790  1.00  0.00    -0.094 OA 
HETATM    4  C   UNL     1      -6.422  10.293  63.226  1.00  0.00    -0.120 C  
HETATM    5  C   UNL     1      -8.008   8.651  63.675  1.00  0.00    -0.160 C  
ENDROOT
BRANCH   1   6
HETATM    6  O   UNL     1      -8.429   9.309  66.020  1.00  0.00    -0.128 OA 
BRANCH   6   7
HETATM    7  C   UNL     1      -9.332   9.970  66.799  1.00  0.00    -0.160 A  
HETATM    8  C   UNL     1     -11.388  11.152  67.286  1.00  0.00    -0.302 A  
HETATM    9  C   UNL     1     -10.492  10.599  66.356  1.00  0.00    -0.276 A  
HETATM   10  C   UNL     1     -11.137  11.082  68.667  1.00  0.00    -0.294 A  
HETATM   11  C   UNL     1      -9.069   9.912  68.169  1.00  0.00    -0.121 A  
HETATM   12  C   UNL     1      -9.955  10.470  69.095  1.00  0.00    -0.236 A  
BRANCH  10  13
HETATM   13  C   UNL     1     -12.154  11.580  69.680  1.00  0.00    -0.363 C  
BRANCH  13  14
HETATM   14  C   UNL     1     -11.929  13.030  70.065  1.00  0.00    -0.383 A  
HETATM   15  C   UNL     1     -12.625  13.682  71.091  1.00  0.00    -0.371 A  
HETATM   16 CL   UNL     1     -13.743  12.863  72.120  1.00  0.00    -0.568 Cl 
HETATM   17  C   UNL     1     -12.461  15.057  71.294  1.00  0.00    -0.402 A  
HETATM   18  C   UNL     1     -11.662  15.808  70.428  1.00  0.00    -0.390 A  
HETATM   19  C   UNL     1     -10.994  15.192  69.363  1.00  0.00    -0.268 A  
HETATM   20  C   UNL     1     -11.069  13.793  69.254  1.00  0.00    -0.253 A  
BRANCH  19  21
HETATM   21  C   UNL     1     -10.401  16.037  68.244  1.00  0.00    -0.261 C  
HETATM   22  O   UNL     1     -10.226  17.379  68.740  1.00  0.00    -0.327 OA 
HETATM   23  C   UNL     1      -9.430  18.197  67.876  1.00  0.00    -0.281 C  
HETATM   24  H   UNL     1     -11.714  14.722  65.523  1.00  0.00     0.000 HD 
HETATM   25  C   UNL     1     -10.138  18.359  66.531  1.00  0.00    -0.388 C  
HETATM   26  O   UNL     1     -11.249  14.719  66.351  1.00  0.00    -0.336 OA 
HETATM   27  C   UNL     1     -10.406  16.975  65.919  1.00  0.00    -0.298 C  
HETATM   28  O   UNL     1      -9.375  19.137  65.604  1.00  0.00    -0.292 OA 
HETATM   29  H   UNL     1     -11.294  16.277  64.315  1.00  0.00     0.000 HD 
HETATM   30  C   UNL     1     -11.160  16.044  66.896  1.00  0.00    -0.039 C  
HETATM   31  H   UNL     1      -9.815  19.237  64.767  1.00  0.00     0.000 HD 
HETATM   32  O   UNL     1     -11.129  17.132  64.693  1.00  0.00    -1.036 OA 
BRANCH  23  33
HETATM   33  C   UNL     1      -9.215  19.544  68.574  1.00  0.00    -0.356 C  
HETATM   34  O   UNL     1     -10.455  19.986  69.146  1.00  0.00    -0.609 OA 
HETATM   35  H   UNL     1     -10.322  20.821  69.579  1.00  0.00     0.000 HD 
ENDBRANCH  23  33
ENDBRANCH  19  21
ENDBRANCH  13  14
ENDBRANCH  10  13
ENDBRANCH   6   7
ENDBRANCH   1   6
TORSDOF 6
ENDMDL
MODEL       50
REMARK 921   NORMALIZED FREE ENERGY PREDICTED BY IDOCK:   -6.79 KCAL/MOL
REMARK 922        TOTAL FREE ENERGY PREDICTED BY IDOCK:  -10.13 KCAL/MOL
REMARK 923 INTER-LIGAND FREE ENERGY PREDICTED BY IDOCK:   -8.82 KCAL/MOL
REMARK 924 INTRA-LIGAND FREE ENERGY PREDICTED BY IDOCK:   -1.31 KCAL/MOL
REMARK 927      BINDING AFFINITY PREDICTED BY RF-SCORE:    0.00 PKD
ROOT
HETATM    1  C   UNL     1      -7.872   7.252  64.643  1.00  0.00    -0.123 C  
HETATM    2  C   UNL     1      -7.050   6.871  63.425  1.00  0.00    -0.060 C  
HETATM    3  O   UNL     1      -7.056   5.003  64.845  1.00  0.00    -0.059 OA 
HETATM    4  C   UNL     1      -7.078   5.366  63.461  1.00  0.00    -0.047 C  
HETATM    5  C   UNL     1      -7.503   6.134  65.615  1.00  0.00    -0.082 C  
ENDROOT
BRANCH   1   6
HETATM    6  O   UNL     1      -7.446   8.543  65.065  1.00  0.00    -0.083 OA 
BRANCH   6   7
HETATM    7  C   UNL     1      -8.357   9.558  65.100  1.00  0.00    -0.142 A  
HETATM    8  C   UNL     1     -10.299  10.812  64.384  1.00  0.00    -0.405 A  
HETATM    9  C   UNL     1      -9.361   9.789  64.165  1.00  0.00    -0.237 A  
HETATM   10  C   UNL     1     -10.244  11.614  65.537  1.00  0.00    -0.302 A  
HETATM   11  C   UNL     1      -8.287  10.362  66.239  1.00  0.00    -0.146 A  
HETATM   12  C   UNL     1      -9.213  11.386  66.454  1.00  0.00    -0.209 A  
BRANCH  10  13
HETATM   13  C   UNL     1     -11.318  12.648  65.831  1.00  0.00    -0.373 C  
BRANCH  13  14
HETATM   14  C   UNL     1     -11.669  12.718  67.305  1.00  0.00    -0.440 A  
HETATM   15  C   UNL     1     -11.654  13.901  68.055  1.00  0.00    -0.333 A  
HETATM   16 CL   UNL     1     -11.348  15.446  67.346  1.00  0.00    -0.290 Cl 
HETATM   17  C   UNL     1     -11.853  13.863  69.440  1.00  0.00    -0.384 A  
HETATM   18  C   UNL     1     -11.991  12.640  70.099  1.00  0.00    -0.375 A  
HETATM   19  C   UNL     1     -11.959  11.438  69.382  1.00  0.00    -0.407 A  
HETATM   20  C   UNL     1     -11.888  11.504  67.981  1.00  0.00    -0.287 A  
BRANCH  19  21
HETATM   21  C   UNL     1     -11.780  10.116  70.117  1.00  0.00    -0.256 C  
HETATM   22  O   UNL     1     -12.915   9.929  70.986  1.00  0.00    -0.352 OA 
HETATM   23  C   UNL     1     -12.997   8.605  71.525  1.00  0.00    -0.312 C  
HETATM   24  H   UNL     1      -8.514   9.888  70.485  1.00  0.00     0.000 HD 
HETATM   25  C   UNL     1     -11.775   8.334  72.401  1.00  0.00    -0.397 C  
HETATM   26  O   UNL     1      -9.328  10.008  70.010  1.00  0.00    -0.217 OA 
HETATM   27  C   UNL     1     -10.494   8.535  71.577  1.00  0.00    -0.248 C  
HETATM   28  O   UNL     1     -11.776   7.008  72.941  1.00  0.00    -0.516 OA 
HETATM   29  H   UNL     1      -8.561   8.470  71.913  1.00  0.00     0.000 HD 
HETATM   30  C   UNL     1     -10.456   9.921  70.892  1.00  0.00    -0.122 C  
HETATM   31  H   UNL     1     -11.015   6.839  73.486  1.00  0.00     0.000 HD 
HETATM   32  O   UNL     1      -9.353   8.345  72.422  1.00  0.00    -0.242 OA 
BRANCH  23  33
HETATM   33  C   UNL     1     -14.303   8.503  72.319  1.00  0.00    -0.390 C  
HETATM   34  O   UNL     1     -14.084   8.976  73.656  1.00  0.00    -0.983 OA 
HETATM   35  H   UNL     1     -14.894   8.913  74.149  1.00  0.00     0.000 HD 
ENDBRANCH  23  33
ENDBRANCH  19  21
ENDBRANCH  13  14
ENDBRANCH  10  13
ENDBRANCH   6   7
ENDBRANCH   1   6
TORSDOF 6
ENDMDL
MODEL       51
REMARK 921   NORMALIZED FREE ENERGY PREDICTED BY IDOCK:   -6.78 KCAL/MOL
REMARK 922        TOTAL FREE ENERGY PREDICTED BY IDOCK:  -10.12 KCAL/MOL
REMARK 923 INTER-LIGAND FREE ENERGY PREDICTED BY IDOCK:   -9.05 KCAL/MOL
REMARK 924 INTRA-LIGAND FREE ENERGY PREDICTED BY IDOCK:   -1.07 KCAL/MOL
REMARK 927      BINDING AFFINITY PREDICTED BY RF-SCORE:    0.00 PKD
ROOT
HETATM    1  C   UNL     1     -12.733  13.476  71.822  1.00  0.00    -0.244 C  
HETATM    2  C   UNL     1     -13.062  14.234  70.549  1.00  0.00    -0.168 C  
HETATM    3  O   UNL     1     -13.033  15.813  72.284  1.00  0.00    -0.419 OA 
HETATM    4  C   UNL     1     -12.701  15.652  70.902  1.00  0.00    -0.445 C  
HETATM    5  C   UNL     1     -13.096  14.507  72.887  1.00  0.00    -0.519 C  
ENDROOT
BRANCH   1   6
HETATM    6  O   UNL     1     -13.546  12.308  71.852  1.00  0.00    -0.319 OA 
BRANCH   6   7
HETATM    7  C   UNL     1     -12.974  11.101  71.576  1.00  0.00    -0.437 A  
HETATM    8  C   UNL     1     -12.772   8.689  71.609  1.00  0.00    -0.379 A  
HETATM    9  C   UNL     1     -13.392   9.866  72.062  1.00  0.00    -0.532 A  
HETATM   10  C   UNL     1     -11.730   8.733  70.667  1.00  0.00    -0.194 A  
HETATM   11  C   UNL     1     -11.928  11.152  70.653  1.00  0.00    -0.459 A  
HETATM   12  C   UNL     1     -11.304   9.984  70.208  1.00  0.00    -0.376 A  
BRANCH  10  13
HETATM   13  C   UNL     1     -11.131   7.460  70.092  1.00  0.00    -0.265 C  
BRANCH  13  14
HETATM   14  C   UNL     1      -9.869   7.721  69.292  1.00  0.00    -0.173 A  
HETATM   15  C   UNL     1      -8.574   7.533  69.793  1.00  0.00    -0.140 A  
HETATM   16 CL   UNL     1      -8.272   6.859  71.354  1.00  0.00    -0.110 Cl 
HETATM   17  C   UNL     1      -7.461   7.928  69.042  1.00  0.00    -0.097 A  
HETATM   18  C   UNL     1      -7.631   8.585  67.821  1.00  0.00    -0.098 A  
HETATM   19  C   UNL     1      -8.914   8.833  67.319  1.00  0.00    -0.144 A  
HETATM   20  C   UNL     1     -10.013   8.315  68.024  1.00  0.00    -0.224 A  
BRANCH  19  21
HETATM   21  C   UNL     1      -9.107   9.820  66.176  1.00  0.00    -0.161 C  
HETATM   22  O   UNL     1     -10.266  10.626  66.470  1.00  0.00    -0.219 OA 
HETATM   23  C   UNL     1     -10.392  11.762  65.609  1.00  0.00    -0.252 C  
HETATM   24  H   UNL     1      -8.053   8.145  63.542  1.00  0.00     0.000 HD 
HETATM   25  C   UNL     1     -10.588  11.292  64.168  1.00  0.00    -0.373 C  
HETATM   26  O   UNL     1      -7.999   8.508  64.418  1.00  0.00    -0.132 OA 
HETATM   27  C   UNL     1      -9.414  10.392  63.754  1.00  0.00    -0.305 C  
HETATM   28  O   UNL     1     -10.682  12.384  63.247  1.00  0.00    -0.526 OA 
HETATM   29  H   UNL     1      -8.913   9.344  62.172  1.00  0.00     0.000 HD 
HETATM   30  C   UNL     1      -9.196   9.229  64.749  1.00  0.00    -0.095 C  
HETATM   31  H   UNL     1     -10.804  12.092  62.351  1.00  0.00     0.000 HD 
HETATM   32  O   UNL     1      -9.639   9.901  62.427  1.00  0.00    -0.235 OA 
BRANCH  23  33
HETATM   33  C   UNL     1     -11.579  12.596  66.104  1.00  0.00    -0.393 C  
HETATM   34  O   UNL     1     -12.708  12.369  65.248  1.00  0.00    -0.617 OA 
HETATM   35  H   UNL     1     -13.444  12.886  65.555  1.00  0.00     0.000 HD 
ENDBRANCH  23  33
ENDBRANCH  19  21
ENDBRANCH  13  14
ENDBRANCH  10  13
ENDBRANCH   6   7
ENDBRANCH   1   6
TORSDOF 6
ENDMDL
MODEL       52
REMARK 921   NORMALIZED FREE ENERGY PREDICTED BY IDOCK:   -6.76 KCAL/MOL
REMARK 922        TOTAL FREE ENERGY PREDICTED BY IDOCK:  -10.09 KCAL/MOL
REMARK 923 INTER-LIGAND FREE ENERGY PREDICTED BY IDOCK:   -8.95 KCAL/MOL
REMARK 924 INTRA-LIGAND FREE ENERGY PREDICTED BY IDOCK:   -1.14 KCAL/MOL
REMARK 927      BINDING AFFINITY PREDICTED BY RF-SCORE:    0.00 PKD
ROOT
HETATM    1  C   UNL     1      -7.371  18.884  66.808  1.00  0.00    -0.213 C  
HETATM    2  C   UNL     1      -6.764  19.620  65.627  1.00  0.00    -0.301 C  
HETATM    3  O   UNL     1      -7.198  21.233  67.275  1.00  0.00    -0.508 OA 
HETATM    4  C   UNL     1      -6.258  20.893  66.252  1.00  0.00    -0.260 C  
HETATM    5  C   UNL     1      -7.928  20.043  67.630  1.00  0.00    -0.303 C  
ENDROOT
BRANCH   1   6
HETATM    6  O   UNL     1      -8.371  18.006  66.303  1.00  0.00    -0.372 OA 
BRANCH   6   7
HETATM    7  C   UNL     1      -9.132  17.299  67.186  1.00  0.00    -0.227 A  
HETATM    8  C   UNL     1      -9.598  16.081  69.226  1.00  0.00    -0.255 A  
HETATM    9  C   UNL     1      -8.680  16.689  68.352  1.00  0.00    -0.225 A  
HETATM   10  C   UNL     1     -10.975  16.077  68.945  1.00  0.00    -0.309 A  
HETATM   11  C   UNL     1     -10.497  17.284  66.894  1.00  0.00    -0.272 A  
HETATM   12  C   UNL     1     -11.410  16.672  67.757  1.00  0.00     0.058 A  
BRANCH  10  13
HETATM   13  C   UNL     1     -11.981  15.519  69.938  1.00  0.00    -0.381 C  
BRANCH  13  14
HETATM   14  C   UNL     1     -12.128  14.014  69.832  1.00  0.00    -0.406 A  
HETATM   15  C   UNL     1     -12.378  13.174  70.926  1.00  0.00    -0.307 A  
HETATM   16 CL   UNL     1     -12.667  13.784  72.515  1.00  0.00    -0.284 Cl 
HETATM   17  C   UNL     1     -12.362  11.784  70.768  1.00  0.00    -0.433 A  
HETATM   18  C   UNL     1     -12.021  11.217  69.538  1.00  0.00    -0.425 A  
HETATM   19  C   UNL     1     -11.717  12.030  68.440  1.00  0.00    -0.390 A  
HETATM   20  C   UNL     1     -11.864  13.419  68.583  1.00  0.00    -0.397 A  
BRANCH  19  21
HETATM   21  C   UNL     1     -11.038  11.434  67.214  1.00  0.00    -0.303 C  
HETATM   22  O   UNL     1      -9.650  11.213  67.533  1.00  0.00    -0.167 OA 
HETATM   23  C   UNL     1      -8.972  10.410  66.562  1.00  0.00    -0.145 C  
HETATM   24  H   UNL     1     -12.647  12.830  64.701  1.00  0.00     0.000 HD 
HETATM   25  C   UNL     1      -8.961  11.137  65.217  1.00  0.00    -0.121 C  
HETATM   26  O   UNL     1     -12.560  12.350  65.516  1.00  0.00    -0.616 OA 
HETATM   27  C   UNL     1     -10.402  11.453  64.789  1.00  0.00    -0.294 C  
HETATM   28  O   UNL     1      -8.329  10.369  64.188  1.00  0.00    -0.167 OA 
HETATM   29  H   UNL     1     -11.271  12.388  63.299  1.00  0.00     0.000 HD 
HETATM   30  C   UNL     1     -11.180  12.215  65.887  1.00  0.00    -0.339 C  
HETATM   31  H   UNL     1      -8.322  10.821  63.352  1.00  0.00     0.000 HD 
HETATM   32  O   UNL     1     -10.380  12.193  63.563  1.00  0.00    -0.420 OA 
BRANCH  23  33
HETATM   33  C   UNL     1      -7.554  10.146  67.079  1.00  0.00    -0.092 C  
HETATM   34  O   UNL     1      -7.304  10.974  68.225  1.00  0.00    -0.081 OA 
HETATM   35  H   UNL     1      -6.425  10.810  68.546  1.00  0.00     0.000 HD 
ENDBRANCH  23  33
ENDBRANCH  19  21
ENDBRANCH  13  14
ENDBRANCH  10  13
ENDBRANCH   6   7
ENDBRANCH   1   6
TORSDOF 6
ENDMDL
MODEL       53
REMARK 921   NORMALIZED FREE ENERGY PREDICTED BY IDOCK:   -6.75 KCAL/MOL
REMARK 922        TOTAL FREE ENERGY PREDICTED BY IDOCK:  -10.09 KCAL/MOL
REMARK 923 INTER-LIGAND FREE ENERGY PREDICTED BY IDOCK:   -9.08 KCAL/MOL
REMARK 924 INTRA-LIGAND FREE ENERGY PREDICTED BY IDOCK:   -1.01 KCAL/MOL
REMARK 927      BINDING AFFINITY PREDICTED BY RF-SCORE:    0.00 PKD
ROOT
HETATM    1  C   UNL     1     -10.161   7.191  73.776  1.00  0.00    -0.349 C  
HETATM    2  C   UNL     1      -8.926   6.757  74.545  1.00  0.00    -0.221 C  
HETATM    3  O   UNL     1      -8.309   8.642  73.292  1.00  0.00    -0.408 OA 
HETATM    4  C   UNL     1      -8.081   8.002  74.551  1.00  0.00    -0.225 C  
HETATM    5  C   UNL     1      -9.556   8.156  72.759  1.00  0.00    -0.283 C  
ENDROOT
BRANCH   1   6
HETATM    6  O   UNL     1     -10.737   6.028  73.191  1.00  0.00    -0.234 OA 
BRANCH   6   7
HETATM    7  C   UNL     1     -10.837   5.956  71.833  1.00  0.00    -0.254 A  
HETATM    8  C   UNL     1     -11.638   6.586  69.637  1.00  0.00    -0.348 A  
HETATM    9  C   UNL     1     -11.717   6.683  71.037  1.00  0.00    -0.415 A  
HETATM   10  C   UNL     1     -10.680   5.764  69.019  1.00  0.00    -0.354 A  
HETATM   11  C   UNL     1      -9.895   5.125  71.225  1.00  0.00    -0.239 A  
HETATM   12  C   UNL     1      -9.820   5.020  69.834  1.00  0.00    -0.296 A  
BRANCH  10  13
HETATM   13  C   UNL     1     -10.518   5.739  67.508  1.00  0.00    -0.310 C  
BRANCH  13  14
HETATM   14  C   UNL     1      -9.763   6.947  66.985  1.00  0.00    -0.210 A  
HETATM   15  C   UNL     1      -8.368   7.007  66.873  1.00  0.00    -0.118 A  
HETATM   16 CL   UNL     1      -7.351   5.652  67.209  1.00  0.00    -0.076 Cl 
HETATM   17  C   UNL     1      -7.738   8.203  66.515  1.00  0.00    -0.093 A  
HETATM   18  C   UNL     1      -8.486   9.370  66.341  1.00  0.00    -0.131 A  
HETATM   19  C   UNL     1      -9.878   9.353  66.496  1.00  0.00    -0.325 A  
HETATM   20  C   UNL     1     -10.503   8.117  66.728  1.00  0.00    -0.316 A  
BRANCH  19  21
HETATM   21  C   UNL     1     -10.646  10.660  66.630  1.00  0.00    -0.214 C  
HETATM   22  O   UNL     1     -10.809  11.223  65.314  1.00  0.00    -0.266 OA 
HETATM   23  C   UNL     1     -11.743  12.307  65.277  1.00  0.00    -0.361 C  
HETATM   24  H   UNL     1      -9.651  11.828  69.546  1.00  0.00     0.000 HD 
HETATM   25  C   UNL     1     -11.225  13.456  66.141  1.00  0.00    -0.295 C  
HETATM   26  O   UNL     1     -10.003  11.183  68.944  1.00  0.00    -0.201 OA 
HETATM   27  C   UNL     1     -10.986  12.958  67.574  1.00  0.00    -0.255 C  
HETATM   28  O   UNL     1     -12.134  14.561  66.180  1.00  0.00    -0.367 OA 
HETATM   29  H   UNL     1     -10.289  13.714  69.246  1.00  0.00     0.000 HD 
HETATM   30  C   UNL     1     -10.073  11.710  67.611  1.00  0.00    -0.188 C  
HETATM   31  H   UNL     1     -11.813  15.276  66.717  1.00  0.00     0.000 HD 
HETATM   32  O   UNL     1     -10.437  14.022  68.360  1.00  0.00    -0.239 OA 
BRANCH  23  33
HETATM   33  C   UNL     1     -11.918  12.726  63.814  1.00  0.00    -0.510 C  
HETATM   34  O   UNL     1     -12.291  11.581  63.033  1.00  0.00    -0.975 OA 
HETATM   35  H   UNL     1     -12.399  11.841  62.126  1.00  0.00     0.000 HD 
ENDBRANCH  23  33
ENDBRANCH  19  21
ENDBRANCH  13  14
ENDBRANCH  10  13
ENDBRANCH   6   7
ENDBRANCH   1   6
TORSDOF 6
ENDMDL
MODEL       54
REMARK 921   NORMALIZED FREE ENERGY PREDICTED BY IDOCK:   -6.74 KCAL/MOL
REMARK 922        TOTAL FREE ENERGY PREDICTED BY IDOCK:  -10.07 KCAL/MOL
REMARK 923 INTER-LIGAND FREE ENERGY PREDICTED BY IDOCK:   -9.40 KCAL/MOL
REMARK 924 INTRA-LIGAND FREE ENERGY PREDICTED BY IDOCK:   -0.67 KCAL/MOL
REMARK 927      BINDING AFFINITY PREDICTED BY RF-SCORE:    0.00 PKD
ROOT
HETATM    1  C   UNL     1      -9.901   4.311  73.098  1.00  0.00    -0.134 C  
HETATM    2  C   UNL     1     -10.333   3.213  74.052  1.00  0.00    -0.223 C  
HETATM    3  O   UNL     1      -8.465   2.398  72.890  1.00  0.00    -0.065 OA 
HETATM    4  C   UNL     1      -9.091   2.370  74.176  1.00  0.00    -0.073 C  
HETATM    5  C   UNL     1      -8.950   3.551  72.176  1.00  0.00    -0.100 C  
ENDROOT
BRANCH   1   6
HETATM    6  O   UNL     1     -11.067   4.799  72.443  1.00  0.00    -0.114 OA 
BRANCH   6   7
HETATM    7  C   UNL     1     -11.043   6.051  71.903  1.00  0.00    -0.277 A  
HETATM    8  C   UNL     1     -11.399   7.732  70.198  1.00  0.00    -0.121 A  
HETATM    9  C   UNL     1     -11.366   6.383  70.591  1.00  0.00    -0.419 A  
HETATM   10  C   UNL     1     -11.112   8.762  71.110  1.00  0.00    -0.340 A  
HETATM   11  C   UNL     1     -10.740   7.068  72.809  1.00  0.00    -0.306 A  
HETATM   12  C   UNL     1     -10.764   8.409  72.419  1.00  0.00    -0.405 A  
BRANCH  10  13
HETATM   13  C   UNL     1     -11.253  10.224  70.720  1.00  0.00    -0.373 C  
BRANCH  13  14
HETATM   14  C   UNL     1     -10.445  10.576  69.486  1.00  0.00    -0.265 A  
HETATM   15  C   UNL     1      -9.101  10.225  69.307  1.00  0.00    -0.194 A  
HETATM   16 CL   UNL     1      -8.242   9.237  70.433  1.00  0.00    -0.175 Cl 
HETATM   17  C   UNL     1      -8.385  10.706  68.205  1.00  0.00    -0.122 A  
HETATM   18  C   UNL     1      -8.980  11.603  67.314  1.00  0.00    -0.169 A  
HETATM   19  C   UNL     1     -10.306  12.012  67.496  1.00  0.00    -0.217 A  
HETATM   20  C   UNL     1     -11.046  11.419  68.532  1.00  0.00    -0.287 A  
BRANCH  19  21
HETATM   21  C   UNL     1     -10.844  13.217  66.736  1.00  0.00    -0.281 C  
HETATM   22  O   UNL     1     -11.106  12.811  65.379  1.00  0.00    -0.277 OA 
HETATM   23  C   UNL     1     -11.863  13.776  64.641  1.00  0.00    -0.402 C  
HETATM   24  H   UNL     1      -9.280  15.756  68.138  1.00  0.00     0.000 HD 
HETATM   25  C   UNL     1     -11.062  15.072  64.522  1.00  0.00    -0.234 C  
HETATM   26  O   UNL     1      -9.806  14.966  68.117  1.00  0.00    -0.212 OA 
HETATM   27  C   UNL     1     -10.697  15.584  65.923  1.00  0.00    -0.339 C  
HETATM   28  O   UNL     1     -11.781  16.095  63.826  1.00  0.00    -1.404 OA 
HETATM   29  H   UNL     1      -9.664  17.077  66.669  1.00  0.00     0.000 HD 
HETATM   30  C   UNL     1      -9.986  14.504  66.770  1.00  0.00    -0.264 C  
HETATM   31  H   UNL     1     -11.282  16.901  63.752  1.00  0.00     0.000 HD 
HETATM   32  O   UNL     1      -9.889  16.761  65.802  1.00  0.00    -0.505 OA 
BRANCH  23  33
HETATM   33  C   UNL     1     -12.181  13.173  63.269  1.00  0.00    -0.360 C  
HETATM   34  O   UNL     1     -13.112  12.093  63.428  1.00  0.00    -0.752 OA 
HETATM   35  H   UNL     1     -13.309  11.719  62.577  1.00  0.00     0.000 HD 
ENDBRANCH  23  33
ENDBRANCH  19  21
ENDBRANCH  13  14
ENDBRANCH  10  13
ENDBRANCH   6   7
ENDBRANCH   1   6
TORSDOF 6
ENDMDL
MODEL       55
REMARK 921   NORMALIZED FREE ENERGY PREDICTED BY IDOCK:   -6.74 KCAL/MOL
REMARK 922        TOTAL FREE ENERGY PREDICTED BY IDOCK:  -10.06 KCAL/MOL
REMARK 923 INTER-LIGAND FREE ENERGY PREDICTED BY IDOCK:   -8.79 KCAL/MOL
REMARK 924 INTRA-LIGAND FREE ENERGY PREDICTED BY IDOCK:   -1.27 KCAL/MOL
REMARK 927      BINDING AFFINITY PREDICTED BY RF-SCORE:    0.00 PKD
ROOT
HETATM    1  C   UNL     1     -11.488  13.459  65.497  1.00  0.00    -0.305 C  
HETATM    2  C   UNL     1     -12.213  12.198  65.062  1.00  0.00    -0.265 C  
HETATM    3  O   UNL     1     -12.612  13.809  63.403  1.00  0.00    -0.842 OA 
HETATM    4  C   UNL     1     -12.388  12.407  63.581  1.00  0.00    -0.548 C  
HETATM    5  C   UNL     1     -12.107  14.497  64.564  1.00  0.00    -0.484 C  
ENDROOT
BRANCH   1   6
HETATM    6  O   UNL     1     -11.784  13.675  66.872  1.00  0.00    -0.347 OA 
BRANCH   6   7
HETATM    7  C   UNL     1     -11.298  12.796  67.795  1.00  0.00    -0.294 A  
HETATM    8  C   UNL     1     -11.417  11.238  69.644  1.00  0.00    -0.380 A  
HETATM    9  C   UNL     1     -12.022  12.211  68.829  1.00  0.00    -0.292 A  
HETATM   10  C   UNL     1     -10.085  10.841  69.435  1.00  0.00    -0.166 A  
HETATM   11  C   UNL     1      -9.970  12.418  67.593  1.00  0.00    -0.200 A  
HETATM   12  C   UNL     1      -9.364  11.458  68.408  1.00  0.00    -0.194 A  
BRANCH  10  13
HETATM   13  C   UNL     1      -9.462   9.714  70.242  1.00  0.00    -0.300 C  
BRANCH  13  14
HETATM   14  C   UNL     1     -10.118   8.374  69.970  1.00  0.00    -0.192 A  
HETATM   15  C   UNL     1     -11.047   7.771  70.828  1.00  0.00    -0.257 A  
HETATM   16 CL   UNL     1     -11.643   8.554  72.247  1.00  0.00    -0.443 Cl 
HETATM   17  C   UNL     1     -11.502   6.472  70.578  1.00  0.00    -0.448 A  
HETATM   18  C   UNL     1     -10.977   5.733  69.514  1.00  0.00    -0.374 A  
HETATM   19  C   UNL     1     -10.010   6.291  68.670  1.00  0.00    -0.166 A  
HETATM   20  C   UNL     1      -9.662   7.638  68.860  1.00  0.00    -0.156 A  
BRANCH  19  21
HETATM   21  C   UNL     1      -9.210   5.397  67.732  1.00  0.00    -0.109 C  
HETATM   22  O   UNL     1     -10.085   4.960  66.673  1.00  0.00    -0.201 OA 
HETATM   23  C   UNL     1      -9.388   4.339  65.588  1.00  0.00    -0.161 C  
HETATM   24  H   UNL     1      -7.079   3.897  69.748  1.00  0.00     0.000 HD 
HETATM   25  C   UNL     1      -8.698   3.069  66.085  1.00  0.00    -0.132 C  
HETATM   26  O   UNL     1      -7.530   4.635  69.356  1.00  0.00    -0.052 OA 
HETATM   27  C   UNL     1      -7.754   3.415  67.246  1.00  0.00    -0.078 C  
HETATM   28  O   UNL     1      -7.948   2.418  65.054  1.00  0.00    -0.077 OA 
HETATM   29  H   UNL     1      -6.579   2.425  68.468  1.00  0.00     0.000 HD 
HETATM   30  C   UNL     1      -8.475   4.194  68.370  1.00  0.00    -0.092 C  
HETATM   31  H   UNL     1      -7.519   1.628  65.363  1.00  0.00     0.000 HD 
HETATM   32  O   UNL     1      -7.163   2.211  67.750  1.00  0.00    -0.047 OA 
BRANCH  23  33
HETATM   33  C   UNL     1     -10.408   4.041  64.485  1.00  0.00    -0.206 C  
HETATM   34  O   UNL     1     -11.669   4.632  64.831  1.00  0.00    -0.984 OA 
HETATM   35  H   UNL     1     -12.302   4.448  64.147  1.00  0.00     0.000 HD 
ENDBRANCH  23  33
ENDBRANCH  19  21
ENDBRANCH  13  14
ENDBRANCH  10  13
ENDBRANCH   6   7
ENDBRANCH   1   6
TORSDOF 6
ENDMDL
MODEL       56
REMARK 921   NORMALIZED FREE ENERGY PREDICTED BY IDOCK:   -6.73 KCAL/MOL
REMARK 922        TOTAL FREE ENERGY PREDICTED BY IDOCK:  -10.06 KCAL/MOL
REMARK 923 INTER-LIGAND FREE ENERGY PREDICTED BY IDOCK:   -9.24 KCAL/MOL
REMARK 924 INTRA-LIGAND FREE ENERGY PREDICTED BY IDOCK:   -0.82 KCAL/MOL
REMARK 927      BINDING AFFINITY PREDICTED BY RF-SCORE:    0.00 PKD
ROOT
HETATM    1  C   UNL     1      -7.374   9.223  63.878  1.00  0.00    -0.102 C  
HETATM    2  C   UNL     1      -6.034   9.243  64.591  1.00  0.00    -0.070 C  
HETATM    3  O   UNL     1      -6.752   7.009  64.569  1.00  0.00    -0.044 OA 
HETATM    4  C   UNL     1      -5.573   7.814  64.475  1.00  0.00    -0.033 C  
HETATM    5  C   UNL     1      -7.888   7.833  64.243  1.00  0.00    -0.138 C  
ENDROOT
BRANCH   1   6
HETATM    6  O   UNL     1      -8.161  10.284  64.408  1.00  0.00    -0.163 OA 
BRANCH   6   7
HETATM    7  C   UNL     1      -8.733  10.128  65.636  1.00  0.00    -0.158 A  
HETATM    8  C   UNL     1      -8.814  10.137  68.056  1.00  0.00    -0.125 A  
HETATM    9  C   UNL     1      -8.078  10.215  66.861  1.00  0.00    -0.121 A  
HETATM   10  C   UNL     1     -10.210   9.972  68.040  1.00  0.00    -0.216 A  
HETATM   11  C   UNL     1     -10.116   9.947  65.614  1.00  0.00    -0.307 A  
HETATM   12  C   UNL     1     -10.849   9.860  66.800  1.00  0.00    -0.085 A  
BRANCH  10  13
HETATM   13  C   UNL     1     -11.023   9.997  69.323  1.00  0.00    -0.264 C  
BRANCH  13  14
HETATM   14  C   UNL     1     -11.438  11.401  69.720  1.00  0.00    -0.376 A  
HETATM   15  C   UNL     1     -12.185  11.699  70.868  1.00  0.00    -0.298 A  
HETATM   16 CL   UNL     1     -12.615  10.498  72.032  1.00  0.00    -0.337 Cl 
HETATM   17  C   UNL     1     -12.648  13.000  71.092  1.00  0.00    -0.388 A  
HETATM   18  C   UNL     1     -12.439  13.998  70.137  1.00  0.00    -0.380 A  
HETATM   19  C   UNL     1     -11.740  13.717  68.957  1.00  0.00    -0.372 A  
HETATM   20  C   UNL     1     -11.173  12.441  68.810  1.00  0.00    -0.318 A  
BRANCH  19  21
HETATM   21  C   UNL     1     -11.795  14.693  67.789  1.00  0.00    -0.329 C  
HETATM   22  O   UNL     1     -11.609  13.946  66.571  1.00  0.00    -0.337 OA 
HETATM   23  C   UNL     1     -11.908  14.705  65.395  1.00  0.00    -0.304 C  
HETATM   24  H   UNL     1     -10.493  17.448  69.042  1.00  0.00     0.000 HD 
HETATM   25  C   UNL     1     -10.943  15.885  65.290  1.00  0.00    -0.324 C  
HETATM   26  O   UNL     1     -11.083  16.705  69.008  1.00  0.00    -0.301 OA 
HETATM   27  C   UNL     1     -11.034  16.742  66.561  1.00  0.00     0.142 C  
HETATM   28  O   UNL     1     -11.213  16.711  64.152  1.00  0.00    -1.410 OA 
HETATM   29  H   UNL     1     -10.136  18.337  67.271  1.00  0.00     0.000 HD 
HETATM   30  C   UNL     1     -10.833  15.903  67.844  1.00  0.00    -0.327 C  
HETATM   31  H   UNL     1     -10.612  17.445  64.087  1.00  0.00     0.000 HD 
HETATM   32  O   UNL     1     -10.079  17.807  66.485  1.00  0.00    -0.326 OA 
BRANCH  23  33
HETATM   33  C   UNL     1     -11.796  13.767  64.189  1.00  0.00    -0.401 C  
HETATM   34  O   UNL     1     -12.547  14.309  63.093  1.00  0.00    -1.028 OA 
HETATM   35  H   UNL     1     -12.477  13.727  62.346  1.00  0.00     0.000 HD 
ENDBRANCH  23  33
ENDBRANCH  19  21
ENDBRANCH  13  14
ENDBRANCH  10  13
ENDBRANCH   6   7
ENDBRANCH   1   6
TORSDOF 6
ENDMDL
MODEL       57
REMARK 921   NORMALIZED FREE ENERGY PREDICTED BY IDOCK:   -6.72 KCAL/MOL
REMARK 922        TOTAL FREE ENERGY PREDICTED BY IDOCK:  -10.04 KCAL/MOL
REMARK 923 INTER-LIGAND FREE ENERGY PREDICTED BY IDOCK:   -8.65 KCAL/MOL
REMARK 924 INTRA-LIGAND FREE ENERGY PREDICTED BY IDOCK:   -1.39 KCAL/MOL
REMARK 927      BINDING AFFINITY PREDICTED BY RF-SCORE:    0.00 PKD
ROOT
HETATM    1  C   UNL     1      -7.563  18.722  66.308  1.00  0.00    -0.262 C  
HETATM    2  C   UNL     1      -7.406  19.441  67.636  1.00  0.00    -0.277 C  
HETATM    3  O   UNL     1      -6.472  20.839  66.000  1.00  0.00    -0.236 OA 
HETATM    4  C   UNL     1      -7.219  20.875  67.220  1.00  0.00    -0.350 C  
HETATM    5  C   UNL     1      -6.624  19.531  65.417  1.00  0.00    -0.280 C  
ENDROOT
BRANCH   1   6
HETATM    6  O   UNL     1      -7.154  17.372  66.497  1.00  0.00    -0.209 OA 
BRANCH   6   7
HETATM    7  C   UNL     1      -8.096  16.386  66.442  1.00  0.00    -0.322 A  
HETATM    8  C   UNL     1      -9.065  14.223  66.931  1.00  0.00    -0.268 A  
HETATM    9  C   UNL     1      -7.971  15.104  66.967  1.00  0.00    -0.223 A  
HETATM   10  C   UNL     1     -10.293  14.612  66.370  1.00  0.00    -0.293 A  
HETATM   11  C   UNL     1      -9.308  16.773  65.869  1.00  0.00    -0.162 A  
HETATM   12  C   UNL     1     -10.394  15.896  65.823  1.00  0.00    -0.396 A  
BRANCH  10  13
HETATM   13  C   UNL     1     -11.510  13.703  66.426  1.00  0.00    -0.358 C  
BRANCH  13  14
HETATM   14  C   UNL     1     -11.760  13.154  67.818  1.00  0.00    -0.401 A  
HETATM   15  C   UNL     1     -12.021  13.954  68.938  1.00  0.00    -0.358 A  
HETATM   16 CL   UNL     1     -12.208  15.667  68.831  1.00  0.00    -0.181 Cl 
HETATM   17  C   UNL     1     -12.103  13.382  70.212  1.00  0.00    -0.419 A  
HETATM   18  C   UNL     1     -11.848  12.020  70.392  1.00  0.00    -0.302 A  
HETATM   19  C   UNL     1     -11.534  11.205  69.298  1.00  0.00    -0.363 A  
HETATM   20  C   UNL     1     -11.584  11.771  68.014  1.00  0.00    -0.386 A  
BRANCH  19  21
HETATM   21  C   UNL     1     -10.944   9.819  69.524  1.00  0.00    -0.227 C  
HETATM   22  O   UNL     1     -11.724   9.159  70.540  1.00  0.00    -0.247 OA 
HETATM   23  C   UNL     1     -11.438   7.761  70.648  1.00  0.00    -0.245 C  
HETATM   24  H   UNL     1      -7.722  10.274  69.002  1.00  0.00     0.000 HD 
HETATM   25  C   UNL     1      -9.983   7.569  71.075  1.00  0.00    -0.186 C  
HETATM   26  O   UNL     1      -8.649  10.318  68.799  1.00  0.00    -0.123 OA 
HETATM   27  C   UNL     1      -9.054   8.266  70.070  1.00  0.00    -0.150 C  
HETATM   28  O   UNL     1      -9.619   6.188  71.164  1.00  0.00    -0.173 OA 
HETATM   29  H   UNL     1      -7.123   8.570  69.891  1.00  0.00     0.000 HD 
HETATM   30  C   UNL     1      -9.435   9.749  69.857  1.00  0.00    -0.231 C  
HETATM   31  H   UNL     1      -8.714   6.069  71.429  1.00  0.00     0.000 HD 
HETATM   32  O   UNL     1      -7.697   8.139  70.512  1.00  0.00    -0.080 OA 
BRANCH  23  33
HETATM   33  C   UNL     1     -12.415   7.159  71.663  1.00  0.00    -0.370 C  
HETATM   34  O   UNL     1     -11.909   7.367  72.990  1.00  0.00    -0.571 OA 
HETATM   35  H   UNL     1     -12.514   6.994  73.620  1.00  0.00     0.000 HD 
ENDBRANCH  23  33
ENDBRANCH  19  21
ENDBRANCH  13  14
ENDBRANCH  10  13
ENDBRANCH   6   7
ENDBRANCH   1   6
TORSDOF 6
ENDMDL
MODEL       58
REMARK 921   NORMALIZED FREE ENERGY PREDICTED BY IDOCK:   -6.71 KCAL/MOL
REMARK 922        TOTAL FREE ENERGY PREDICTED BY IDOCK:  -10.03 KCAL/MOL
REMARK 923 INTER-LIGAND FREE ENERGY PREDICTED BY IDOCK:   -8.75 KCAL/MOL
REMARK 924 INTRA-LIGAND FREE ENERGY PREDICTED BY IDOCK:   -1.28 KCAL/MOL
REMARK 927      BINDING AFFINITY PREDICTED BY RF-SCORE:    0.00 PKD
ROOT
HETATM    1  C   UNL     1      -9.878  18.219  67.629  1.00  0.00    -0.320 C  
HETATM    2  C   UNL     1     -10.824  19.330  67.211  1.00  0.00    -0.554 C  
HETATM    3  O   UNL     1      -8.755  20.341  67.659  1.00  0.00    -0.320 OA 
HETATM    4  C   UNL     1      -9.884  20.426  66.785  1.00  0.00    -0.400 C  
HETATM    5  C   UNL     1      -8.723  19.018  68.226  1.00  0.00    -0.331 C  
ENDROOT
BRANCH   1   6
HETATM    6  O   UNL     1     -10.562  17.403  68.574  1.00  0.00    -0.364 OA 
BRANCH   6   7
HETATM    7  C   UNL     1     -10.873  16.120  68.231  1.00  0.00    -0.326 A  
HETATM    8  C   UNL     1     -11.908  13.948  68.497  1.00  0.00    -0.401 A  
HETATM    9  C   UNL     1     -11.564  15.206  69.020  1.00  0.00    -0.350 A  
HETATM   10  C   UNL     1     -11.566  13.590  67.182  1.00  0.00    -0.393 A  
HETATM   11  C   UNL     1     -10.515  15.764  66.930  1.00  0.00    -0.315 A  
HETATM   12  C   UNL     1     -10.848  14.510  66.410  1.00  0.00    -0.318 A  
BRANCH  10  13
HETATM   13  C   UNL     1     -12.030  12.276  66.575  1.00  0.00    -0.274 C  
BRANCH  13  14
HETATM   14  C   UNL     1     -10.876  11.425  66.080  1.00  0.00    -0.310 A  
HETATM   15  C   UNL     1     -10.520  11.302  64.731  1.00  0.00    -0.323 A  
HETATM   16 CL   UNL     1     -11.289  12.212  63.481  1.00  0.00    -0.520 Cl 
HETATM   17  C   UNL     1      -9.533  10.390  64.341  1.00  0.00    -0.343 A  
HETATM   18  C   UNL     1      -8.948   9.538  65.281  1.00  0.00    -0.244 A  
HETATM   19  C   UNL     1      -9.321   9.603  66.629  1.00  0.00    -0.200 A  
HETATM   20  C   UNL     1     -10.217  10.611  67.020  1.00  0.00    -0.267 A  
BRANCH  19  21
HETATM   21  C   UNL     1      -8.938   8.478  67.581  1.00  0.00    -0.135 C  
HETATM   22  O   UNL     1     -10.083   8.175  68.402  1.00  0.00    -0.188 OA 
HETATM   23  C   UNL     1      -9.935   6.961  69.145  1.00  0.00    -0.162 C  
HETATM   24  H   UNL     1      -5.744   9.035  68.167  1.00  0.00     0.000 HD 
HETATM   25  C   UNL     1      -8.769   7.100  70.123  1.00  0.00    -0.141 C  
HETATM   26  O   UNL     1      -6.517   8.900  67.632  1.00  0.00    -0.059 OA 
HETATM   27  C   UNL     1      -7.488   7.455  69.352  1.00  0.00    -0.091 C  
HETATM   28  O   UNL     1      -8.541   5.902  70.873  1.00  0.00    -0.128 OA 
HETATM   29  H   UNL     1      -5.624   7.870  69.804  1.00  0.00     0.000 HD 
HETATM   30  C   UNL     1      -7.678   8.697  68.451  1.00  0.00    -0.100 C  
HETATM   31  H   UNL     1      -7.816   5.988  71.481  1.00  0.00     0.000 HD 
HETATM   32  O   UNL     1      -6.415   7.650  70.281  1.00  0.00    -0.037 OA 
BRANCH  23  33
HETATM   33  C   UNL     1     -11.258   6.692  69.870  1.00  0.00    -0.364 C  
HETATM   34  O   UNL     1     -11.802   7.932  70.344  1.00  0.00    -0.471 OA 
HETATM   35  H   UNL     1     -12.622   7.766  70.793  1.00  0.00     0.000 HD 
ENDBRANCH  23  33
ENDBRANCH  19  21
ENDBRANCH  13  14
ENDBRANCH  10  13
ENDBRANCH   6   7
ENDBRANCH   1   6
TORSDOF 6
ENDMDL
MODEL       59
REMARK 921   NORMALIZED FREE ENERGY PREDICTED BY IDOCK:   -6.71 KCAL/MOL
REMARK 922        TOTAL FREE ENERGY PREDICTED BY IDOCK:  -10.03 KCAL/MOL
REMARK 923 INTER-LIGAND FREE ENERGY PREDICTED BY IDOCK:   -8.88 KCAL/MOL
REMARK 924 INTRA-LIGAND FREE ENERGY PREDICTED BY IDOCK:   -1.14 KCAL/MOL
REMARK 927      BINDING AFFINITY PREDICTED BY RF-SCORE:    0.00 PKD
ROOT
HETATM    1  C   UNL     1      -9.946  17.663  67.138  1.00  0.00    -0.316 C  
HETATM    2  C   UNL     1     -10.460  18.733  66.193  1.00  0.00    -0.499 C  
HETATM    3  O   UNL     1     -10.340  19.716  68.319  1.00  0.00    -0.431 OA 
HETATM    4  C   UNL     1     -10.153  20.008  66.931  1.00  0.00    -0.467 C  
HETATM    5  C   UNL     1     -10.254  18.289  68.496  1.00  0.00    -0.379 C  
ENDROOT
BRANCH   1   6
HETATM    6  O   UNL     1     -10.675  16.468  66.878  1.00  0.00    -0.279 OA 
BRANCH   6   7
HETATM    7  C   UNL     1     -10.073  15.267  67.107  1.00  0.00    -0.240 A  
HETATM    8  C   UNL     1      -9.946  12.857  67.308  1.00  0.00    -0.224 A  
HETATM    9  C   UNL     1     -10.708  14.030  67.170  1.00  0.00    -0.283 A  
HETATM   10  C   UNL     1      -8.544  12.907  67.385  1.00  0.00    -0.195 A  
HETATM   11  C   UNL     1      -8.681  15.324  67.199  1.00  0.00    -0.234 A  
HETATM   12  C   UNL     1      -7.922  14.159  67.346  1.00  0.00    -0.201 A  
BRANCH  10  13
HETATM   13  C   UNL     1      -7.710  11.637  67.424  1.00  0.00    -0.147 C  
BRANCH  13  14
HETATM   14  C   UNL     1      -8.553  10.385  67.272  1.00  0.00    -0.126 A  
HETATM   15  C   UNL     1      -8.834   9.777  66.041  1.00  0.00    -0.147 A  
HETATM   16 CL   UNL     1      -8.143  10.327  64.557  1.00  0.00    -0.162 Cl 
HETATM   17  C   UNL     1      -9.732   8.707  65.968  1.00  0.00    -0.238 A  
HETATM   18  C   UNL     1     -10.417   8.283  67.110  1.00  0.00    -0.386 A  
HETATM   19  C   UNL     1     -10.195   8.904  68.344  1.00  0.00    -0.231 A  
HETATM   20  C   UNL     1      -9.197   9.889  68.421  1.00  0.00    -0.130 A  
BRANCH  19  21
HETATM   21  C   UNL     1     -11.161   8.672  69.499  1.00  0.00     0.033 C  
HETATM   22  O   UNL     1     -11.537   9.955  70.035  1.00  0.00    -0.238 OA 
HETATM   23  C   UNL     1     -12.642   9.883  70.941  1.00  0.00    -0.302 C  
HETATM   24  H   UNL     1     -10.118   5.829  70.799  1.00  0.00     0.000 HD 
HETATM   25  C   UNL     1     -12.252   9.042  72.156  1.00  0.00    -0.357 C  
HETATM   26  O   UNL     1     -10.408   6.413  70.107  1.00  0.00    -0.184 OA 
HETATM   27  C   UNL     1     -11.801   7.648  71.696  1.00  0.00    -0.291 C  
HETATM   28  O   UNL     1     -13.329   8.898  73.088  1.00  0.00    -0.926 OA 
HETATM   29  H   UNL     1     -11.094   6.027  72.548  1.00  0.00     0.000 HD 
HETATM   30  C   UNL     1     -10.688   7.722  70.625  1.00  0.00    -0.231 C  
HETATM   31  H   UNL     1     -13.087   8.375  73.843  1.00  0.00     0.000 HD 
HETATM   32  O   UNL     1     -11.373   6.889  72.833  1.00  0.00    -0.245 OA 
BRANCH  23  33
HETATM   33  C   UNL     1     -13.019  11.315  71.336  1.00  0.00    -0.379 C  
HETATM   34  O   UNL     1     -12.052  12.227  70.794  1.00  0.00    -0.447 OA 
HETATM   35  H   UNL     1     -12.286  13.115  71.038  1.00  0.00     0.000 HD 
ENDBRANCH  23  33
ENDBRANCH  19  21
ENDBRANCH  13  14
ENDBRANCH  10  13
ENDBRANCH   6   7
ENDBRANCH   1   6
TORSDOF 6
ENDMDL
MODEL       60
REMARK 921   NORMALIZED FREE ENERGY PREDICTED BY IDOCK:   -6.71 KCAL/MOL
REMARK 922        TOTAL FREE ENERGY PREDICTED BY IDOCK:  -10.03 KCAL/MOL
REMARK 923 INTER-LIGAND FREE ENERGY PREDICTED BY IDOCK:   -8.82 KCAL/MOL
REMARK 924 INTRA-LIGAND FREE ENERGY PREDICTED BY IDOCK:   -1.21 KCAL/MOL
REMARK 927      BINDING AFFINITY PREDICTED BY RF-SCORE:    0.00 PKD
ROOT
HETATM    1  C   UNL     1      -6.972   6.181  68.763  1.00  0.00    -0.076 C  
HETATM    2  C   UNL     1      -7.263   5.433  67.475  1.00  0.00    -0.075 C  
HETATM    3  O   UNL     1      -5.390   4.403  68.443  1.00  0.00    -0.010 OA 
HETATM    4  C   UNL     1      -6.573   4.113  67.693  1.00  0.00    -0.042 C  
HETATM    5  C   UNL     1      -5.570   5.676  69.093  1.00  0.00    -0.008 C  
ENDROOT
BRANCH   1   6
HETATM    6  O   UNL     1      -7.027   7.575  68.475  1.00  0.00    -0.073 OA 
BRANCH   6   7
HETATM    7  C   UNL     1      -8.220   8.224  68.595  1.00  0.00    -0.120 A  
HETATM    8  C   UNL     1     -10.363   9.070  67.851  1.00  0.00    -0.290 A  
HETATM    9  C   UNL     1      -9.118   8.483  67.564  1.00  0.00    -0.146 A  
HETATM   10  C   UNL     1     -10.722   9.404  69.168  1.00  0.00    -0.216 A  
HETATM   11  C   UNL     1      -8.564   8.569  69.902  1.00  0.00    -0.131 A  
HETATM   12  C   UNL     1      -9.797   9.161  70.189  1.00  0.00    -0.229 A  
BRANCH  10  13
HETATM   13  C   UNL     1     -12.107   9.937  69.497  1.00  0.00     0.299 C  
BRANCH  13  14
HETATM   14  C   UNL     1     -12.100  11.422  69.803  1.00  0.00    -0.388 A  
HETATM   15  C   UNL     1     -12.581  11.976  70.997  1.00  0.00    -0.273 A  
HETATM   16 CL   UNL     1     -13.129  11.003  72.315  1.00  0.00    -0.326 Cl 
HETATM   17  C   UNL     1     -12.669  13.363  71.148  1.00  0.00    -0.411 A  
HETATM   18  C   UNL     1     -12.352  14.211  70.084  1.00  0.00    -0.413 A  
HETATM   19  C   UNL     1     -11.918  13.685  68.861  1.00  0.00    -0.392 A  
HETATM   20  C   UNL     1     -11.713  12.299  68.772  1.00  0.00    -0.390 A  
BRANCH  19  21
HETATM   21  C   UNL     1     -11.889  14.566  67.619  1.00  0.00    -0.364 C  
HETATM   22  O   UNL     1     -11.793  13.710  66.464  1.00  0.00    -0.360 OA 
HETATM   23  C   UNL     1     -12.030  14.401  65.233  1.00  0.00    -0.382 C  
HETATM   24  H   UNL     1     -10.307  17.269  68.644  1.00  0.00     0.000 HD 
HETATM   25  C   UNL     1     -10.954  15.467  65.030  1.00  0.00    -0.436 C  
HETATM   26  O   UNL     1     -10.968  16.587  68.671  1.00  0.00    -0.328 OA 
HETATM   27  C   UNL     1     -10.945  16.426  66.229  1.00  0.00     0.052 C  
HETATM   28  O   UNL     1     -11.155  16.223  63.832  1.00  0.00    -1.111 OA 
HETATM   29  H   UNL     1      -9.885  17.975  66.806  1.00  0.00     0.000 HD 
HETATM   30  C   UNL     1     -10.812  15.675  67.574  1.00  0.00    -0.316 C  
HETATM   31  H   UNL     1     -10.486  16.886  63.706  1.00  0.00     0.000 HD 
HETATM   32  O   UNL     1      -9.890  17.382  66.064  1.00  0.00    -0.448 OA 
BRANCH  23  33
HETATM   33  C   UNL     1     -12.025  13.363  64.105  1.00  0.00    -0.450 C  
HETATM   34  O   UNL     1     -12.640  13.927  62.938  1.00  0.00    -0.966 OA 
HETATM   35  H   UNL     1     -12.638  13.284  62.239  1.00  0.00     0.000 HD 
ENDBRANCH  23  33
ENDBRANCH  19  21
ENDBRANCH  13  14
ENDBRANCH  10  13
ENDBRANCH   6   7
ENDBRANCH   1   6
TORSDOF 6
ENDMDL
MODEL       61
REMARK 921   NORMALIZED FREE ENERGY PREDICTED BY IDOCK:   -6.67 KCAL/MOL
REMARK 922        TOTAL FREE ENERGY PREDICTED BY IDOCK:   -9.97 KCAL/MOL
REMARK 923 INTER-LIGAND FREE ENERGY PREDICTED BY IDOCK:   -9.24 KCAL/MOL
REMARK 924 INTRA-LIGAND FREE ENERGY PREDICTED BY IDOCK:   -0.73 KCAL/MOL
REMARK 927      BINDING AFFINITY PREDICTED BY RF-SCORE:    0.00 PKD
ROOT
HETATM    1  C   UNL     1     -10.442   8.021  68.482  1.00  0.00    -0.164 C  
HETATM    2  C   UNL     1     -10.401   7.665  67.007  1.00  0.00    -0.400 C  
HETATM    3  O   UNL     1     -10.363   5.638  68.189  1.00  0.00    -0.181 OA 
HETATM    4  C   UNL     1     -10.875   6.236  66.994  1.00  0.00    -0.383 C  
HETATM    5  C   UNL     1     -10.052   6.691  69.122  1.00  0.00    -0.169 C  
ENDROOT
BRANCH   1   6
HETATM    6  O   UNL     1      -9.498   9.063  68.702  1.00  0.00    -0.145 OA 
BRANCH   6   7
HETATM    7  C   UNL     1      -9.940  10.352  68.745  1.00  0.00    -0.188 A  
HETATM    8  C   UNL     1      -9.871  12.730  68.297  1.00  0.00    -0.224 A  
HETATM    9  C   UNL     1      -9.249  11.470  68.287  1.00  0.00    -0.186 A  
HETATM   10  C   UNL     1     -11.188  12.887  68.763  1.00  0.00    -0.323 A  
HETATM   11  C   UNL     1     -11.242  10.504  69.224  1.00  0.00    -0.320 A  
HETATM   12  C   UNL     1     -11.859  11.757  69.243  1.00  0.00    -0.389 A  
BRANCH  10  13
HETATM   13  C   UNL     1     -11.903  14.225  68.673  1.00  0.00    -0.379 C  
BRANCH  13  14
HETATM   14  C   UNL     1     -11.518  15.007  67.433  1.00  0.00    -0.326 A  
HETATM   15  C   UNL     1     -11.635  14.510  66.128  1.00  0.00    -0.365 A  
HETATM   16 CL   UNL     1     -12.353  12.978  65.781  1.00  0.00    -0.509 Cl 
HETATM   17  C   UNL     1     -11.129  15.237  65.045  1.00  0.00    -0.436 A  
HETATM   18  C   UNL     1     -10.433  16.430  65.260  1.00  0.00    -0.285 A  
HETATM   19  C   UNL     1     -10.256  16.926  66.557  1.00  0.00    -0.320 A  
HETATM   20  C   UNL     1     -10.881  16.249  67.617  1.00  0.00    -0.293 A  
BRANCH  19  21
HETATM   21  C   UNL     1      -9.236  18.026  66.819  1.00  0.00    -0.280 C  
HETATM   22  O   UNL     1      -8.067  17.753  66.023  1.00  0.00    -0.484 OA 
HETATM   23  C   UNL     1      -7.151  18.852  65.975  1.00  0.00    -0.266 C  
HETATM   24  H   UNL     1      -9.763  18.812  69.975  1.00  0.00     0.000 HD 
HETATM   25  C   UNL     1      -6.620  19.136  67.380  1.00  0.00    -0.193 C  
HETATM   26  O   UNL     1     -10.000  18.653  69.069  1.00  0.00    -0.385 OA 
HETATM   27  C   UNL     1      -7.794  19.413  68.330  1.00  0.00    -0.328 C  
HETATM   28  O   UNL     1      -5.725  20.252  67.409  1.00  0.00    -0.175 OA 
HETATM   29  H   UNL     1      -8.020  19.782  70.244  1.00  0.00     0.000 HD 
HETATM   30  C   UNL     1      -8.850  18.284  68.295  1.00  0.00    -0.287 C  
HETATM   31  H   UNL     1      -5.395  20.429  68.283  1.00  0.00     0.000 HD 
HETATM   32  O   UNL     1      -7.293  19.611  69.657  1.00  0.00    -0.252 OA 
BRANCH  23  33
HETATM   33  C   UNL     1      -6.025  18.483  65.003  1.00  0.00    -0.211 C  
HETATM   34  O   UNL     1      -6.023  19.407  63.906  1.00  0.00    -0.393 OA 
HETATM   35  H   UNL     1      -5.325  19.179  63.303  1.00  0.00     0.000 HD 
ENDBRANCH  23  33
ENDBRANCH  19  21
ENDBRANCH  13  14
ENDBRANCH  10  13
ENDBRANCH   6   7
ENDBRANCH   1   6
TORSDOF 6
ENDMDL
MODEL       62
REMARK 921   NORMALIZED FREE ENERGY PREDICTED BY IDOCK:   -6.66 KCAL/MOL
REMARK 922        TOTAL FREE ENERGY PREDICTED BY IDOCK:   -9.97 KCAL/MOL
REMARK 923 INTER-LIGAND FREE ENERGY PREDICTED BY IDOCK:   -9.84 KCAL/MOL
REMARK 924 INTRA-LIGAND FREE ENERGY PREDICTED BY IDOCK:   -0.13 KCAL/MOL
REMARK 927      BINDING AFFINITY PREDICTED BY RF-SCORE:    0.00 PKD
ROOT
HETATM    1  C   UNL     1     -10.397   7.057  68.022  1.00  0.00    -0.193 C  
HETATM    2  C   UNL     1      -9.596   6.589  66.821  1.00  0.00    -0.198 C  
HETATM    3  O   UNL     1     -10.402   4.660  67.884  1.00  0.00    -0.017 OA 
HETATM    4  C   UNL     1     -10.123   5.199  66.589  1.00  0.00    -0.237 C  
HETATM    5  C   UNL     1     -10.548   5.756  68.806  1.00  0.00    -0.251 C  
ENDROOT
BRANCH   1   6
HETATM    6  O   UNL     1      -9.628   8.048  68.696  1.00  0.00    -0.146 OA 
BRANCH   6   7
HETATM    7  C   UNL     1     -10.263   9.148  69.192  1.00  0.00    -0.207 A  
HETATM    8  C   UNL     1     -11.410  11.277  69.085  1.00  0.00    -0.349 A  
HETATM    9  C   UNL     1     -10.670  10.259  68.460  1.00  0.00    -0.262 A  
HETATM   10  C   UNL     1     -11.753  11.196  70.445  1.00  0.00    -0.415 A  
HETATM   11  C   UNL     1     -10.586   9.069  70.548  1.00  0.00    -0.274 A  
HETATM   12  C   UNL     1     -11.314  10.085  71.173  1.00  0.00    -0.397 A  
BRANCH  10  13
HETATM   13  C   UNL     1     -12.645  12.238  71.098  1.00  0.00    -0.353 C  
BRANCH  13  14
HETATM   14  C   UNL     1     -12.120  13.649  70.915  1.00  0.00    -0.330 A  
HETATM   15  C   UNL     1     -12.073  14.604  71.939  1.00  0.00    -0.299 A  
HETATM   16 CL   UNL     1     -12.499  14.234  73.571  1.00  0.00    -0.137 Cl 
HETATM   17  C   UNL     1     -11.706  15.924  71.659  1.00  0.00    -0.563 A  
HETATM   18  C   UNL     1     -11.459  16.324  70.343  1.00  0.00    -0.265 A  
HETATM   19  C   UNL     1     -11.549  15.404  69.292  1.00  0.00    -0.354 A  
HETATM   20  C   UNL     1     -11.792  14.058  69.608  1.00  0.00    -0.386 A  
BRANCH  19  21
HETATM   21  C   UNL     1     -11.605  15.896  67.851  1.00  0.00    -0.109 C  
HETATM   22  O   UNL     1     -11.622  14.745  66.985  1.00  0.00    -0.362 OA 
HETATM   23  C   UNL     1     -11.946  15.068  65.628  1.00  0.00     0.031 C  
HETATM   24  H   UNL     1      -9.887  18.706  67.943  1.00  0.00     0.000 HD 
HETATM   25  C   UNL     1     -10.868  15.986  65.051  1.00  0.00    -0.404 C  
HETATM   26  O   UNL     1     -10.558  18.090  68.212  1.00  0.00    -0.363 OA 
HETATM   27  C   UNL     1     -10.740  17.244  65.923  1.00  0.00    -0.126 C  
HETATM   28  O   UNL     1     -11.151  16.380  63.705  1.00  0.00    -1.063 OA 
HETATM   29  H   UNL     1      -9.604  18.844  65.954  1.00  0.00     0.000 HD 
HETATM   30  C   UNL     1     -10.512  16.899  67.412  1.00  0.00    -0.310 C  
HETATM   31  H   UNL     1     -10.481  16.951  63.346  1.00  0.00     0.000 HD 
HETATM   32  O   UNL     1      -9.683  18.067  65.415  1.00  0.00    -0.059 OA 
BRANCH  23  33
HETATM   33  C   UNL     1     -12.056  13.755  64.847  1.00  0.00    -0.403 C  
HETATM   34  O   UNL     1     -12.206  14.045  63.449  1.00  0.00    -1.039 OA 
HETATM   35  H   UNL     1     -12.274  13.231  62.964  1.00  0.00     0.000 HD 
ENDBRANCH  23  33
ENDBRANCH  19  21
ENDBRANCH  13  14
ENDBRANCH  10  13
ENDBRANCH   6   7
ENDBRANCH   1   6
TORSDOF 6
ENDMDL
MODEL       63
REMARK 921   NORMALIZED FREE ENERGY PREDICTED BY IDOCK:   -6.65 KCAL/MOL
REMARK 922        TOTAL FREE ENERGY PREDICTED BY IDOCK:   -9.95 KCAL/MOL
REMARK 923 INTER-LIGAND FREE ENERGY PREDICTED BY IDOCK:   -8.67 KCAL/MOL
REMARK 924 INTRA-LIGAND FREE ENERGY PREDICTED BY IDOCK:   -1.28 KCAL/MOL
REMARK 927      BINDING AFFINITY PREDICTED BY RF-SCORE:    0.00 PKD
ROOT
HETATM    1  C   UNL     1     -11.850  14.378  65.316  1.00  0.00    -0.373 C  
HETATM    2  C   UNL     1     -10.506  15.084  65.336  1.00  0.00    -0.406 C  
HETATM    3  O   UNL     1     -11.873  16.281  63.851  1.00  0.00    -0.994 OA 
HETATM    4  C   UNL     1     -10.844  16.461  64.829  1.00  0.00    -0.178 C  
HETATM    5  C   UNL     1     -12.499  15.005  64.085  1.00  0.00    -0.026 C  
ENDROOT
BRANCH   1   6
HETATM    6  O   UNL     1     -11.603  12.982  65.186  1.00  0.00    -0.305 OA 
BRANCH   6   7
HETATM    7  C   UNL     1     -11.383  12.246  66.313  1.00  0.00    -0.345 A  
HETATM    8  C   UNL     1     -10.411  10.471  67.642  1.00  0.00    -0.276 A  
HETATM    9  C   UNL     1     -10.645  11.069  66.392  1.00  0.00    -0.308 A  
HETATM   10  C   UNL     1     -10.912  11.042  68.825  1.00  0.00    -0.270 A  
HETATM   11  C   UNL     1     -11.897  12.808  67.483  1.00  0.00    -0.402 A  
HETATM   12  C   UNL     1     -11.674  12.210  68.726  1.00  0.00    -0.374 A  
BRANCH  10  13
HETATM   13  C   UNL     1     -10.571  10.461  70.187  1.00  0.00    -0.245 C  
BRANCH  13  14
HETATM   14  C   UNL     1     -11.498   9.329  70.584  1.00  0.00    -0.327 A  
HETATM   15  C   UNL     1     -12.657   9.502  71.354  1.00  0.00    -0.359 A  
HETATM   16 CL   UNL     1     -13.224  11.059  71.837  1.00  0.00    -0.568 Cl 
HETATM   17  C   UNL     1     -13.384   8.392  71.797  1.00  0.00    -0.378 A  
HETATM   18  C   UNL     1     -12.922   7.098  71.542  1.00  0.00    -0.431 A  
HETATM   19  C   UNL     1     -11.741   6.894  70.820  1.00  0.00    -0.417 A  
HETATM   20  C   UNL     1     -11.095   8.016  70.275  1.00  0.00    -0.224 A  
BRANCH  19  21
HETATM   21  C   UNL     1     -11.071   5.526  70.825  1.00  0.00    -0.031 C  
HETATM   22  O   UNL     1     -10.481   5.320  72.123  1.00  0.00    -0.209 OA 
HETATM   23  C   UNL     1     -10.060   3.970  72.339  1.00  0.00    -0.175 C  
HETATM   24  H   UNL     1     -10.024   5.185  67.719  1.00  0.00     0.000 HD 
HETATM   25  C   UNL     1      -8.960   3.611  71.341  1.00  0.00    -0.104 C  
HETATM   26  O   UNL     1     -10.655   5.356  68.408  1.00  0.00    -0.163 OA 
HETATM   27  C   UNL     1      -9.473   3.826  69.909  1.00  0.00    -0.197 C  
HETATM   28  O   UNL     1      -8.519   2.257  71.478  1.00  0.00    -0.060 OA 
HETATM   29  H   UNL     1      -8.734   3.686  68.096  1.00  0.00     0.000 HD 
HETATM   30  C   UNL     1     -10.043   5.248  69.702  1.00  0.00    -0.257 C  
HETATM   31  H   UNL     1      -7.835   2.034  70.856  1.00  0.00     0.000 HD 
HETATM   32  O   UNL     1      -8.416   3.553  68.981  1.00  0.00    -0.066 OA 
BRANCH  23  33
HETATM   33  C   UNL     1      -9.573   3.857  73.788  1.00  0.00    -0.105 C  
HETATM   34  O   UNL     1      -8.174   4.170  73.846  1.00  0.00    -0.091 OA 
HETATM   35  H   UNL     1      -7.872   4.100  74.744  1.00  0.00     0.000 HD 
ENDBRANCH  23  33
ENDBRANCH  19  21
ENDBRANCH  13  14
ENDBRANCH  10  13
ENDBRANCH   6   7
ENDBRANCH   1   6
TORSDOF 6
ENDMDL
MODEL       64
REMARK 921   NORMALIZED FREE ENERGY PREDICTED BY IDOCK:   -6.64 KCAL/MOL
REMARK 922        TOTAL FREE ENERGY PREDICTED BY IDOCK:   -9.93 KCAL/MOL
REMARK 923 INTER-LIGAND FREE ENERGY PREDICTED BY IDOCK:   -8.93 KCAL/MOL
REMARK 924 INTRA-LIGAND FREE ENERGY PREDICTED BY IDOCK:   -1.00 KCAL/MOL
REMARK 927      BINDING AFFINITY PREDICTED BY RF-SCORE:    0.00 PKD
ROOT
HETATM    1  C   UNL     1      -8.512   7.864  65.459  1.00  0.00    -0.139 C  
HETATM    2  C   UNL     1      -7.761   8.975  64.747  1.00  0.00    -0.109 C  
HETATM    3  O   UNL     1      -7.365   7.008  63.531  1.00  0.00    -0.065 OA 
HETATM    4  C   UNL     1      -7.569   8.414  63.363  1.00  0.00    -0.129 C  
HETATM    5  C   UNL     1      -7.897   6.625  64.814  1.00  0.00    -0.115 C  
ENDROOT
BRANCH   1   6
HETATM    6  O   UNL     1      -8.239   7.981  66.852  1.00  0.00    -0.112 OA 
BRANCH   6   7
HETATM    7  C   UNL     1      -9.079   8.726  67.626  1.00  0.00    -0.134 A  
HETATM    8  C   UNL     1     -11.168   9.785  68.237  1.00  0.00    -0.074 A  
HETATM    9  C   UNL     1     -10.376   9.105  67.295  1.00  0.00    -0.338 A  
HETATM   10  C   UNL     1     -10.674  10.092  69.516  1.00  0.00    -0.277 A  
HETATM   11  C   UNL     1      -8.577   9.043  68.889  1.00  0.00    -0.131 A  
HETATM   12  C   UNL     1      -9.359   9.727  69.823  1.00  0.00    -0.249 A  
BRANCH  10  13
HETATM   13  C   UNL     1     -11.561  10.728  70.573  1.00  0.00    -0.425 C  
BRANCH  13  14
HETATM   14  C   UNL     1     -11.810  12.201  70.312  1.00  0.00    -0.339 A  
HETATM   15  C   UNL     1     -12.684  12.992  71.071  1.00  0.00    -0.262 A  
HETATM   16 CL   UNL     1     -13.490  12.395  72.477  1.00  0.00    -0.349 Cl 
HETATM   17  C   UNL     1     -12.967  14.306  70.683  1.00  0.00    -0.318 A  
HETATM   18  C   UNL     1     -12.442  14.819  69.494  1.00  0.00    -0.135 A  
HETATM   19  C   UNL     1     -11.607  14.035  68.689  1.00  0.00    -0.360 A  
HETATM   20  C   UNL     1     -11.232  12.767  69.160  1.00  0.00    -0.294 A  
BRANCH  19  21
HETATM   21  C   UNL     1     -11.307  14.464  67.259  1.00  0.00    -0.342 C  
HETATM   22  O   UNL     1     -11.167  15.897  67.240  1.00  0.00    -0.234 OA 
HETATM   23  C   UNL     1     -10.619  16.392  66.013  1.00  0.00    -0.269 C  
HETATM   24  H   UNL     1     -12.967  12.270  65.446  1.00  0.00     0.000 HD 
HETATM   25  C   UNL     1     -11.571  16.069  64.862  1.00  0.00    -0.009 C  
HETATM   26  O   UNL     1     -12.361  12.559  66.117  1.00  0.00    -0.596 OA 
HETATM   27  C   UNL     1     -11.819  14.554  64.806  1.00  0.00    -0.441 C  
HETATM   28  O   UNL     1     -11.064  16.503  63.596  1.00  0.00    -0.834 OA 
HETATM   29  H   UNL     1     -12.917  13.329  63.735  1.00  0.00     0.000 HD 
HETATM   30  C   UNL     1     -12.295  13.992  66.166  1.00  0.00    -0.458 C  
HETATM   31  H   UNL     1     -11.656  16.302  62.880  1.00  0.00     0.000 HD 
HETATM   32  O   UNL     1     -12.764  14.266  63.769  1.00  0.00    -0.779 OA 
BRANCH  23  33
HETATM   33  C   UNL     1     -10.405  17.901  66.170  1.00  0.00    -0.352 C  
HETATM   34  O   UNL     1     -11.194  18.597  65.194  1.00  0.00    -0.259 OA 
HETATM   35  H   UNL     1     -11.061  19.533  65.291  1.00  0.00     0.000 HD 
ENDBRANCH  23  33
ENDBRANCH  19  21
ENDBRANCH  13  14
ENDBRANCH  10  13
ENDBRANCH   6   7
ENDBRANCH   1   6
TORSDOF 6
ENDMDL
MODEL       65
REMARK 921   NORMALIZED FREE ENERGY PREDICTED BY IDOCK:   -6.64 KCAL/MOL
REMARK 922        TOTAL FREE ENERGY PREDICTED BY IDOCK:   -9.93 KCAL/MOL
REMARK 923 INTER-LIGAND FREE ENERGY PREDICTED BY IDOCK:   -9.16 KCAL/MOL
REMARK 924 INTRA-LIGAND FREE ENERGY PREDICTED BY IDOCK:   -0.77 KCAL/MOL
REMARK 927      BINDING AFFINITY PREDICTED BY RF-SCORE:    0.00 PKD
ROOT
HETATM    1  C   UNL     1     -11.612  15.006  69.830  1.00  0.00    -0.304 C  
HETATM    2  C   UNL     1     -11.181  16.355  70.376  1.00  0.00    -0.253 C  
HETATM    3  O   UNL     1     -12.895  15.579  71.777  1.00  0.00    -0.377 OA 
HETATM    4  C   UNL     1     -11.665  16.309  71.800  1.00  0.00    -0.429 C  
HETATM    5  C   UNL     1     -12.927  14.788  70.574  1.00  0.00    -0.286 C  
ENDROOT
BRANCH   1   6
HETATM    6  O   UNL     1     -11.765  15.138  68.421  1.00  0.00    -0.330 OA 
BRANCH   6   7
HETATM    7  C   UNL     1     -11.200  14.201  67.607  1.00  0.00    -0.297 A  
HETATM    8  C   UNL     1      -9.406  12.854  66.696  1.00  0.00    -0.240 A  
HETATM    9  C   UNL     1      -9.841  13.923  67.499  1.00  0.00    -0.236 A  
HETATM   10  C   UNL     1     -10.324  12.053  65.994  1.00  0.00    -0.271 A  
HETATM   11  C   UNL     1     -12.114  13.420  66.899  1.00  0.00    -0.406 A  
HETATM   12  C   UNL     1     -11.684  12.363  66.093  1.00  0.00    -0.460 A  
BRANCH  10  13
HETATM   13  C   UNL     1      -9.869  10.831  65.213  1.00  0.00    -0.329 C  
BRANCH  13  14
HETATM   14  C   UNL     1      -9.601   9.637  66.108  1.00  0.00    -0.295 A  
HETATM   15  C   UNL     1      -8.908   8.491  65.695  1.00  0.00    -0.173 A  
HETATM   16 CL   UNL     1      -8.171   8.364  64.139  1.00  0.00    -0.148 Cl 
HETATM   17  C   UNL     1      -8.823   7.375  66.534  1.00  0.00    -0.165 A  
HETATM   18  C   UNL     1      -9.492   7.362  67.761  1.00  0.00    -0.154 A  
HETATM   19  C   UNL     1     -10.234   8.473  68.178  1.00  0.00    -0.254 A  
HETATM   20  C   UNL     1     -10.202   9.629  67.381  1.00  0.00    -0.283 A  
BRANCH  19  21
HETATM   21  C   UNL     1     -11.216   8.343  69.336  1.00  0.00     0.227 C  
HETATM   22  O   UNL     1     -11.383   9.644  69.930  1.00  0.00    -0.230 OA 
HETATM   23  C   UNL     1     -12.479   9.705  70.849  1.00  0.00    -0.238 C  
HETATM   24  H   UNL     1     -10.618   5.319  70.499  1.00  0.00     0.000 HD 
HETATM   25  C   UNL     1     -12.215   8.762  72.022  1.00  0.00    -0.377 C  
HETATM   26  O   UNL     1     -10.819   5.970  69.838  1.00  0.00    -0.296 OA 
HETATM   27  C   UNL     1     -11.990   7.336  71.497  1.00  0.00    -0.316 C  
HETATM   28  O   UNL     1     -13.295   8.745  72.961  1.00  0.00    -0.846 OA 
HETATM   29  H   UNL     1     -11.538   5.589  72.270  1.00  0.00     0.000 HD 
HETATM   30  C   UNL     1     -10.888   7.282  70.414  1.00  0.00    -0.246 C  
HETATM   31  H   UNL     1     -13.131   8.158  73.691  1.00  0.00     0.000 HD 
HETATM   32  O   UNL     1     -11.677   6.470  72.595  1.00  0.00    -0.207 OA 
BRANCH  23  33
HETATM   33  C   UNL     1     -12.625  11.160  71.308  1.00  0.00    -0.398 C  
HETATM   34  O   UNL     1     -13.602  11.231  72.357  1.00  0.00    -0.536 OA 
HETATM   35  H   UNL     1     -13.693  12.132  72.642  1.00  0.00     0.000 HD 
ENDBRANCH  23  33
ENDBRANCH  19  21
ENDBRANCH  13  14
ENDBRANCH  10  13
ENDBRANCH   6   7
ENDBRANCH   1   6
TORSDOF 6
ENDMDL
MODEL       66
REMARK 921   NORMALIZED FREE ENERGY PREDICTED BY IDOCK:   -6.63 KCAL/MOL
REMARK 922        TOTAL FREE ENERGY PREDICTED BY IDOCK:   -9.93 KCAL/MOL
REMARK 923 INTER-LIGAND FREE ENERGY PREDICTED BY IDOCK:   -8.89 KCAL/MOL
REMARK 924 INTRA-LIGAND FREE ENERGY PREDICTED BY IDOCK:   -1.03 KCAL/MOL
REMARK 927      BINDING AFFINITY PREDICTED BY RF-SCORE:    0.00 PKD
ROOT
HETATM    1  C   UNL     1     -12.878   9.909  71.306  1.00  0.00    -0.390 C  
HETATM    2  C   UNL     1     -11.469   9.427  71.603  1.00  0.00    -0.463 C  
HETATM    3  O   UNL     1     -12.900   8.255  73.046  1.00  0.00    -0.066 OA 
HETATM    4  C   UNL     1     -11.705   8.101  72.275  1.00  0.00    -0.379 C  
HETATM    5  C   UNL     1     -13.640   9.370  72.513  1.00  0.00    -0.370 C  
ENDROOT
BRANCH   1   6
HETATM    6  O   UNL     1     -12.843  11.331  71.238  1.00  0.00    -0.393 OA 
BRANCH   6   7
HETATM    7  C   UNL     1     -12.290  11.923  70.140  1.00  0.00    -0.171 A  
HETATM    8  C   UNL     1     -11.172  13.674  68.898  1.00  0.00    -0.309 A  
HETATM    9  C   UNL     1     -11.814  13.228  70.066  1.00  0.00    -0.365 A  
HETATM   10  C   UNL     1     -10.998  12.822  67.794  1.00  0.00    -0.266 A  
HETATM   11  C   UNL     1     -12.135  11.077  69.041  1.00  0.00    -0.285 A  
HETATM   12  C   UNL     1     -11.505  11.521  67.876  1.00  0.00    -0.372 A  
BRANCH  10  13
HETATM   13  C   UNL     1     -10.208  13.264  66.573  1.00  0.00    -0.283 C  
BRANCH  13  14
HETATM   14  C   UNL     1      -8.819  13.757  66.928  1.00  0.00    -0.203 A  
HETATM   15  C   UNL     1      -7.872  12.993  67.623  1.00  0.00    -0.166 A  
HETATM   16 CL   UNL     1      -8.147  11.343  68.051  1.00  0.00    -0.127 Cl 
HETATM   17  C   UNL     1      -6.664  13.566  68.034  1.00  0.00    -0.138 A  
HETATM   18  C   UNL     1      -6.421  14.926  67.825  1.00  0.00    -0.183 A  
HETATM   19  C   UNL     1      -7.370  15.726  67.179  1.00  0.00    -0.257 A  
HETATM   20  C   UNL     1      -8.518  15.106  66.660  1.00  0.00    -0.230 A  
BRANCH  19  21
HETATM   21  C   UNL     1      -7.256  17.244  67.241  1.00  0.00    -0.165 C  
HETATM   22  O   UNL     1      -8.497  17.766  67.755  1.00  0.00    -0.230 OA 
HETATM   23  C   UNL     1      -8.419  19.149  68.113  1.00  0.00    -0.320 C  
HETATM   24  H   UNL     1      -5.320  17.966  64.675  1.00  0.00     0.000 HD 
HETATM   25  C   UNL     1      -8.120  19.983  66.868  1.00  0.00    -0.321 C  
HETATM   26  O   UNL     1      -5.569  17.520  65.476  1.00  0.00    -0.140 OA 
HETATM   27  C   UNL     1      -6.821  19.489  66.215  1.00  0.00    -0.220 C  
HETATM   28  O   UNL     1      -7.990  21.378  67.164  1.00  0.00    -0.705 OA 
HETATM   29  H   UNL     1      -5.780  19.924  64.609  1.00  0.00     0.000 HD 
HETATM   30  C   UNL     1      -6.852  17.969  65.936  1.00  0.00    -0.297 C  
HETATM   31  H   UNL     1      -7.804  21.896  66.390  1.00  0.00     0.000 HD 
HETATM   32  O   UNL     1      -6.583  20.230  65.012  1.00  0.00    -0.278 OA 
BRANCH  23  33
HETATM   33  C   UNL     1      -9.752  19.543  68.757  1.00  0.00    -0.438 C  
HETATM   34  O   UNL     1     -10.697  19.875  67.730  1.00  0.00    -0.367 OA 
HETATM   35  H   UNL     1     -11.524  20.119  68.129  1.00  0.00     0.000 HD 
ENDBRANCH  23  33
ENDBRANCH  19  21
ENDBRANCH  13  14
ENDBRANCH  10  13
ENDBRANCH   6   7
ENDBRANCH   1   6
TORSDOF 6
ENDMDL
MODEL       67
REMARK 921   NORMALIZED FREE ENERGY PREDICTED BY IDOCK:   -6.62 KCAL/MOL
REMARK 922        TOTAL FREE ENERGY PREDICTED BY IDOCK:   -9.90 KCAL/MOL
REMARK 923 INTER-LIGAND FREE ENERGY PREDICTED BY IDOCK:   -8.65 KCAL/MOL
REMARK 924 INTRA-LIGAND FREE ENERGY PREDICTED BY IDOCK:   -1.25 KCAL/MOL
REMARK 927      BINDING AFFINITY PREDICTED BY RF-SCORE:    0.00 PKD
ROOT
HETATM    1  C   UNL     1      -7.540  19.066  67.861  1.00  0.00    -0.263 C  
HETATM    2  C   UNL     1      -6.065  19.242  68.173  1.00  0.00    -0.235 C  
HETATM    3  O   UNL     1      -6.913  21.378  67.703  1.00  0.00    -0.474 OA 
HETATM    4  C   UNL     1      -5.973  20.699  68.540  1.00  0.00    -0.341 C  
HETATM    5  C   UNL     1      -7.877  20.416  67.235  1.00  0.00    -0.334 C  
ENDROOT
BRANCH   1   6
HETATM    6  O   UNL     1      -7.664  17.969  66.962  1.00  0.00    -0.206 OA 
BRANCH   6   7
HETATM    7  C   UNL     1      -8.723  17.120  67.103  1.00  0.00    -0.212 A  
HETATM    8  C   UNL     1     -10.900  16.410  67.885  1.00  0.00    -0.328 A  
HETATM    9  C   UNL     1      -9.831  17.321  67.919  1.00  0.00    -0.283 A  
HETATM   10  C   UNL     1     -10.874  15.291  67.036  1.00  0.00    -0.321 A  
HETATM   11  C   UNL     1      -8.683  16.002  66.269  1.00  0.00    -0.372 A  
HETATM   12  C   UNL     1      -9.742  15.089  66.240  1.00  0.00    -0.316 A  
BRANCH  10  13
HETATM   13  C   UNL     1     -12.073  14.364  66.915  1.00  0.00    -0.386 C  
BRANCH  13  14
HETATM   14  C   UNL     1     -11.931  13.117  67.765  1.00  0.00    -0.352 A  
HETATM   15  C   UNL     1     -12.169  13.082  69.146  1.00  0.00    -0.061 A  
HETATM   16 CL   UNL     1     -12.775  14.444  70.017  1.00  0.00    -0.280 Cl 
HETATM   17  C   UNL     1     -11.882  11.929  69.884  1.00  0.00    -0.418 A  
HETATM   18  C   UNL     1     -11.282  10.827  69.268  1.00  0.00    -0.333 A  
HETATM   19  C   UNL     1     -10.985  10.852  67.900  1.00  0.00    -0.325 A  
HETATM   20  C   UNL     1     -11.398  11.967  67.152  1.00  0.00    -0.393 A  
BRANCH  19  21
HETATM   21  C   UNL     1     -10.051   9.808  67.304  1.00  0.00    -0.207 C  
HETATM   22  O   UNL     1     -10.584   8.504  67.607  1.00  0.00    -0.245 OA 
HETATM   23  C   UNL     1      -9.946   7.452  66.874  1.00  0.00    -0.236 C  
HETATM   24  H   UNL     1      -7.083  11.216  67.552  1.00  0.00     0.000 HD 
HETATM   25  C   UNL     1      -8.470   7.380  67.264  1.00  0.00    -0.118 C  
HETATM   26  O   UNL     1      -7.999  11.161  67.309  1.00  0.00    -0.126 OA 
HETATM   27  C   UNL     1      -7.802   8.740  67.009  1.00  0.00    -0.095 C  
HETATM   28  O   UNL     1      -7.763   6.371  66.536  1.00  0.00    -0.096 OA 
HETATM   29  H   UNL     1      -6.024   9.525  67.282  1.00  0.00     0.000 HD 
HETATM   30  C   UNL     1      -8.558   9.898  67.700  1.00  0.00    -0.122 C  
HETATM   31  H   UNL     1      -6.845   6.327  66.779  1.00  0.00     0.000 HD 
HETATM   32  O   UNL     1      -6.437   8.685  67.440  1.00  0.00    -0.056 OA 
BRANCH  23  33
HETATM   33  C   UNL     1     -10.684   6.147  67.189  1.00  0.00    -0.346 C  
HETATM   34  O   UNL     1     -11.204   5.590  65.974  1.00  0.00    -0.771 OA 
HETATM   35  H   UNL     1     -11.662   4.780  66.169  1.00  0.00     0.000 HD 
ENDBRANCH  23  33
ENDBRANCH  19  21
ENDBRANCH  13  14
ENDBRANCH  10  13
ENDBRANCH   6   7
ENDBRANCH   1   6
TORSDOF 6
ENDMDL
MODEL       68
REMARK 921   NORMALIZED FREE ENERGY PREDICTED BY IDOCK:   -6.61 KCAL/MOL
REMARK 922        TOTAL FREE ENERGY PREDICTED BY IDOCK:   -9.89 KCAL/MOL
REMARK 923 INTER-LIGAND FREE ENERGY PREDICTED BY IDOCK:   -8.55 KCAL/MOL
REMARK 924 INTRA-LIGAND FREE ENERGY PREDICTED BY IDOCK:   -1.35 KCAL/MOL
REMARK 927      BINDING AFFINITY PREDICTED BY RF-SCORE:    0.00 PKD
ROOT
HETATM    1  C   UNL     1     -11.041  12.488  64.096  1.00  0.00    -0.376 C  
HETATM    2  C   UNL     1     -10.449  13.832  64.483  1.00  0.00    -0.378 C  
HETATM    3  O   UNL     1     -12.633  14.249  63.734  1.00  0.00    -0.821 OA 
HETATM    4  C   UNL     1     -11.671  14.684  64.699  1.00  0.00    -0.426 C  
HETATM    5  C   UNL     1     -12.275  12.920  63.309  1.00  0.00    -0.397 C  
ENDROOT
BRANCH   1   6
HETATM    6  O   UNL     1     -10.072  11.800  63.312  1.00  0.00    -0.411 OA 
BRANCH   6   7
HETATM    7  C   UNL     1      -9.434  10.723  63.853  1.00  0.00    -0.274 A  
HETATM    8  C   UNL     1      -7.688   9.058  64.057  1.00  0.00    -0.125 A  
HETATM    9  C   UNL     1      -8.305  10.094  63.336  1.00  0.00    -0.168 A  
HETATM   10  C   UNL     1      -8.191   8.639  65.301  1.00  0.00    -0.148 A  
HETATM   11  C   UNL     1      -9.947  10.300  65.080  1.00  0.00    -0.395 A  
HETATM   12  C   UNL     1      -9.341   9.264  65.795  1.00  0.00    -0.306 A  
BRANCH  10  13
HETATM   13  C   UNL     1      -7.465   7.595  66.134  1.00  0.00    -0.083 C  
BRANCH  13  14
HETATM   14  C   UNL     1      -8.393   6.505  66.636  1.00  0.00    -0.113 A  
HETATM   15  C   UNL     1      -8.912   5.487  65.825  1.00  0.00    -0.154 A  
HETATM   16 CL   UNL     1      -8.449   5.292  64.172  1.00  0.00    -0.131 Cl 
HETATM   17  C   UNL     1      -9.870   4.601  66.328  1.00  0.00    -0.241 A  
HETATM   18  C   UNL     1     -10.378   4.769  67.619  1.00  0.00    -0.028 A  
HETATM   19  C   UNL     1      -9.916   5.809  68.435  1.00  0.00    -0.193 A  
HETATM   20  C   UNL     1      -8.863   6.607  67.959  1.00  0.00    -0.115 A  
BRANCH  19  21
HETATM   21  C   UNL     1     -10.685   6.190  69.692  1.00  0.00    -0.319 C  
HETATM   22  O   UNL     1     -10.725   7.628  69.775  1.00  0.00    -0.243 OA 
HETATM   23  C   UNL     1     -11.646   8.108  70.760  1.00  0.00    -0.238 C  
HETATM   24  H   UNL     1      -9.948   3.765  71.797  1.00  0.00     0.000 HD 
HETATM   25  C   UNL     1     -11.201   7.642  72.145  1.00  0.00    -0.284 C  
HETATM   26  O   UNL     1     -10.249   4.142  70.979  1.00  0.00    -0.119 OA 
HETATM   27  C   UNL     1     -11.093   6.110  72.164  1.00  0.00    -0.275 C  
HETATM   28  O   UNL     1     -12.103   8.057  73.176  1.00  0.00    -0.656 OA 
HETATM   29  H   UNL     1     -10.545   4.737  73.456  1.00  0.00     0.000 HD 
HETATM   30  C   UNL     1     -10.195   5.576  71.025  1.00  0.00    -0.223 C  
HETATM   31  H   UNL     1     -11.826   7.766  74.038  1.00  0.00     0.000 HD 
HETATM   32  O   UNL     1     -10.611   5.684  73.445  1.00  0.00    -0.223 OA 
BRANCH  23  33
HETATM   33  C   UNL     1     -11.687   9.637  70.658  1.00  0.00    -0.280 C  
HETATM   34  O   UNL     1     -12.780  10.028  69.815  1.00  0.00    -0.403 OA 
HETATM   35  H   UNL     1     -12.806  10.975  69.752  1.00  0.00     0.000 HD 
ENDBRANCH  23  33
ENDBRANCH  19  21
ENDBRANCH  13  14
ENDBRANCH  10  13
ENDBRANCH   6   7
ENDBRANCH   1   6
TORSDOF 6
ENDMDL
MODEL       69
REMARK 921   NORMALIZED FREE ENERGY PREDICTED BY IDOCK:   -6.60 KCAL/MOL
REMARK 922        TOTAL FREE ENERGY PREDICTED BY IDOCK:   -9.88 KCAL/MOL
REMARK 923 INTER-LIGAND FREE ENERGY PREDICTED BY IDOCK:   -8.91 KCAL/MOL
REMARK 924 INTRA-LIGAND FREE ENERGY PREDICTED BY IDOCK:   -0.97 KCAL/MOL
REMARK 927      BINDING AFFINITY PREDICTED BY RF-SCORE:    0.00 PKD
ROOT
HETATM    1  C   UNL     1     -10.901   8.142  70.515  1.00  0.00    -0.240 C  
HETATM    2  C   UNL     1     -11.682   6.843  70.587  1.00  0.00    -0.417 C  
HETATM    3  O   UNL     1     -11.432   7.601  72.794  1.00  0.00    -0.355 OA 
HETATM    4  C   UNL     1     -12.357   6.933  71.930  1.00  0.00    -0.325 C  
HETATM    5  C   UNL     1     -10.499   8.332  71.975  1.00  0.00    -0.280 C  
ENDROOT
BRANCH   1   6
HETATM    6  O   UNL     1      -9.798   7.936  69.638  1.00  0.00    -0.176 OA 
BRANCH   6   7
HETATM    7  C   UNL     1      -9.715   8.682  68.500  1.00  0.00    -0.163 A  
HETATM    8  C   UNL     1     -10.399   9.470  66.316  1.00  0.00    -0.226 A  
HETATM    9  C   UNL     1     -10.530   8.560  67.379  1.00  0.00    -0.351 A  
HETATM   10  C   UNL     1      -9.454  10.510  66.361  1.00  0.00    -0.208 A  
HETATM   11  C   UNL     1      -8.764   9.703  68.544  1.00  0.00    -0.120 A  
HETATM   12  C   UNL     1      -8.626  10.603  67.484  1.00  0.00    -0.122 A  
BRANCH  10  13
HETATM   13  C   UNL     1      -9.384  11.560  65.265  1.00  0.00    -0.155 C  
BRANCH  13  14
HETATM   14  C   UNL     1     -10.433  12.643  65.430  1.00  0.00    -0.306 A  
HETATM   15  C   UNL     1     -11.550  12.781  64.596  1.00  0.00    -0.338 A  
HETATM   16 CL   UNL     1     -11.921  11.647  63.348  1.00  0.00    -0.444 Cl 
HETATM   17  C   UNL     1     -12.397  13.887  64.725  1.00  0.00    -0.429 A  
HETATM   18  C   UNL     1     -12.095  14.904  65.634  1.00  0.00    -0.008 A  
HETATM   19  C   UNL     1     -10.958  14.818  66.446  1.00  0.00    -0.331 A  
HETATM   20  C   UNL     1     -10.193  13.642  66.392  1.00  0.00    -0.292 A  
BRANCH  19  21
HETATM   21  C   UNL     1     -10.455  16.050  67.186  1.00  0.00    -0.308 C  
HETATM   22  O   UNL     1     -10.502  17.169  66.279  1.00  0.00    -0.319 OA 
HETATM   23  C   UNL     1     -10.312  18.429  66.932  1.00  0.00    -0.390 C  
HETATM   24  H   UNL     1      -8.192  14.827  69.245  1.00  0.00     0.000 HD 
HETATM   25  C   UNL     1      -8.917  18.478  67.552  1.00  0.00    -0.276 C  
HETATM   26  O   UNL     1      -9.045  14.892  68.833  1.00  0.00    -0.189 OA 
HETATM   27  C   UNL     1      -8.742  17.301  68.524  1.00  0.00    -0.273 C  
HETATM   28  O   UNL     1      -8.676  19.700  68.256  1.00  0.00    -0.326 OA 
HETATM   29  H   UNL     1      -7.303  16.586  69.650  1.00  0.00     0.000 HD 
HETATM   30  C   UNL     1      -9.065  15.944  67.857  1.00  0.00    -0.190 C  
HETATM   31  H   UNL     1      -7.808  19.731  68.642  1.00  0.00     0.000 HD 
HETATM   32  O   UNL     1      -7.410  17.314  69.050  1.00  0.00    -0.245 OA 
BRANCH  23  33
HETATM   33  C   UNL     1     -10.512  19.532  65.887  1.00  0.00    -0.491 C  
HETATM   34  O   UNL     1      -9.335  20.352  65.832  1.00  0.00    -0.621 OA 
HETATM   35  H   UNL     1      -9.458  21.036  65.184  1.00  0.00     0.000 HD 
ENDBRANCH  23  33
ENDBRANCH  19  21
ENDBRANCH  13  14
ENDBRANCH  10  13
ENDBRANCH   6   7
ENDBRANCH   1   6
TORSDOF 6
ENDMDL
MODEL       70
REMARK 921   NORMALIZED FREE ENERGY PREDICTED BY IDOCK:   -6.59 KCAL/MOL
REMARK 922        TOTAL FREE ENERGY PREDICTED BY IDOCK:   -9.87 KCAL/MOL
REMARK 923 INTER-LIGAND FREE ENERGY PREDICTED BY IDOCK:   -8.60 KCAL/MOL
REMARK 924 INTRA-LIGAND FREE ENERGY PREDICTED BY IDOCK:   -1.27 KCAL/MOL
REMARK 927      BINDING AFFINITY PREDICTED BY RF-SCORE:    0.00 PKD
ROOT
HETATM    1  C   UNL     1      -9.606  18.294  67.664  1.00  0.00    -0.282 C  
HETATM    2  C   UNL     1     -10.220  19.512  68.329  1.00  0.00    -0.552 C  
HETATM    3  O   UNL     1      -8.480  20.297  66.966  1.00  0.00    -0.326 OA 
HETATM    4  C   UNL     1      -9.791  20.638  67.427  1.00  0.00    -0.387 C  
HETATM    5  C   UNL     1      -8.304  18.876  67.118  1.00  0.00    -0.274 C  
ENDROOT
BRANCH   1   6
HETATM    6  O   UNL     1      -9.415  17.303  68.668  1.00  0.00    -0.267 OA 
BRANCH   6   7
HETATM    7  C   UNL     1     -10.042  16.100  68.531  1.00  0.00    -0.241 A  
HETATM    8  C   UNL     1     -11.910  14.610  68.138  1.00  0.00    -0.332 A  
HETATM    9  C   UNL     1     -11.411  15.903  68.375  1.00  0.00    -0.361 A  
HETATM   10  C   UNL     1     -11.048  13.503  68.055  1.00  0.00    -0.283 A  
HETATM   11  C   UNL     1      -9.183  15.002  68.466  1.00  0.00    -0.192 A  
HETATM   12  C   UNL     1      -9.678  13.715  68.240  1.00  0.00    -0.231 A  
BRANCH  10  13
HETATM   13  C   UNL     1     -11.570  12.123  67.690  1.00  0.00    -0.413 C  
BRANCH  13  14
HETATM   14  C   UNL     1     -10.886  11.549  66.465  1.00  0.00    -0.335 A  
HETATM   15  C   UNL     1     -11.235  11.879  65.149  1.00  0.00    -0.289 A  
HETATM   16 CL   UNL     1     -12.416  13.083  64.778  1.00  0.00    -0.487 Cl 
HETATM   17  C   UNL     1     -10.653  11.204  64.071  1.00  0.00    -0.436 A  
HETATM   18  C   UNL     1      -9.776  10.140  64.296  1.00  0.00    -0.326 A  
HETATM   19  C   UNL     1      -9.448   9.753  65.601  1.00  0.00    -0.307 A  
HETATM   20  C   UNL     1      -9.941  10.525  66.665  1.00  0.00    -0.260 A  
BRANCH  19  21
HETATM   21  C   UNL     1      -8.768   8.413  65.850  1.00  0.00    -0.169 C  
HETATM   22  O   UNL     1      -9.771   7.475  66.287  1.00  0.00    -0.142 OA 
HETATM   23  C   UNL     1      -9.309   6.121  66.293  1.00  0.00    -0.134 C  
HETATM   24  H   UNL     1      -5.771   9.270  66.917  1.00  0.00     0.000 HD 
HETATM   25  C   UNL     1      -8.164   5.976  67.295  1.00  0.00    -0.106 C  
HETATM   26  O   UNL     1      -6.515   9.271  66.327  1.00  0.00    -0.064 OA 
HETATM   27  C   UNL     1      -7.040   6.960  66.941  1.00  0.00    -0.075 C  
HETATM   28  O   UNL     1      -7.628   4.649  67.323  1.00  0.00    -0.084 OA 
HETATM   29  H   UNL     1      -5.306   7.476  67.703  1.00  0.00     0.000 HD 
HETATM   30  C   UNL     1      -7.557   8.412  66.813  1.00  0.00    -0.090 C  
HETATM   31  H   UNL     1      -6.916   4.559  67.946  1.00  0.00     0.000 HD 
HETATM   32  O   UNL     1      -6.001   6.867  67.923  1.00  0.00    -0.029 OA 
BRANCH  23  33
HETATM   33  C   UNL     1     -10.497   5.221  66.650  1.00  0.00    -0.290 C  
HETATM   34  O   UNL     1     -11.343   5.073  65.501  1.00  0.00    -0.836 OA 
HETATM   35  H   UNL     1     -12.080   4.516  65.722  1.00  0.00     0.000 HD 
ENDBRANCH  23  33
ENDBRANCH  19  21
ENDBRANCH  13  14
ENDBRANCH  10  13
ENDBRANCH   6   7
ENDBRANCH   1   6
TORSDOF 6
ENDMDL
MODEL       71
REMARK 921   NORMALIZED FREE ENERGY PREDICTED BY IDOCK:   -6.57 KCAL/MOL
REMARK 922        TOTAL FREE ENERGY PREDICTED BY IDOCK:   -9.84 KCAL/MOL
REMARK 923 INTER-LIGAND FREE ENERGY PREDICTED BY IDOCK:   -8.61 KCAL/MOL
REMARK 924 INTRA-LIGAND FREE ENERGY PREDICTED BY IDOCK:   -1.23 KCAL/MOL
REMARK 927      BINDING AFFINITY PREDICTED BY RF-SCORE:    0.00 PKD
ROOT
HETATM    1  C   UNL     1     -10.113   7.235  73.825  1.00  0.00    -0.329 C  
HETATM    2  C   UNL     1      -8.824   6.747  74.460  1.00  0.00    -0.212 C  
HETATM    3  O   UNL     1      -8.284   8.678  73.242  1.00  0.00    -0.411 OA 
HETATM    4  C   UNL     1      -7.958   7.977  74.446  1.00  0.00    -0.248 C  
HETATM    5  C   UNL     1      -9.582   8.236  72.802  1.00  0.00    -0.268 C  
ENDROOT
BRANCH   1   6
HETATM    6  O   UNL     1     -10.762   6.110  73.243  1.00  0.00    -0.242 OA 
BRANCH   6   7
HETATM    7  C   UNL     1     -10.948   6.083  71.892  1.00  0.00    -0.264 A  
HETATM    8  C   UNL     1     -11.908   6.767  69.777  1.00  0.00    -0.128 A  
HETATM    9  C   UNL     1     -11.899   6.810  71.182  1.00  0.00    -0.410 A  
HETATM   10  C   UNL     1     -10.969   5.998  69.068  1.00  0.00    -0.409 A  
HETATM   11  C   UNL     1     -10.023   5.305  71.194  1.00  0.00    -0.265 A  
HETATM   12  C   UNL     1     -10.036   5.253  69.798  1.00  0.00    -0.334 A  
BRANCH  10  13
HETATM   13  C   UNL     1     -10.904   6.034  67.550  1.00  0.00    -0.393 C  
BRANCH  13  14
HETATM   14  C   UNL     1     -10.027   7.157  67.033  1.00  0.00    -0.283 A  
HETATM   15  C   UNL     1      -8.681   6.996  66.678  1.00  0.00    -0.128 A  
HETATM   16 CL   UNL     1      -7.900   5.456  66.678  1.00  0.00    -0.100 Cl 
HETATM   17  C   UNL     1      -7.900   8.107  66.341  1.00  0.00    -0.093 A  
HETATM   18  C   UNL     1      -8.431   9.396  66.431  1.00  0.00    -0.131 A  
HETATM   19  C   UNL     1      -9.758   9.592  66.832  1.00  0.00    -0.237 A  
HETATM   20  C   UNL     1     -10.562   8.459  67.040  1.00  0.00    -0.316 A  
BRANCH  19  21
HETATM   21  C   UNL     1     -10.233  10.979  67.242  1.00  0.00    -0.199 C  
HETATM   22  O   UNL     1     -11.040  10.845  68.428  1.00  0.00    -0.221 OA 
HETATM   23  C   UNL     1     -11.319  12.097  69.062  1.00  0.00    -0.276 C  
HETATM   24  H   UNL     1     -10.583  12.542  64.363  1.00  0.00     0.000 HD 
HETATM   25  C   UNL     1     -12.141  12.975  68.119  1.00  0.00    -0.157 C  
HETATM   26  O   UNL     1     -10.131  12.031  65.023  1.00  0.00    -0.260 OA 
HETATM   27  C   UNL     1     -11.383  13.162  66.796  1.00  0.00    -0.316 C  
HETATM   28  O   UNL     1     -12.422  14.262  68.678  1.00  0.00    -0.568 OA 
HETATM   29  H   UNL     1     -11.718  14.044  65.075  1.00  0.00     0.000 HD 
HETATM   30  C   UNL     1     -10.970  11.812  66.166  1.00  0.00    -0.307 C  
HETATM   31  H   UNL     1     -12.933  14.808  68.092  1.00  0.00     0.000 HD 
HETATM   32  O   UNL     1     -12.188  13.929  65.893  1.00  0.00    -0.412 OA 
BRANCH  23  33
HETATM   33  C   UNL     1     -12.068  11.806  70.367  1.00  0.00    -0.352 C  
HETATM   34  O   UNL     1     -11.698  10.505  70.846  1.00  0.00    -0.338 OA 
HETATM   35  H   UNL     1     -12.162  10.323  71.655  1.00  0.00     0.000 HD 
ENDBRANCH  23  33
ENDBRANCH  19  21
ENDBRANCH  13  14
ENDBRANCH  10  13
ENDBRANCH   6   7
ENDBRANCH   1   6
TORSDOF 6
ENDMDL
MODEL       72
REMARK 921   NORMALIZED FREE ENERGY PREDICTED BY IDOCK:   -6.54 KCAL/MOL
REMARK 922        TOTAL FREE ENERGY PREDICTED BY IDOCK:   -9.80 KCAL/MOL
REMARK 923 INTER-LIGAND FREE ENERGY PREDICTED BY IDOCK:   -8.64 KCAL/MOL
REMARK 924 INTRA-LIGAND FREE ENERGY PREDICTED BY IDOCK:   -1.16 KCAL/MOL
REMARK 927      BINDING AFFINITY PREDICTED BY RF-SCORE:    0.00 PKD
ROOT
HETATM    1  C   UNL     1     -10.245   7.614  70.908  1.00  0.00    -0.199 C  
HETATM    2  C   UNL     1     -10.202   6.740  69.668  1.00  0.00    -0.207 C  
HETATM    3  O   UNL     1      -9.898   5.315  71.507  1.00  0.00    -0.160 OA 
HETATM    4  C   UNL     1     -10.508   5.371  70.214  1.00  0.00    -0.285 C  
HETATM    5  C   UNL     1      -9.687   6.664  71.964  1.00  0.00    -0.151 C  
ENDROOT
BRANCH   1   6
HETATM    6  O   UNL     1      -9.422   8.750  70.664  1.00  0.00    -0.170 OA 
BRANCH   6   7
HETATM    7  C   UNL     1      -9.975   9.848  70.073  1.00  0.00    -0.254 A  
HETATM    8  C   UNL     1     -10.171  11.609  68.423  1.00  0.00    -0.211 A  
HETATM    9  C   UNL     1      -9.439  10.558  69.003  1.00  0.00    -0.211 A  
HETATM   10  C   UNL     1     -11.443  11.961  68.906  1.00  0.00    -0.358 A  
HETATM   11  C   UNL     1     -11.230  10.203  70.567  1.00  0.00    -0.411 A  
HETATM   12  C   UNL     1     -11.956  11.253  69.998  1.00  0.00    -0.447 A  
BRANCH  10  13
HETATM   13  C   UNL     1     -12.283  13.021  68.215  1.00  0.00    -0.033 C  
BRANCH  13  14
HETATM   14  C   UNL     1     -11.454  13.937  67.335  1.00  0.00    -0.374 A  
HETATM   15  C   UNL     1     -11.054  13.616  66.031  1.00  0.00    -0.293 A  
HETATM   16 CL   UNL     1     -11.570  12.175  65.232  1.00  0.00    -0.392 Cl 
HETATM   17  C   UNL     1     -10.174  14.451  65.335  1.00  0.00    -0.408 A  
HETATM   18  C   UNL     1      -9.624  15.574  65.959  1.00  0.00    -0.380 A  
HETATM   19  C   UNL     1      -9.965  15.892  67.279  1.00  0.00    -0.240 A  
HETATM   20  C   UNL     1     -10.947  15.115  67.915  1.00  0.00    -0.302 A  
BRANCH  19  21
HETATM   21  C   UNL     1      -9.134  16.902  68.059  1.00  0.00    -0.234 C  
HETATM   22  O   UNL     1      -9.214  18.170  67.378  1.00  0.00    -0.254 OA 
HETATM   23  C   UNL     1      -8.700  19.257  68.154  1.00  0.00    -0.331 C  
HETATM   24  H   UNL     1      -6.681  15.078  69.288  1.00  0.00     0.000 HD 
HETATM   25  C   UNL     1      -7.211  19.038  68.417  1.00  0.00    -0.286 C  
HETATM   26  O   UNL     1      -7.585  15.311  69.111  1.00  0.00    -0.158 OA 
HETATM   27  C   UNL     1      -7.003  17.688  69.120  1.00  0.00    -0.217 C  
HETATM   28  O   UNL     1      -6.642  20.074  69.224  1.00  0.00    -0.323 OA 
HETATM   29  H   UNL     1      -5.473  16.625  69.736  1.00  0.00     0.000 HD 
HETATM   30  C   UNL     1      -7.662  16.523  68.346  1.00  0.00    -0.189 C  
HETATM   31  H   UNL     1      -5.715  19.938  69.388  1.00  0.00     0.000 HD 
HETATM   32  O   UNL     1      -5.601  17.460  69.302  1.00  0.00    -0.176 OA 
BRANCH  23  33
HETATM   33  C   UNL     1      -8.958  20.552  67.376  1.00  0.00    -0.297 C  
HETATM   34  O   UNL     1      -7.724  21.266  67.219  1.00  0.00    -0.691 OA 
HETATM   35  H   UNL     1      -7.884  22.069  66.736  1.00  0.00     0.000 HD 
ENDBRANCH  23  33
ENDBRANCH  19  21
ENDBRANCH  13  14
ENDBRANCH  10  13
ENDBRANCH   6   7
ENDBRANCH   1   6
TORSDOF 6
ENDMDL
MODEL       73
REMARK 921   NORMALIZED FREE ENERGY PREDICTED BY IDOCK:   -6.52 KCAL/MOL
REMARK 922        TOTAL FREE ENERGY PREDICTED BY IDOCK:   -9.77 KCAL/MOL
REMARK 923 INTER-LIGAND FREE ENERGY PREDICTED BY IDOCK:   -8.80 KCAL/MOL
REMARK 924 INTRA-LIGAND FREE ENERGY PREDICTED BY IDOCK:   -0.97 KCAL/MOL
REMARK 927      BINDING AFFINITY PREDICTED BY RF-SCORE:    0.00 PKD
ROOT
HETATM    1  C   UNL     1     -10.777   7.083  70.145  1.00  0.00    -0.240 C  
HETATM    2  C   UNL     1     -10.510   5.994  71.168  1.00  0.00    -0.284 C  
HETATM    3  O   UNL     1     -12.185   7.367  72.069  1.00  0.00    -0.297 OA 
HETATM    4  C   UNL     1     -11.765   6.001  71.999  1.00  0.00    -0.257 C  
HETATM    5  C   UNL     1     -11.582   8.081  70.974  1.00  0.00    -0.283 C  
ENDROOT
BRANCH   1   6
HETATM    6  O   UNL     1      -9.517   7.584  69.709  1.00  0.00    -0.157 OA 
BRANCH   6   7
HETATM    7  C   UNL     1      -9.493   8.617  68.818  1.00  0.00    -0.143 A  
HETATM    8  C   UNL     1     -10.106   9.821  66.810  1.00  0.00    -0.295 A  
HETATM    9  C   UNL     1     -10.128   8.646  67.581  1.00  0.00    -0.271 A  
HETATM   10  C   UNL     1      -9.451  10.977  67.266  1.00  0.00    -0.179 A  
HETATM   11  C   UNL     1      -8.826   9.757  69.270  1.00  0.00    -0.171 A  
HETATM   12  C   UNL     1      -8.795  10.923  68.501  1.00  0.00    -0.153 A  
BRANCH  10  13
HETATM   13  C   UNL     1      -9.517  12.281  66.488  1.00  0.00    -0.238 C  
BRANCH  13  14
HETATM   14  C   UNL     1      -9.982  13.444  67.343  1.00  0.00    -0.230 A  
HETATM   15  C   UNL     1     -11.151  13.427  68.115  1.00  0.00    -0.258 A  
HETATM   16 CL   UNL     1     -12.137  12.018  68.273  1.00  0.00    -0.218 Cl 
HETATM   17  C   UNL     1     -11.587  14.586  68.766  1.00  0.00    -0.343 A  
HETATM   18  C   UNL     1     -10.904  15.792  68.590  1.00  0.00    -0.278 A  
HETATM   19  C   UNL     1      -9.762  15.852  67.783  1.00  0.00    -0.220 A  
HETATM   20  C   UNL     1      -9.268  14.653  67.244  1.00  0.00    -0.212 A  
BRANCH  19  21
HETATM   21  C   UNL     1      -9.217  17.200  67.331  1.00  0.00    -0.232 C  
HETATM   22  O   UNL     1      -8.674  17.874  68.484  1.00  0.00    -0.292 OA 
HETATM   23  C   UNL     1      -7.895  19.026  68.145  1.00  0.00    -0.300 C  
HETATM   24  H   UNL     1     -11.253  18.059  64.887  1.00  0.00     0.000 HD 
HETATM   25  C   UNL     1      -8.785  20.062  67.460  1.00  0.00    -0.344 C  
HETATM   26  O   UNL     1     -10.655  17.492  65.360  1.00  0.00    -0.648 OA 
HETATM   27  C   UNL     1      -9.447  19.437  66.223  1.00  0.00    -0.368 C  
HETATM   28  O   UNL     1      -8.057  21.227  67.059  1.00  0.00    -0.657 OA 
HETATM   29  H   UNL     1     -10.740  20.006  64.860  1.00  0.00     0.000 HD 
HETATM   30  C   UNL     1     -10.190  18.124  66.561  1.00  0.00    -0.391 C  
HETATM   31  H   UNL     1      -8.611  21.871  66.633  1.00  0.00     0.000 HD 
HETATM   32  O   UNL     1     -10.331  20.392  65.625  1.00  0.00    -0.268 OA 
BRANCH  23  33
HETATM   33  C   UNL     1      -7.276  19.569  69.437  1.00  0.00    -0.255 C  
HETATM   34  O   UNL     1      -6.126  20.365  69.115  1.00  0.00    -0.320 OA 
HETATM   35  H   UNL     1      -5.742  20.702  69.916  1.00  0.00     0.000 HD 
ENDBRANCH  23  33
ENDBRANCH  19  21
ENDBRANCH  13  14
ENDBRANCH  10  13
ENDBRANCH   6   7
ENDBRANCH   1   6
TORSDOF 6
ENDMDL
MODEL       74
REMARK 921   NORMALIZED FREE ENERGY PREDICTED BY IDOCK:   -6.52 KCAL/MOL
REMARK 922        TOTAL FREE ENERGY PREDICTED BY IDOCK:   -9.77 KCAL/MOL
REMARK 923 INTER-LIGAND FREE ENERGY PREDICTED BY IDOCK:   -8.94 KCAL/MOL
REMARK 924 INTRA-LIGAND FREE ENERGY PREDICTED BY IDOCK:   -0.82 KCAL/MOL
REMARK 927      BINDING AFFINITY PREDICTED BY RF-SCORE:    0.00 PKD
ROOT
HETATM    1  C   UNL     1     -10.808   8.775  71.676  1.00  0.00    -0.329 C  
HETATM    2  C   UNL     1     -11.899   9.431  70.849  1.00  0.00    -0.365 C  
HETATM    3  O   UNL     1     -12.948   8.508  72.733  1.00  0.00    -0.259 OA 
HETATM    4  C   UNL     1     -13.003   9.633  71.852  1.00  0.00    -0.435 C  
HETATM    5  C   UNL     1     -11.633   7.926  72.640  1.00  0.00    -0.377 C  
ENDROOT
BRANCH   1   6
HETATM    6  O   UNL     1      -9.995   8.011  70.791  1.00  0.00    -0.186 OA 
BRANCH   6   7
HETATM    7  C   UNL     1      -9.765   8.488  69.534  1.00  0.00    -0.176 A  
HETATM    8  C   UNL     1     -10.133   8.716  67.152  1.00  0.00    -0.329 A  
HETATM    9  C   UNL     1     -10.393   8.061  68.368  1.00  0.00    -0.236 A  
HETATM   10  C   UNL     1      -9.245   9.803  67.088  1.00  0.00    -0.159 A  
HETATM   11  C   UNL     1      -8.869   9.556  69.474  1.00  0.00    -0.185 A  
HETATM   12  C   UNL     1      -8.602  10.203  68.264  1.00  0.00    -0.116 A  
BRANCH  10  13
HETATM   13  C   UNL     1      -9.044  10.584  65.800  1.00  0.00    -0.204 C  
BRANCH  13  14
HETATM   14  C   UNL     1     -10.143  11.601  65.560  1.00  0.00    -0.285 A  
HETATM   15  C   UNL     1     -10.556  12.019  64.288  1.00  0.00    -0.334 A  
HETATM   16 CL   UNL     1      -9.935  11.322  62.836  1.00  0.00    -0.307 Cl 
HETATM   17  C   UNL     1     -11.478  13.062  64.151  1.00  0.00    -0.452 A  
HETATM   18  C   UNL     1     -11.937  13.751  65.277  1.00  0.00    -0.388 A  
HETATM   19  C   UNL     1     -11.502  13.390  66.557  1.00  0.00    -0.372 A  
HETATM   20  C   UNL     1     -10.679  12.259  66.683  1.00  0.00    -0.276 A  
BRANCH  19  21
HETATM   21  C   UNL     1     -11.736  14.327  67.734  1.00  0.00    -0.374 C  
HETATM   22  O   UNL     1     -10.827  15.439  67.610  1.00  0.00    -0.289 OA 
HETATM   23  C   UNL     1     -11.133  16.517  68.500  1.00  0.00    -0.335 C  
HETATM   24  H   UNL     1     -12.579  12.283  70.177  1.00  0.00     0.000 HD 
HETATM   25  C   UNL     1     -10.987  16.042  69.946  1.00  0.00    -0.353 C  
HETATM   26  O   UNL     1     -12.628  12.664  69.308  1.00  0.00     0.213 OA 
HETATM   27  C   UNL     1     -11.897  14.828  70.186  1.00  0.00    -0.307 C  
HETATM   28  O   UNL     1     -11.317  17.065  70.891  1.00  0.00    -0.320 OA 
HETATM   29  H   UNL     1     -12.266  13.597  71.669  1.00  0.00     0.000 HD 
HETATM   30  C   UNL     1     -11.655  13.707  69.149  1.00  0.00    -0.309 C  
HETATM   31  H   UNL     1     -11.226  16.769  71.790  1.00  0.00     0.000 HD 
HETATM   32  O   UNL     1     -11.704  14.348  71.521  1.00  0.00    -0.252 OA 
BRANCH  23  33
HETATM   33  C   UNL     1     -10.182  17.674  68.180  1.00  0.00    -0.371 C  
HETATM   34  O   UNL     1     -10.180  18.604  69.273  1.00  0.00    -0.475 OA 
HETATM   35  H   UNL     1      -9.590  19.322  69.075  1.00  0.00     0.000 HD 
ENDBRANCH  23  33
ENDBRANCH  19  21
ENDBRANCH  13  14
ENDBRANCH  10  13
ENDBRANCH   6   7
ENDBRANCH   1   6
TORSDOF 6
ENDMDL
MODEL       75
REMARK 921   NORMALIZED FREE ENERGY PREDICTED BY IDOCK:   -6.51 KCAL/MOL
REMARK 922        TOTAL FREE ENERGY PREDICTED BY IDOCK:   -9.76 KCAL/MOL
REMARK 923 INTER-LIGAND FREE ENERGY PREDICTED BY IDOCK:   -9.51 KCAL/MOL
REMARK 924 INTRA-LIGAND FREE ENERGY PREDICTED BY IDOCK:   -0.25 KCAL/MOL
REMARK 927      BINDING AFFINITY PREDICTED BY RF-SCORE:    0.00 PKD
ROOT
HETATM    1  C   UNL     1     -10.184  18.354  66.462  1.00  0.00    -0.401 C  
HETATM    2  C   UNL     1      -9.644  18.465  67.876  1.00  0.00    -0.309 C  
HETATM    3  O   UNL     1      -9.988  20.657  67.113  1.00  0.00    -0.452 OA 
HETATM    4  C   UNL     1     -10.074  19.848  68.290  1.00  0.00    -0.447 C  
HETATM    5  C   UNL     1     -10.020  19.788  65.965  1.00  0.00    -0.447 C  
ENDROOT
BRANCH   1   6
HETATM    6  O   UNL     1      -9.378  17.410  65.765  1.00  0.00    -0.518 OA 
BRANCH   6   7
HETATM    7  C   UNL     1      -9.703  16.087  65.839  1.00  0.00    -0.343 A  
HETATM    8  C   UNL     1      -9.509  13.801  66.611  1.00  0.00    -0.289 A  
HETATM    9  C   UNL     1      -8.999  15.108  66.533  1.00  0.00    -0.326 A  
HETATM   10  C   UNL     1     -10.726  13.458  65.996  1.00  0.00    -0.283 A  
HETATM   11  C   UNL     1     -10.904  15.749  65.213  1.00  0.00    -0.409 A  
HETATM   12  C   UNL     1     -11.408  14.448  65.281  1.00  0.00    -0.346 A  
BRANCH  10  13
HETATM   13  C   UNL     1     -11.335  12.077  66.169  1.00  0.00    -0.407 C  
BRANCH  13  14
HETATM   14  C   UNL     1     -11.499  11.693  67.627  1.00  0.00    -0.373 A  
HETATM   15  C   UNL     1     -11.826  12.602  68.642  1.00  0.00    -0.302 A  
HETATM   16 CL   UNL     1     -12.200  14.256  68.320  1.00  0.00    -0.272 Cl 
HETATM   17  C   UNL     1     -11.822  12.198  69.981  1.00  0.00    -0.383 A  
HETATM   18  C   UNL     1     -11.418  10.906  70.327  1.00  0.00    -0.391 A  
HETATM   19  C   UNL     1     -11.037   9.991  69.339  1.00  0.00    -0.265 A  
HETATM   20  C   UNL     1     -11.171  10.374  67.994  1.00  0.00    -0.340 A  
BRANCH  19  21
HETATM   21  C   UNL     1     -10.295   8.718  69.723  1.00  0.00    -0.211 C  
HETATM   22  O   UNL     1     -11.040   8.063  70.769  1.00  0.00    -0.251 OA 
HETATM   23  C   UNL     1     -10.592   6.728  71.025  1.00  0.00    -0.222 C  
HETATM   24  H   UNL     1      -7.130   9.522  69.284  1.00  0.00     0.000 HD 
HETATM   25  C   UNL     1      -9.149   6.760  71.525  1.00  0.00    -0.145 C  
HETATM   26  O   UNL     1      -8.044   9.429  69.041  1.00  0.00    -0.101 OA 
HETATM   27  C   UNL     1      -8.261   7.471  70.492  1.00  0.00    -0.118 C  
HETATM   28  O   UNL     1      -8.625   5.450  71.764  1.00  0.00    -0.128 OA 
HETATM   29  H   UNL     1      -6.374   7.997  70.359  1.00  0.00     0.000 HD 
HETATM   30  C   UNL     1      -8.807   8.868  70.119  1.00  0.00    -0.163 C  
HETATM   31  H   UNL     1      -7.727   5.470  72.074  1.00  0.00     0.000 HD 
HETATM   32  O   UNL     1      -6.923   7.557  70.997  1.00  0.00    -0.053 OA 
BRANCH  23  33
HETATM   33  C   UNL     1     -11.540   6.106  72.056  1.00  0.00    -0.310 C  
HETATM   34  O   UNL     1     -11.775   7.047  73.114  1.00  0.00    -0.501 OA 
HETATM   35  H   UNL     1     -12.362   6.662  73.754  1.00  0.00     0.000 HD 
ENDBRANCH  23  33
ENDBRANCH  19  21
ENDBRANCH  13  14
ENDBRANCH  10  13
ENDBRANCH   6   7
ENDBRANCH   1   6
TORSDOF 6
ENDMDL
MODEL       76
REMARK 921   NORMALIZED FREE ENERGY PREDICTED BY IDOCK:   -6.51 KCAL/MOL
REMARK 922        TOTAL FREE ENERGY PREDICTED BY IDOCK:   -9.75 KCAL/MOL
REMARK 923 INTER-LIGAND FREE ENERGY PREDICTED BY IDOCK:   -8.59 KCAL/MOL
REMARK 924 INTRA-LIGAND FREE ENERGY PREDICTED BY IDOCK:   -1.17 KCAL/MOL
REMARK 927      BINDING AFFINITY PREDICTED BY RF-SCORE:    0.00 PKD
ROOT
HETATM    1  C   UNL     1      -9.497   7.509  67.410  1.00  0.00    -0.142 C  
HETATM    2  C   UNL     1     -10.627   6.701  66.797  1.00  0.00    -0.315 C  
HETATM    3  O   UNL     1      -8.914   5.182  67.307  1.00  0.00    -0.113 OA 
HETATM    4  C   UNL     1     -10.339   5.305  67.278  1.00  0.00    -0.199 C  
HETATM    5  C   UNL     1      -8.348   6.506  67.356  1.00  0.00    -0.120 C  
ENDROOT
BRANCH   1   6
HETATM    6  O   UNL     1      -9.295   8.658  66.594  1.00  0.00    -0.165 OA 
BRANCH   6   7
HETATM    7  C   UNL     1     -10.083   9.753  66.794  1.00  0.00    -0.231 A  
HETATM    8  C   UNL     1     -11.459  11.286  68.066  1.00  0.00    -0.369 A  
HETATM    9  C   UNL     1     -10.767  10.067  67.965  1.00  0.00    -0.303 A  
HETATM   10  C   UNL     1     -11.475  12.203  67.000  1.00  0.00    -0.415 A  
HETATM   11  C   UNL     1     -10.109  10.652  65.727  1.00  0.00    -0.327 A  
HETATM   12  C   UNL     1     -10.804  11.860  65.822  1.00  0.00    -0.341 A  
BRANCH  10  13
HETATM   13  C   UNL     1     -12.128  13.568  67.143  1.00  0.00    -0.386 C  
BRANCH  13  14
HETATM   14  C   UNL     1     -11.373  14.476  68.094  1.00  0.00    -0.319 A  
HETATM   15  C   UNL     1     -11.685  14.618  69.452  1.00  0.00    -0.316 A  
HETATM   16 CL   UNL     1     -12.904  13.671  70.227  1.00  0.00    -0.147 Cl 
HETATM   17  C   UNL     1     -11.033  15.579  70.232  1.00  0.00    -0.352 A  
HETATM   18  C   UNL     1     -10.118  16.459  69.648  1.00  0.00    -0.149 A  
HETATM   19  C   UNL     1      -9.824  16.375  68.282  1.00  0.00    -0.229 A  
HETATM   20  C   UNL     1     -10.391  15.323  67.545  1.00  0.00    -0.244 A  
BRANCH  19  21
HETATM   21  C   UNL     1      -9.095  17.518  67.588  1.00  0.00    -0.243 C  
HETATM   22  O   UNL     1      -8.271  18.184  68.564  1.00  0.00    -0.301 OA 
HETATM   23  C   UNL     1      -7.337  19.098  67.980  1.00  0.00    -0.256 C  
HETATM   24  H   UNL     1     -11.251  18.515  65.304  1.00  0.00     0.000 HD 
HETATM   25  C   UNL     1      -8.095  20.218  67.269  1.00  0.00    -0.338 C  
HETATM   26  O   UNL     1     -10.716  17.890  65.778  1.00  0.00    -0.434 OA 
HETATM   27  C   UNL     1      -9.037  19.616  66.216  1.00  0.00    -0.376 C  
HETATM   28  O   UNL     1      -7.217  21.149  66.628  1.00  0.00    -0.571 OA 
HETATM   29  H   UNL     1     -10.375  20.293  64.950  1.00  0.00     0.000 HD 
HETATM   30  C   UNL     1      -9.967  18.537  66.817  1.00  0.00    -0.360 C  
HETATM   31  H   UNL     1      -7.689  21.846  66.185  1.00  0.00     0.000 HD 
HETATM   32  O   UNL     1      -9.793  20.666  65.601  1.00  0.00     0.009 OA 
BRANCH  23  33
HETATM   33  C   UNL     1      -6.444  19.637  69.103  1.00  0.00    -0.326 C  
HETATM   34  O   UNL     1      -5.341  20.354  68.531  1.00  0.00    -0.212 OA 
HETATM   35  H   UNL     1      -4.787  20.688  69.227  1.00  0.00     0.000 HD 
ENDBRANCH  23  33
ENDBRANCH  19  21
ENDBRANCH  13  14
ENDBRANCH  10  13
ENDBRANCH   6   7
ENDBRANCH   1   6
TORSDOF 6
ENDMDL
MODEL       77
REMARK 921   NORMALIZED FREE ENERGY PREDICTED BY IDOCK:   -6.49 KCAL/MOL
REMARK 922        TOTAL FREE ENERGY PREDICTED BY IDOCK:   -9.73 KCAL/MOL
REMARK 923 INTER-LIGAND FREE ENERGY PREDICTED BY IDOCK:   -8.53 KCAL/MOL
REMARK 924 INTRA-LIGAND FREE ENERGY PREDICTED BY IDOCK:   -1.20 KCAL/MOL
REMARK 927      BINDING AFFINITY PREDICTED BY RF-SCORE:    0.00 PKD
ROOT
HETATM    1  C   UNL     1     -10.284   6.910  71.489  1.00  0.00    -0.196 C  
HETATM    2  C   UNL     1     -10.817   7.757  72.631  1.00  0.00    -0.413 C  
HETATM    3  O   UNL     1     -10.851   5.531  73.371  1.00  0.00    -0.258 OA 
HETATM    4  C   UNL     1     -10.618   6.866  73.828  1.00  0.00    -0.301 C  
HETATM    5  C   UNL     1     -10.690   5.510  71.940  1.00  0.00    -0.231 C  
ENDROOT
BRANCH   1   6
HETATM    6  O   UNL     1     -10.930   7.339  70.296  1.00  0.00    -0.250 OA 
BRANCH   6   7
HETATM    7  C   UNL     1     -10.226   7.331  69.128  1.00  0.00    -0.197 A  
HETATM    8  C   UNL     1      -9.851   6.910  66.773  1.00  0.00    -0.243 A  
HETATM    9  C   UNL     1     -10.633   6.750  67.930  1.00  0.00    -0.296 A  
HETATM   10  C   UNL     1      -8.657   7.650  66.800  1.00  0.00    -0.129 A  
HETATM   11  C   UNL     1      -9.033   8.054  69.164  1.00  0.00    -0.145 A  
HETATM   12  C   UNL     1      -8.249   8.206  68.017  1.00  0.00    -0.129 A  
BRANCH  10  13
HETATM   13  C   UNL     1      -7.866   7.918  65.530  1.00  0.00    -0.112 C  
BRANCH  13  14
HETATM   14  C   UNL     1      -8.612   8.813  64.559  1.00  0.00    -0.125 A  
HETATM   15  C   UNL     1      -8.412   8.798  63.172  1.00  0.00    -0.129 A  
HETATM   16 CL   UNL     1      -7.369   7.660  62.398  1.00  0.00    -0.087 Cl 
HETATM   17  C   UNL     1      -9.035   9.749  62.357  1.00  0.00    -0.288 A  
HETATM   18  C   UNL     1      -9.801  10.770  62.925  1.00  0.00    -0.294 A  
HETATM   19  C   UNL     1      -9.977  10.842  64.312  1.00  0.00    -0.403 A  
HETATM   20  C   UNL     1      -9.451   9.805  65.100  1.00  0.00    -0.338 A  
BRANCH  19  21
HETATM   21  C   UNL     1     -10.523  12.114  64.947  1.00  0.00    -0.288 C  
HETATM   22  O   UNL     1     -10.234  12.070  66.358  1.00  0.00    -0.210 OA 
HETATM   23  C   UNL     1     -10.455  13.323  67.014  1.00  0.00    -0.249 C  
HETATM   24  H   UNL     1     -13.202  12.771  63.145  1.00  0.00     0.000 HD 
HETATM   25  C   UNL     1     -11.934  13.695  66.921  1.00  0.00    -0.410 C  
HETATM   26  O   UNL     1     -12.285  12.575  63.297  1.00  0.00    -0.519 OA 
HETATM   27  C   UNL     1     -12.363  13.741  65.447  1.00  0.00    -0.475 C  
HETATM   28  O   UNL     1     -12.217  14.961  67.527  1.00  0.00    -0.494 OA 
HETATM   29  H   UNL     1     -14.029  14.053  64.458  1.00  0.00     0.000 HD 
HETATM   30  C   UNL     1     -12.016  12.433  64.699  1.00  0.00    -0.394 C  
HETATM   31  H   UNL     1     -13.137  15.192  67.468  1.00  0.00     0.000 HD 
HETATM   32  O   UNL     1     -13.765  14.024  65.370  1.00  0.00    -0.376 OA 
BRANCH  23  33
HETATM   33  C   UNL     1      -9.994  13.177  68.468  1.00  0.00    -0.180 C  
HETATM   34  O   UNL     1     -11.113  12.808  69.287  1.00  0.00    -0.376 OA 
HETATM   35  H   UNL     1     -10.827  12.717  70.189  1.00  0.00     0.000 HD 
ENDBRANCH  23  33
ENDBRANCH  19  21
ENDBRANCH  13  14
ENDBRANCH  10  13
ENDBRANCH   6   7
ENDBRANCH   1   6
TORSDOF 6
ENDMDL
MODEL       78
REMARK 921   NORMALIZED FREE ENERGY PREDICTED BY IDOCK:   -6.48 KCAL/MOL
REMARK 922        TOTAL FREE ENERGY PREDICTED BY IDOCK:   -9.71 KCAL/MOL
REMARK 923 INTER-LIGAND FREE ENERGY PREDICTED BY IDOCK:   -8.44 KCAL/MOL
REMARK 924 INTRA-LIGAND FREE ENERGY PREDICTED BY IDOCK:   -1.27 KCAL/MOL
REMARK 927      BINDING AFFINITY PREDICTED BY RF-SCORE:    0.00 PKD
ROOT
HETATM    1  C   UNL     1      -9.444   7.689  69.792  1.00  0.00    -0.156 C  
HETATM    2  C   UNL     1      -8.680   6.528  69.182  1.00  0.00    -0.129 C  
HETATM    3  O   UNL     1      -8.795   6.120  71.490  1.00  0.00    -0.135 OA 
HETATM    4  C   UNL     1      -8.820   5.451  70.225  1.00  0.00    -0.128 C  
HETATM    5  C   UNL     1      -9.140   7.502  71.276  1.00  0.00    -0.141 C  
ENDROOT
BRANCH   1   6
HETATM    6  O   UNL     1      -8.913   8.891  69.245  1.00  0.00    -0.140 OA 
BRANCH   6   7
HETATM    7  C   UNL     1      -9.759   9.934  69.004  1.00  0.00    -0.193 A  
HETATM    8  C   UNL     1     -11.864  11.129  69.042  1.00  0.00    -0.418 A  
HETATM    9  C   UNL     1     -11.131   9.946  69.237  1.00  0.00    -0.220 A  
HETATM   10  C   UNL     1     -11.236  12.311  68.613  1.00  0.00    -0.305 A  
HETATM   11  C   UNL     1      -9.132  11.100  68.562  1.00  0.00    -0.175 A  
HETATM   12  C   UNL     1      -9.861  12.275  68.358  1.00  0.00    -0.199 A  
BRANCH  10  13
HETATM   13  C   UNL     1     -12.003  13.618  68.505  1.00  0.00    -0.396 C  
BRANCH  13  14
HETATM   14  C   UNL     1     -11.622  14.415  67.273  1.00  0.00    -0.401 A  
HETATM   15  C   UNL     1     -11.721  13.924  65.964  1.00  0.00    -0.366 A  
HETATM   16 CL   UNL     1     -12.409  12.382  65.602  1.00  0.00    -0.348 Cl 
HETATM   17  C   UNL     1     -11.219  14.667  64.890  1.00  0.00    -0.400 A  
HETATM   18  C   UNL     1     -10.546  15.870  65.117  1.00  0.00    -0.421 A  
HETATM   19  C   UNL     1     -10.387  16.361  66.419  1.00  0.00    -0.319 A  
HETATM   20  C   UNL     1     -11.008  15.667  67.469  1.00  0.00    -0.309 A  
BRANCH  19  21
HETATM   21  C   UNL     1      -9.388  17.477  66.695  1.00  0.00    -0.262 C  
HETATM   22  O   UNL     1      -8.655  17.137  67.888  1.00  0.00    -0.206 OA 
HETATM   23  C   UNL     1      -7.509  17.969  68.099  1.00  0.00    -0.249 C  
HETATM   24  H   UNL     1     -10.947  20.173  65.618  1.00  0.00     0.000 HD 
HETATM   25  C   UNL     1      -7.959  19.415  68.306  1.00  0.00    -0.331 C  
HETATM   26  O   UNL     1     -10.599  19.290  65.562  1.00  0.00    -0.520 OA 
HETATM   27  C   UNL     1      -8.784  19.877  67.095  1.00  0.00    -0.330 C  
HETATM   28  O   UNL     1      -6.856  20.309  68.484  1.00  0.00    -0.292 OA 
HETATM   29  H   UNL     1      -9.769  21.494  66.577  1.00  0.00     0.000 HD 
HETATM   30  C   UNL     1      -9.954  18.914  66.787  1.00  0.00    -0.360 C  
HETATM   31  H   UNL     1      -7.136  21.208  68.612  1.00  0.00     0.000 HD 
HETATM   32  O   UNL     1      -9.259  21.209  67.326  1.00  0.00    -0.200 OA 
BRANCH  23  33
HETATM   33  C   UNL     1      -6.754  17.427  69.317  1.00  0.00    -0.222 C  
HETATM   34  O   UNL     1      -5.349  17.666  69.149  1.00  0.00    -0.170 OA 
HETATM   35  H   UNL     1      -4.880  17.330  69.904  1.00  0.00     0.000 HD 
ENDBRANCH  23  33
ENDBRANCH  19  21
ENDBRANCH  13  14
ENDBRANCH  10  13
ENDBRANCH   6   7
ENDBRANCH   1   6
TORSDOF 6
ENDMDL
MODEL       79
REMARK 921   NORMALIZED FREE ENERGY PREDICTED BY IDOCK:   -6.47 KCAL/MOL
REMARK 922        TOTAL FREE ENERGY PREDICTED BY IDOCK:   -9.71 KCAL/MOL
REMARK 923 INTER-LIGAND FREE ENERGY PREDICTED BY IDOCK:   -8.54 KCAL/MOL
REMARK 924 INTRA-LIGAND FREE ENERGY PREDICTED BY IDOCK:   -1.16 KCAL/MOL
REMARK 927      BINDING AFFINITY PREDICTED BY RF-SCORE:    0.00 PKD
ROOT
HETATM    1  C   UNL     1     -11.163   8.280  71.335  1.00  0.00    -0.255 C  
HETATM    2  C   UNL     1     -11.230   6.857  70.811  1.00  0.00    -0.338 C  
HETATM    3  O   UNL     1     -11.078   6.708  73.148  1.00  0.00    -0.247 OA 
HETATM    4  C   UNL     1     -11.687   6.079  72.016  1.00  0.00    -0.257 C  
HETATM    5  C   UNL     1     -10.709   8.049  72.774  1.00  0.00    -0.362 C  
ENDROOT
BRANCH   1   6
HETATM    6  O   UNL     1     -10.216   8.988  70.542  1.00  0.00    -0.193 OA 
BRANCH   6   7
HETATM    7  C   UNL     1     -10.563  10.207  70.036  1.00  0.00    -0.287 A  
HETATM    8  C   UNL     1     -10.513  12.043  68.459  1.00  0.00    -0.244 A  
HETATM    9  C   UNL     1      -9.983  10.832  68.936  1.00  0.00    -0.213 A  
HETATM   10  C   UNL     1     -11.626  12.641  69.074  1.00  0.00    -0.367 A  
HETATM   11  C   UNL     1     -11.658  10.804  70.661  1.00  0.00    -0.388 A  
HETATM   12  C   UNL     1     -12.181  12.013  70.194  1.00  0.00    -0.309 A  
BRANCH  10  13
HETATM   13  C   UNL     1     -12.270  13.891  68.497  1.00  0.00    -0.201 C  
BRANCH  13  14
HETATM   14  C   UNL     1     -11.431  14.525  67.404  1.00  0.00    -0.385 A  
HETATM   15  C   UNL     1     -11.424  14.088  66.073  1.00  0.00    -0.338 A  
HETATM   16 CL   UNL     1     -12.475  12.843  65.500  1.00  0.00    -0.520 Cl 
HETATM   17  C   UNL     1     -10.520  14.632  65.154  1.00  0.00    -0.440 A  
HETATM   18  C   UNL     1      -9.563  15.560  65.572  1.00  0.00    -0.257 A  
HETATM   19  C   UNL     1      -9.512  15.978  66.907  1.00  0.00    -0.242 A  
HETATM   20  C   UNL     1     -10.508  15.518  67.783  1.00  0.00    -0.273 A  
BRANCH  19  21
HETATM   21  C   UNL     1      -8.288  16.720  67.427  1.00  0.00    -0.181 C  
HETATM   22  O   UNL     1      -7.851  16.073  68.638  1.00  0.00    -0.158 OA 
HETATM   23  C   UNL     1      -6.558  16.508  69.072  1.00  0.00    -0.193 C  
HETATM   24  H   UNL     1      -8.865  19.842  66.543  1.00  0.00     0.000 HD 
HETATM   25  C   UNL     1      -6.609  17.997  69.412  1.00  0.00    -0.192 C  
HETATM   26  O   UNL     1      -8.774  18.905  66.412  1.00  0.00    -0.309 OA 
HETATM   27  C   UNL     1      -7.097  18.790  68.190  1.00  0.00    -0.250 C  
HETATM   28  O   UNL     1      -5.334  18.507  69.818  1.00  0.00    -0.188 OA 
HETATM   29  H   UNL     1      -7.507  20.665  67.782  1.00  0.00     0.000 HD 
HETATM   30  C   UNL     1      -8.435  18.246  67.641  1.00  0.00    -0.255 C  
HETATM   31  H   UNL     1      -5.366  19.433  70.029  1.00  0.00     0.000 HD 
HETATM   32  O   UNL     1      -7.206  20.175  68.537  1.00  0.00    -0.283 OA 
BRANCH  23  33
HETATM   33  C   UNL     1      -6.160  15.659  70.283  1.00  0.00    -0.066 C  
HETATM   34  O   UNL     1      -6.805  14.380  70.199  1.00  0.00    -0.355 OA 
HETATM   35  H   UNL     1      -6.558  13.853  70.951  1.00  0.00     0.000 HD 
ENDBRANCH  23  33
ENDBRANCH  19  21
ENDBRANCH  13  14
ENDBRANCH  10  13
ENDBRANCH   6   7
ENDBRANCH   1   6
TORSDOF 6
ENDMDL
MODEL       80
REMARK 921   NORMALIZED FREE ENERGY PREDICTED BY IDOCK:   -6.47 KCAL/MOL
REMARK 922        TOTAL FREE ENERGY PREDICTED BY IDOCK:   -9.70 KCAL/MOL
REMARK 923 INTER-LIGAND FREE ENERGY PREDICTED BY IDOCK:   -8.46 KCAL/MOL
REMARK 924 INTRA-LIGAND FREE ENERGY PREDICTED BY IDOCK:   -1.24 KCAL/MOL
REMARK 927      BINDING AFFINITY PREDICTED BY RF-SCORE:    0.00 PKD
ROOT
HETATM    1  C   UNL     1     -12.872  13.720  72.052  1.00  0.00    -0.288 C  
HETATM    2  C   UNL     1     -12.037  14.954  71.761  1.00  0.00    -0.428 C  
HETATM    3  O   UNL     1     -14.173  15.715  72.362  1.00  0.00    -0.551 OA 
HETATM    4  C   UNL     1     -12.786  16.042  72.483  1.00  0.00    -0.428 C  
HETATM    5  C   UNL     1     -14.281  14.309  72.067  1.00  0.00    -0.542 C  
ENDROOT
BRANCH   1   6
HETATM    6  O   UNL     1     -12.651  12.790  70.998  1.00  0.00    -0.363 OA 
BRANCH   6   7
HETATM    7  C   UNL     1     -12.707  11.456  71.276  1.00  0.00    -0.393 A  
HETATM    8  C   UNL     1     -13.659   9.424  72.185  1.00  0.00    -0.528 A  
HETATM    9  C   UNL     1     -13.660  10.825  72.070  1.00  0.00    -0.167 A  
HETATM   10  C   UNL     1     -12.709   8.640  71.509  1.00  0.00    -0.351 A  
HETATM   11  C   UNL     1     -11.751  10.684  70.615  1.00  0.00    -0.454 A  
HETATM   12  C   UNL     1     -11.742   9.292  70.735  1.00  0.00    -0.328 A  
BRANCH  10  13
HETATM   13  C   UNL     1     -12.770   7.122  71.542  1.00  0.00    -0.433 C  
BRANCH  13  14
HETATM   14  C   UNL     1     -11.434   6.480  71.224  1.00  0.00    -0.371 A  
HETATM   15  C   UNL     1     -10.315   6.548  72.064  1.00  0.00    -0.199 A  
HETATM   16 CL   UNL     1     -10.373   7.279  73.628  1.00  0.00    -0.406 Cl 
HETATM   17  C   UNL     1      -9.078   6.050  71.639  1.00  0.00    -0.147 A  
HETATM   18  C   UNL     1      -8.928   5.550  70.343  1.00  0.00    -0.156 A  
HETATM   19  C   UNL     1     -10.016   5.516  69.463  1.00  0.00    -0.278 A  
HETATM   20  C   UNL     1     -11.275   5.900  69.951  1.00  0.00    -0.339 A  
BRANCH  19  21
HETATM   21  C   UNL     1      -9.786   5.285  67.975  1.00  0.00    -0.141 C  
HETATM   22  O   UNL     1      -9.149   4.003  67.813  1.00  0.00    -0.123 OA 
HETATM   23  C   UNL     1      -9.126   3.555  66.454  1.00  0.00    -0.159 C  
HETATM   24  H   UNL     1      -9.225   8.318  66.815  1.00  0.00     0.000 HD 
HETATM   25  C   UNL     1      -8.296   4.522  65.611  1.00  0.00    -0.115 C  
HETATM   26  O   UNL     1      -9.699   7.643  67.286  1.00  0.00    -0.148 OA 
HETATM   27  C   UNL     1      -8.872   5.940  65.734  1.00  0.00    -0.139 C  
HETATM   28  O   UNL     1      -8.265   4.152  64.229  1.00  0.00    -0.092 OA 
HETATM   29  H   UNL     1      -8.406   7.729  65.073  1.00  0.00     0.000 HD 
HETATM   30  C   UNL     1      -9.013   6.384  67.208  1.00  0.00    -0.107 C  
HETATM   31  H   UNL     1      -7.749   4.754  63.704  1.00  0.00     0.000 HD 
HETATM   32  O   UNL     1      -8.050   6.852  64.996  1.00  0.00    -0.121 OA 
BRANCH  23  33
HETATM   33  C   UNL     1      -8.543   2.138  66.437  1.00  0.00    -0.112 C  
HETATM   34  O   UNL     1      -7.168   2.194  66.031  1.00  0.00    -0.058 OA 
HETATM   35  H   UNL     1      -6.806   1.316  66.020  1.00  0.00     0.000 HD 
ENDBRANCH  23  33
ENDBRANCH  19  21
ENDBRANCH  13  14
ENDBRANCH  10  13
ENDBRANCH   6   7
ENDBRANCH   1   6
TORSDOF 6
ENDMDL
MODEL       81
REMARK 921   NORMALIZED FREE ENERGY PREDICTED BY IDOCK:   -6.47 KCAL/MOL
REMARK 922        TOTAL FREE ENERGY PREDICTED BY IDOCK:   -9.70 KCAL/MOL
REMARK 923 INTER-LIGAND FREE ENERGY PREDICTED BY IDOCK:   -8.61 KCAL/MOL
REMARK 924 INTRA-LIGAND FREE ENERGY PREDICTED BY IDOCK:   -1.09 KCAL/MOL
REMARK 927      BINDING AFFINITY PREDICTED BY RF-SCORE:    0.00 PKD
ROOT
HETATM    1  C   UNL     1     -11.694  15.661  71.876  1.00  0.00    -0.459 C  
HETATM    2  C   UNL     1     -11.934  16.476  73.134  1.00  0.00    -0.469 C  
HETATM    3  O   UNL     1     -13.304  14.577  73.290  1.00  0.00    -0.611 OA 
HETATM    4  C   UNL     1     -12.506  15.460  74.086  1.00  0.00    -0.642 C  
HETATM    5  C   UNL     1     -12.868  14.686  71.922  1.00  0.00    -0.328 C  
ENDROOT
BRANCH   1   6
HETATM    6  O   UNL     1     -11.734  16.555  70.768  1.00  0.00    -0.174 OA 
BRANCH   6   7
HETATM    7  C   UNL     1     -11.305  16.112  69.551  1.00  0.00    -0.321 A  
HETATM    8  C   UNL     1     -11.497  15.013  67.403  1.00  0.00    -0.326 A  
HETATM    9  C   UNL     1     -12.022  15.305  68.674  1.00  0.00    -0.263 A  
HETATM   10  C   UNL     1     -10.252  15.523  66.997  1.00  0.00    -0.271 A  
HETATM   11  C   UNL     1     -10.060  16.608  69.160  1.00  0.00    -0.285 A  
HETATM   12  C   UNL     1      -9.532  16.311  67.900  1.00  0.00    -0.218 A  
BRANCH  10  13
HETATM   13  C   UNL     1      -9.731  15.300  65.587  1.00  0.00    -0.360 C  
BRANCH  13  14
HETATM   14  C   UNL     1     -10.234  14.005  64.979  1.00  0.00    -0.395 A  
HETATM   15  C   UNL     1     -11.407  13.904  64.219  1.00  0.00    -0.294 A  
HETATM   16 CL   UNL     1     -12.354  15.281  63.786  1.00  0.00     0.108 Cl 
HETATM   17  C   UNL     1     -11.879  12.651  63.811  1.00  0.00    -0.574 A  
HETATM   18  C   UNL     1     -11.230  11.484  64.221  1.00  0.00    -0.358 A  
HETATM   19  C   UNL     1     -10.084  11.552  65.023  1.00  0.00    -0.315 A  
HETATM   20  C   UNL     1      -9.554  12.820  65.314  1.00  0.00     0.088 A  
BRANCH  19  21
HETATM   21  C   UNL     1      -9.575  10.305  65.732  1.00  0.00    -0.224 C  
HETATM   22  O   UNL     1      -9.150   9.361  64.730  1.00  0.00    -0.227 OA 
HETATM   23  C   UNL     1      -8.405   8.265  65.271  1.00  0.00    -0.166 C  
HETATM   24  H   UNL     1     -11.470  10.136  68.423  1.00  0.00     0.000 HD 
HETATM   25  C   UNL     1      -9.294   7.463  66.221  1.00  0.00    -0.111 C  
HETATM   26  O   UNL     1     -10.881  10.546  67.800  1.00  0.00    -0.249 OA 
HETATM   27  C   UNL     1      -9.834   8.386  67.325  1.00  0.00    -0.203 C  
HETATM   28  O   UNL     1      -8.596   6.371  66.829  1.00  0.00    -0.110 OA 
HETATM   29  H   UNL     1     -11.052   8.214  68.854  1.00  0.00     0.000 HD 
HETATM   30  C   UNL     1     -10.534   9.636  66.746  1.00  0.00    -0.186 C  
HETATM   31  H   UNL     1      -9.149   5.873  67.420  1.00  0.00     0.000 HD 
HETATM   32  O   UNL     1     -10.719   7.643  68.172  1.00  0.00    -0.165 OA 
BRANCH  23  33
HETATM   33  C   UNL     1      -7.908   7.412  64.099  1.00  0.00    -0.120 C  
HETATM   34  O   UNL     1      -8.535   7.858  62.887  1.00  0.00    -0.385 OA 
HETATM   35  H   UNL     1      -8.226   7.329  62.161  1.00  0.00     0.000 HD 
ENDBRANCH  23  33
ENDBRANCH  19  21
ENDBRANCH  13  14
ENDBRANCH  10  13
ENDBRANCH   6   7
ENDBRANCH   1   6
TORSDOF 6
ENDMDL
MODEL       82
REMARK 921   NORMALIZED FREE ENERGY PREDICTED BY IDOCK:   -6.47 KCAL/MOL
REMARK 922        TOTAL FREE ENERGY PREDICTED BY IDOCK:   -9.70 KCAL/MOL
REMARK 923 INTER-LIGAND FREE ENERGY PREDICTED BY IDOCK:   -8.94 KCAL/MOL
REMARK 924 INTRA-LIGAND FREE ENERGY PREDICTED BY IDOCK:   -0.76 KCAL/MOL
REMARK 927      BINDING AFFINITY PREDICTED BY RF-SCORE:    0.00 PKD
ROOT
HETATM    1  C   UNL     1     -11.835  13.112  69.902  1.00  0.00    -0.308 C  
HETATM    2  C   UNL     1     -11.912  13.983  68.661  1.00  0.00    -0.389 C  
HETATM    3  O   UNL     1     -12.669  15.295  70.452  1.00  0.00    -0.379 OA 
HETATM    4  C   UNL     1     -11.928  15.376  69.231  1.00  0.00    -0.310 C  
HETATM    5  C   UNL     1     -12.669  13.923  70.890  1.00  0.00    -0.340 C  
ENDROOT
BRANCH   1   6
HETATM    6  O   UNL     1     -12.400  11.846  69.577  1.00  0.00    -0.167 OA 
BRANCH   6   7
HETATM    7  C   UNL     1     -12.250  10.814  70.456  1.00  0.00    -0.366 A  
HETATM    8  C   UNL     1     -12.982   9.069  71.966  1.00  0.00    -0.470 A  
HETATM    9  C   UNL     1     -13.269  10.194  71.173  1.00  0.00    -0.438 A  
HETATM   10  C   UNL     1     -11.678   8.553  72.051  1.00  0.00    -0.431 A  
HETATM   11  C   UNL     1     -10.949  10.317  70.550  1.00  0.00    -0.343 A  
HETATM   12  C   UNL     1     -10.661   9.205  71.346  1.00  0.00    -0.412 A  
BRANCH  10  13
HETATM   13  C   UNL     1     -11.383   7.275  72.819  1.00  0.00    -0.318 C  
BRANCH  13  14
HETATM   14  C   UNL     1     -10.911   6.152  71.916  1.00  0.00    -0.295 A  
HETATM   15  C   UNL     1     -10.430   4.922  72.386  1.00  0.00    -0.209 A  
HETATM   16 CL   UNL     1     -10.439   4.502  74.061  1.00  0.00    -0.286 Cl 
HETATM   17  C   UNL     1      -9.883   3.990  71.497  1.00  0.00    -0.251 A  
HETATM   18  C   UNL     1      -9.737   4.307  70.144  1.00  0.00    -0.282 A  
HETATM   19  C   UNL     1     -10.161   5.548  69.654  1.00  0.00    -0.309 A  
HETATM   20  C   UNL     1     -10.824   6.417  70.536  1.00  0.00    -0.335 A  
BRANCH  19  21
HETATM   21  C   UNL     1      -9.712   6.017  68.277  1.00  0.00    -0.124 C  
HETATM   22  O   UNL     1      -9.957   4.952  67.338  1.00  0.00    -0.172 OA 
HETATM   23  C   UNL     1      -9.830   5.366  65.974  1.00  0.00    -0.094 C  
HETATM   24  H   UNL     1      -7.152   7.982  68.942  1.00  0.00     0.000 HD 
HETATM   25  C   UNL     1      -8.392   5.811  65.707  1.00  0.00    -0.134 C  
HETATM   26  O   UNL     1      -8.044   7.663  69.017  1.00  0.00    -0.122 OA 
HETATM   27  C   UNL     1      -8.010   6.935  66.681  1.00  0.00    -0.108 C  
HETATM   28  O   UNL     1      -8.206   6.275  64.366  1.00  0.00    -0.213 OA 
HETATM   29  H   UNL     1      -6.405   7.995  67.072  1.00  0.00     0.000 HD 
HETATM   30  C   UNL     1      -8.260   6.537  68.154  1.00  0.00    -0.117 C  
HETATM   31  H   UNL     1      -7.312   6.552  64.199  1.00  0.00     0.000 HD 
HETATM   32  O   UNL     1      -6.641   7.300  66.470  1.00  0.00    -0.052 OA 
BRANCH  23  33
HETATM   33  C   UNL     1     -10.236   4.185  65.086  1.00  0.00    -0.204 C  
HETATM   34  O   UNL     1     -11.637   4.274  64.788  1.00  0.00    -0.963 OA 
HETATM   35  H   UNL     1     -11.889   3.542  64.238  1.00  0.00     0.000 HD 
ENDBRANCH  23  33
ENDBRANCH  19  21
ENDBRANCH  13  14
ENDBRANCH  10  13
ENDBRANCH   6   7
ENDBRANCH   1   6
TORSDOF 6
ENDMDL
MODEL       83
REMARK 921   NORMALIZED FREE ENERGY PREDICTED BY IDOCK:   -6.47 KCAL/MOL
REMARK 922        TOTAL FREE ENERGY PREDICTED BY IDOCK:   -9.70 KCAL/MOL
REMARK 923 INTER-LIGAND FREE ENERGY PREDICTED BY IDOCK:   -8.59 KCAL/MOL
REMARK 924 INTRA-LIGAND FREE ENERGY PREDICTED BY IDOCK:   -1.11 KCAL/MOL
REMARK 927      BINDING AFFINITY PREDICTED BY RF-SCORE:    0.00 PKD
ROOT
HETATM    1  C   UNL     1      -9.827  18.340  66.440  1.00  0.00    -0.357 C  
HETATM    2  C   UNL     1      -9.915  18.389  67.955  1.00  0.00    -0.370 C  
HETATM    3  O   UNL     1      -9.657  20.603  67.224  1.00  0.00    -0.451 OA 
HETATM    4  C   UNL     1     -10.316  19.815  68.220  1.00  0.00    -0.410 C  
HETATM    5  C   UNL     1      -9.309  19.740  66.125  1.00  0.00    -0.363 C  
ENDROOT
BRANCH   1   6
HETATM    6  O   UNL     1      -8.919  17.300  66.093  1.00  0.00    -0.422 OA 
BRANCH   6   7
HETATM    7  C   UNL     1      -9.360  16.009  66.111  1.00  0.00    -0.342 A  
HETATM    8  C   UNL     1      -9.393  13.692  66.812  1.00  0.00    -0.269 A  
HETATM    9  C   UNL     1      -8.769  14.952  66.796  1.00  0.00    -0.278 A  
HETATM   10  C   UNL     1     -10.612  13.476  66.145  1.00  0.00    -0.290 A  
HETATM   11  C   UNL     1     -10.562  15.797  65.434  1.00  0.00    -0.441 A  
HETATM   12  C   UNL     1     -11.179  14.543  65.440  1.00  0.00    -0.342 A  
BRANCH  10  13
HETATM   13  C   UNL     1     -11.344  12.149  66.251  1.00  0.00    -0.411 C  
BRANCH  13  14
HETATM   14  C   UNL     1     -11.458  11.660  67.682  1.00  0.00    -0.373 A  
HETATM   15  C   UNL     1     -11.854  12.470  68.754  1.00  0.00    -0.303 A  
HETATM   16 CL   UNL     1     -12.380  14.101  68.540  1.00  0.00    -0.181 Cl 
HETATM   17  C   UNL     1     -11.800  11.984  70.065  1.00  0.00    -0.392 A  
HETATM   18  C   UNL     1     -11.277  10.715  70.326  1.00  0.00    -0.365 A  
HETATM   19  C   UNL     1     -10.825   9.903  69.280  1.00  0.00    -0.255 A  
HETATM   20  C   UNL     1     -11.007  10.357  67.963  1.00  0.00    -0.347 A  
BRANCH  19  21
HETATM   21  C   UNL     1      -9.967   8.681  69.579  1.00  0.00    -0.196 C  
HETATM   22  O   UNL     1      -8.796   8.739  68.742  1.00  0.00    -0.133 OA 
HETATM   23  C   UNL     1      -7.788   7.796  69.120  1.00  0.00    -0.114 C  
HETATM   24  H   UNL     1     -12.186   6.357  70.306  1.00  0.00     0.000 HD 
HETATM   25  C   UNL     1      -8.328   6.376  68.953  1.00  0.00    -0.121 C  
HETATM   26  O   UNL     1     -11.764   7.205  70.374  1.00  0.00    -0.289 OA 
HETATM   27  C   UNL     1      -9.607   6.209  69.786  1.00  0.00    -0.150 C  
HETATM   28  O   UNL     1      -7.380   5.382  69.353  1.00  0.00    -0.063 OA 
HETATM   29  H   UNL     1     -10.936   4.795  70.086  1.00  0.00     0.000 HD 
HETATM   30  C   UNL     1     -10.655   7.300  69.468  1.00  0.00    -0.234 C  
HETATM   31  H   UNL     1      -7.716   4.499  69.248  1.00  0.00     0.000 HD 
HETATM   32  O   UNL     1     -10.144   4.898  69.570  1.00  0.00    -0.221 OA 
BRANCH  23  33
HETATM   33  C   UNL     1      -6.558   8.047  68.242  1.00  0.00    -0.056 C  
HETATM   34  O   UNL     1      -6.542   7.098  67.165  1.00  0.00    -0.054 OA 
HETATM   35  H   UNL     1      -5.779   7.253  66.620  1.00  0.00     0.000 HD 
ENDBRANCH  23  33
ENDBRANCH  19  21
ENDBRANCH  13  14
ENDBRANCH  10  13
ENDBRANCH   6   7
ENDBRANCH   1   6
TORSDOF 6
ENDMDL
MODEL       84
REMARK 921   NORMALIZED FREE ENERGY PREDICTED BY IDOCK:   -6.46 KCAL/MOL
REMARK 922        TOTAL FREE ENERGY PREDICTED BY IDOCK:   -9.70 KCAL/MOL
REMARK 923 INTER-LIGAND FREE ENERGY PREDICTED BY IDOCK:   -8.69 KCAL/MOL
REMARK 924 INTRA-LIGAND FREE ENERGY PREDICTED BY IDOCK:   -1.00 KCAL/MOL
REMARK 927      BINDING AFFINITY PREDICTED BY RF-SCORE:    0.00 PKD
ROOT
HETATM    1  C   UNL     1      -7.755  18.375  67.226  1.00  0.00    -0.223 C  
HETATM    2  C   UNL     1      -6.482  18.720  67.978  1.00  0.00    -0.227 C  
HETATM    3  O   UNL     1      -7.202  20.694  66.933  1.00  0.00    -0.292 OA 
HETATM    4  C   UNL     1      -6.578  20.215  68.128  1.00  0.00    -0.292 C  
HETATM    5  C   UNL     1      -7.910  19.597  66.325  1.00  0.00    -0.321 C  
ENDROOT
BRANCH   1   6
HETATM    6  O   UNL     1      -7.522  17.164  66.515  1.00  0.00    -0.224 OA 
BRANCH   6   7
HETATM    7  C   UNL     1      -8.421  16.146  66.639  1.00  0.00    -0.280 A  
HETATM    8  C   UNL     1      -9.337  14.102  67.557  1.00  0.00    -0.204 A  
HETATM    9  C   UNL     1      -8.281  15.022  67.447  1.00  0.00    -0.215 A  
HETATM   10  C   UNL     1     -10.544  14.295  66.862  1.00  0.00    -0.273 A  
HETATM   11  C   UNL     1      -9.610  16.334  65.933  1.00  0.00    -0.336 A  
HETATM   12  C   UNL     1     -10.659  15.416  66.034  1.00  0.00    -0.330 A  
BRANCH  10  13
HETATM   13  C   UNL     1     -11.727  13.363  67.063  1.00  0.00    -0.426 C  
BRANCH  13  14
HETATM   14  C   UNL     1     -12.028  13.113  68.528  1.00  0.00    -0.324 A  
HETATM   15  C   UNL     1     -12.130  14.129  69.488  1.00  0.00    -0.340 A  
HETATM   16 CL   UNL     1     -12.042  15.804  69.079  1.00  0.00    -0.299 Cl 
HETATM   17  C   UNL     1     -12.271  13.810  70.843  1.00  0.00    -0.427 A  
HETATM   18  C   UNL     1     -12.234  12.478  71.262  1.00  0.00     0.036 A  
HETATM   19  C   UNL     1     -12.082  11.444  70.331  1.00  0.00    -0.473 A  
HETATM   20  C   UNL     1     -12.072  11.777  68.967  1.00  0.00    -0.276 A  
BRANCH  19  21
HETATM   21  C   UNL     1     -11.716  10.042  70.801  1.00  0.00    -0.350 C  
HETATM   22  O   UNL     1     -10.917   9.419  69.777  1.00  0.00    -0.237 OA 
HETATM   23  C   UNL     1     -10.288   8.210  70.213  1.00  0.00    -0.209 C  
HETATM   24  H   UNL     1     -14.338   9.129  72.574  1.00  0.00     0.000 HD 
HETATM   25  C   UNL     1     -11.358   7.177  70.567  1.00  0.00    -0.297 C  
HETATM   26  O   UNL     1     -13.621   9.695  72.314  1.00  0.00    -0.438 OA 
HETATM   27  C   UNL     1     -12.295   7.752  71.640  1.00  0.00    -0.321 C  
HETATM   28  O   UNL     1     -10.795   5.953  71.049  1.00  0.00    -0.260 OA 
HETATM   29  H   UNL     1     -13.913   7.161  72.580  1.00  0.00     0.000 HD 
HETATM   30  C   UNL     1     -12.883   9.120  71.225  1.00  0.00    -0.264 C  
HETATM   31  H   UNL     1     -11.461   5.311  71.269  1.00  0.00     0.000 HD 
HETATM   32  O   UNL     1     -13.334   6.805  71.917  1.00  0.00    -0.271 OA 
BRANCH  23  33
HETATM   33  C   UNL     1      -9.376   7.722  69.083  1.00  0.00    -0.151 C  
HETATM   34  O   UNL     1     -10.094   6.790  68.261  1.00  0.00    -0.148 OA 
HETATM   35  H   UNL     1      -9.528   6.487  67.561  1.00  0.00     0.000 HD 
ENDBRANCH  23  33
ENDBRANCH  19  21
ENDBRANCH  13  14
ENDBRANCH  10  13
ENDBRANCH   6   7
ENDBRANCH   1   6
TORSDOF 6
ENDMDL
MODEL       85
REMARK 921   NORMALIZED FREE ENERGY PREDICTED BY IDOCK:   -6.46 KCAL/MOL
REMARK 922        TOTAL FREE ENERGY PREDICTED BY IDOCK:   -9.69 KCAL/MOL
REMARK 923 INTER-LIGAND FREE ENERGY PREDICTED BY IDOCK:   -8.06 KCAL/MOL
REMARK 924 INTRA-LIGAND FREE ENERGY PREDICTED BY IDOCK:   -1.63 KCAL/MOL
REMARK 927      BINDING AFFINITY PREDICTED BY RF-SCORE:    0.00 PKD
ROOT
HETATM    1  C   UNL     1      -9.926   5.659  71.115  1.00  0.00    -0.190 C  
HETATM    2  C   UNL     1     -11.168   6.509  71.311  1.00  0.00    -0.338 C  
HETATM    3  O   UNL     1     -11.003   5.115  73.191  1.00  0.00    -0.255 OA 
HETATM    4  C   UNL     1     -11.393   6.434  72.797  1.00  0.00    -0.191 C  
HETATM    5  C   UNL     1     -10.128   4.583  72.178  1.00  0.00    -0.195 C  
ENDROOT
BRANCH   1   6
HETATM    6  O   UNL     1      -9.949   5.161  69.781  1.00  0.00    -0.199 OA 
BRANCH   6   7
HETATM    7  C   UNL     1      -9.897   6.048  68.747  1.00  0.00    -0.139 A  
HETATM    8  C   UNL     1     -10.749   7.286  66.849  1.00  0.00    -0.346 A  
HETATM    9  C   UNL     1     -10.895   6.262  67.801  1.00  0.00    -0.424 A  
HETATM   10  C   UNL     1      -9.608   8.106  66.833  1.00  0.00    -0.269 A  
HETATM   11  C   UNL     1      -8.754   6.848  68.726  1.00  0.00    -0.129 A  
HETATM   12  C   UNL     1      -8.603   7.861  67.775  1.00  0.00    -0.128 A  
BRANCH  10  13
HETATM   13  C   UNL     1      -9.496   9.283  65.878  1.00  0.00    -0.325 C  
BRANCH  13  14
HETATM   14  C   UNL     1      -9.462  10.616  66.601  1.00  0.00    -0.195 A  
HETATM   15  C   UNL     1      -8.309  11.400  66.740  1.00  0.00    -0.163 A  
HETATM   16 CL   UNL     1      -6.810  10.985  65.989  1.00  0.00    -0.070 Cl 
HETATM   17  C   UNL     1      -8.326  12.548  67.539  1.00  0.00    -0.175 A  
HETATM   18  C   UNL     1      -9.469  12.882  68.270  1.00  0.00    -0.206 A  
HETATM   19  C   UNL     1     -10.620  12.090  68.191  1.00  0.00    -0.233 A  
HETATM   20  C   UNL     1     -10.625  11.016  67.286  1.00  0.00    -0.287 A  
BRANCH  19  21
HETATM   21  C   UNL     1     -11.733  12.258  69.217  1.00  0.00    -0.330 C  
HETATM   22  O   UNL     1     -11.661  13.599  69.740  1.00  0.00    -0.286 OA 
HETATM   23  C   UNL     1     -12.813  13.964  70.508  1.00  0.00    -0.184 C  
HETATM   24  H   UNL     1     -11.994   9.257  70.552  1.00  0.00     0.000 HD 
HETATM   25  C   UNL     1     -12.915  13.061  71.737  1.00  0.00    -0.321 C  
HETATM   26  O   UNL     1     -11.960   9.894  69.848  1.00  0.00    -0.099 OA 
HETATM   27  C   UNL     1     -12.967  11.591  71.295  1.00  0.00    -0.297 C  
HETATM   28  O   UNL     1     -14.071  13.349  72.530  1.00  0.00    -0.726 OA 
HETATM   29  H   UNL     1     -13.026   9.840  72.179  1.00  0.00     0.000 HD 
HETATM   30  C   UNL     1     -11.789  11.222  70.364  1.00  0.00    -0.350 C  
HETATM   31  H   UNL     1     -14.134  12.787  73.294  1.00  0.00     0.000 HD 
HETATM   32  O   UNL     1     -12.994  10.749  72.453  1.00  0.00    -0.193 OA 
BRANCH  23  33
HETATM   33  C   UNL     1     -12.670  15.440  70.894  1.00  0.00    -0.461 C  
HETATM   34  O   UNL     1     -12.022  15.537  72.170  1.00  0.00    -0.360 OA 
HETATM   35  H   UNL     1     -11.933  16.452  72.410  1.00  0.00     0.000 HD 
ENDBRANCH  23  33
ENDBRANCH  19  21
ENDBRANCH  13  14
ENDBRANCH  10  13
ENDBRANCH   6   7
ENDBRANCH   1   6
TORSDOF 6
ENDMDL
MODEL       86
REMARK 921   NORMALIZED FREE ENERGY PREDICTED BY IDOCK:   -6.46 KCAL/MOL
REMARK 922        TOTAL FREE ENERGY PREDICTED BY IDOCK:   -9.69 KCAL/MOL
REMARK 923 INTER-LIGAND FREE ENERGY PREDICTED BY IDOCK:   -8.59 KCAL/MOL
REMARK 924 INTRA-LIGAND FREE ENERGY PREDICTED BY IDOCK:   -1.10 KCAL/MOL
REMARK 927      BINDING AFFINITY PREDICTED BY RF-SCORE:    0.00 PKD
ROOT
HETATM    1  C   UNL     1     -10.821   7.265  72.189  1.00  0.00    -0.229 C  
HETATM    2  C   UNL     1     -10.282   5.950  71.655  1.00  0.00    -0.249 C  
HETATM    3  O   UNL     1     -10.553   5.676  73.969  1.00  0.00    -0.272 OA 
HETATM    4  C   UNL     1     -10.668   4.970  72.731  1.00  0.00    -0.236 C  
HETATM    5  C   UNL     1     -10.610   7.088  73.690  1.00  0.00    -0.345 C  
ENDROOT
BRANCH   1   6
HETATM    6  O   UNL     1     -10.045   8.313  71.619  1.00  0.00    -0.186 OA 
BRANCH   6   7
HETATM    7  C   UNL     1     -10.683   9.315  70.950  1.00  0.00    -0.301 A  
HETATM    8  C   UNL     1     -12.408  10.970  70.564  1.00  0.00    -0.462 A  
HETATM    9  C   UNL     1     -11.917   9.866  71.283  1.00  0.00    -0.489 A  
HETATM   10  C   UNL     1     -11.673  11.533  69.506  1.00  0.00    -0.413 A  
HETATM   11  C   UNL     1      -9.957   9.859  69.890  1.00  0.00    -0.292 A  
HETATM   12  C   UNL     1     -10.448  10.950  69.167  1.00  0.00    -0.248 A  
BRANCH  10  13
HETATM   13  C   UNL     1     -12.148  12.791  68.798  1.00  0.00    -0.165 C  
BRANCH  13  14
HETATM   14  C   UNL     1     -11.679  14.057  69.489  1.00  0.00    -0.367 A  
HETATM   15  C   UNL     1     -12.370  14.675  70.540  1.00  0.00    -0.337 A  
HETATM   16 CL   UNL     1     -13.783  13.985  71.253  1.00  0.00    -0.288 Cl 
HETATM   17  C   UNL     1     -11.948  15.915  71.032  1.00  0.00    -0.453 A  
HETATM   18  C   UNL     1     -10.882  16.588  70.429  1.00  0.00    -0.086 A  
HETATM   19  C   UNL     1     -10.205  16.019  69.343  1.00  0.00    -0.270 A  
HETATM   20  C   UNL     1     -10.560  14.719  68.949  1.00  0.00    -0.250 A  
BRANCH  19  21
HETATM   21  C   UNL     1      -9.279  16.875  68.490  1.00  0.00    -0.260 C  
HETATM   22  O   UNL     1      -7.939  16.732  69.000  1.00  0.00    -0.238 OA 
HETATM   23  C   UNL     1      -6.944  17.269  68.123  1.00  0.00    -0.181 C  
HETATM   24  H   UNL     1     -11.177  19.429  67.637  1.00  0.00     0.000 HD 
HETATM   25  C   UNL     1      -7.155  18.775  67.973  1.00  0.00    -0.237 C  
HETATM   26  O   UNL     1     -10.948  18.513  67.733  1.00  0.00    -0.329 OA 
HETATM   27  C   UNL     1      -8.576  19.049  67.458  1.00  0.00    -0.286 C  
HETATM   28  O   UNL     1      -6.213  19.370  67.074  1.00  0.00    -0.179 OA 
HETATM   29  H   UNL     1      -9.668  20.632  67.066  1.00  0.00     0.000 HD 
HETATM   30  C   UNL     1      -9.652  18.368  68.334  1.00  0.00    -0.345 C  
HETATM   31  H   UNL     1      -6.344  20.307  66.981  1.00  0.00     0.000 HD 
HETATM   32  O   UNL     1      -8.789  20.463  67.384  1.00  0.00    -0.344 OA 
BRANCH  23  33
HETATM   33  C   UNL     1      -5.570  16.942  68.717  1.00  0.00    -0.133 C  
HETATM   34  O   UNL     1      -5.700  15.856  69.647  1.00  0.00    -0.119 OA 
HETATM   35  H   UNL     1      -4.848  15.653  70.015  1.00  0.00     0.000 HD 
ENDBRANCH  23  33
ENDBRANCH  19  21
ENDBRANCH  13  14
ENDBRANCH  10  13
ENDBRANCH   6   7
ENDBRANCH   1   6
TORSDOF 6
ENDMDL
MODEL       87
REMARK 921   NORMALIZED FREE ENERGY PREDICTED BY IDOCK:   -6.46 KCAL/MOL
REMARK 922        TOTAL FREE ENERGY PREDICTED BY IDOCK:   -9.69 KCAL/MOL
REMARK 923 INTER-LIGAND FREE ENERGY PREDICTED BY IDOCK:   -8.13 KCAL/MOL
REMARK 924 INTRA-LIGAND FREE ENERGY PREDICTED BY IDOCK:   -1.55 KCAL/MOL
REMARK 927      BINDING AFFINITY PREDICTED BY RF-SCORE:    0.00 PKD
ROOT
HETATM    1  C   UNL     1     -10.388   5.048  72.135  1.00  0.00    -0.215 C  
HETATM    2  C   UNL     1      -9.782   6.280  72.783  1.00  0.00    -0.162 C  
HETATM    3  O   UNL     1     -10.703   4.994  74.515  1.00  0.00    -0.355 OA 
HETATM    4  C   UNL     1      -9.596   5.848  74.213  1.00  0.00    -0.180 C  
HETATM    5  C   UNL     1     -11.244   4.502  73.275  1.00  0.00    -0.298 C  
ENDROOT
BRANCH   1   6
HETATM    6  O   UNL     1     -11.141   5.480  71.007  1.00  0.00    -0.184 OA 
BRANCH   6   7
HETATM    7  C   UNL     1     -10.486   5.742  69.840  1.00  0.00    -0.290 A  
HETATM    8  C   UNL     1      -9.090   5.243  67.926  1.00  0.00    -0.117 A  
HETATM    9  C   UNL     1      -9.615   4.882  69.179  1.00  0.00    -0.231 A  
HETATM   10  C   UNL     1      -9.430   6.466  67.322  1.00  0.00    -0.135 A  
HETATM   11  C   UNL     1     -10.814   6.965  69.253  1.00  0.00    -0.270 A  
HETATM   12  C   UNL     1     -10.286   7.331  68.012  1.00  0.00    -0.225 A  
BRANCH  10  13
HETATM   13  C   UNL     1      -8.953   6.813  65.921  1.00  0.00    -0.095 C  
BRANCH  13  14
HETATM   14  C   UNL     1      -8.309   8.184  65.850  1.00  0.00    -0.134 A  
HETATM   15  C   UNL     1      -7.036   8.476  66.359  1.00  0.00    -0.079 A  
HETATM   16 CL   UNL     1      -6.003   7.262  67.024  1.00  0.00    -0.039 Cl 
HETATM   17  C   UNL     1      -6.568   9.794  66.381  1.00  0.00    -0.072 A  
HETATM   18  C   UNL     1      -7.393  10.842  65.967  1.00  0.00    -0.081 A  
HETATM   19  C   UNL     1      -8.688  10.587  65.501  1.00  0.00    -0.197 A  
HETATM   20  C   UNL     1      -9.092   9.249  65.366  1.00  0.00    -0.277 A  
BRANCH  19  21
HETATM   21  C   UNL     1      -9.688  11.728  65.364  1.00  0.00    -0.217 C  
HETATM   22  O   UNL     1     -10.472  11.784  66.572  1.00  0.00    -0.218 OA 
HETATM   23  C   UNL     1     -11.257  12.977  66.676  1.00  0.00    -0.307 C  
HETATM   24  H   UNL     1     -10.383  11.744  62.144  1.00  0.00     0.000 HD 
HETATM   25  C   UNL     1     -12.275  13.019  65.537  1.00  0.00    -0.469 C  
HETATM   26  O   UNL     1      -9.823  11.754  62.910  1.00  0.00    -0.350 OA 
HETATM   27  C   UNL     1     -11.545  12.933  64.188  1.00  0.00    -0.398 C  
HETATM   28  O   UNL     1     -13.070  14.209  65.560  1.00  0.00    -0.691 OA 
HETATM   29  H   UNL     1     -12.058  12.851  62.295  1.00  0.00     0.000 HD 
HETATM   30  C   UNL     1     -10.601  11.711  64.115  1.00  0.00    -0.357 C  
HETATM   31  H   UNL     1     -13.703  14.235  64.851  1.00  0.00     0.000 HD 
HETATM   32  O   UNL     1     -12.509  12.904  63.129  1.00  0.00    -0.641 OA 
BRANCH  23  33
HETATM   33  C   UNL     1     -11.936  12.972  68.049  1.00  0.00    -0.290 C  
HETATM   34  O   UNL     1     -12.200  14.324  68.453  1.00  0.00    -0.562 OA 
HETATM   35  H   UNL     1     -12.621  14.321  69.305  1.00  0.00     0.000 HD 
ENDBRANCH  23  33
ENDBRANCH  19  21
ENDBRANCH  13  14
ENDBRANCH  10  13
ENDBRANCH   6   7
ENDBRANCH   1   6
TORSDOF 6
ENDMDL
MODEL       88
REMARK 921   NORMALIZED FREE ENERGY PREDICTED BY IDOCK:   -6.45 KCAL/MOL
REMARK 922        TOTAL FREE ENERGY PREDICTED BY IDOCK:   -9.67 KCAL/MOL
REMARK 923 INTER-LIGAND FREE ENERGY PREDICTED BY IDOCK:   -8.35 KCAL/MOL
REMARK 924 INTRA-LIGAND FREE ENERGY PREDICTED BY IDOCK:   -1.32 KCAL/MOL
REMARK 927      BINDING AFFINITY PREDICTED BY RF-SCORE:    0.00 PKD
ROOT
HETATM    1  C   UNL     1     -10.988  12.489  64.102  1.00  0.00    -0.381 C  
HETATM    2  C   UNL     1     -10.421  13.830  64.535  1.00  0.00    -0.378 C  
HETATM    3  O   UNL     1     -12.655  14.209  63.926  1.00  0.00    -0.752 OA 
HETATM    4  C   UNL     1     -11.657  14.625  64.862  1.00  0.00    -0.405 C  
HETATM    5  C   UNL     1     -12.277  12.920  63.407  1.00  0.00    -0.490 C  
ENDROOT
BRANCH   1   6
HETATM    6  O   UNL     1     -10.041  11.881  63.231  1.00  0.00    -0.428 OA 
BRANCH   6   7
HETATM    7  C   UNL     1      -9.414  10.739  63.636  1.00  0.00    -0.291 A  
HETATM    8  C   UNL     1      -7.770   8.965  63.541  1.00  0.00    -0.128 A  
HETATM    9  C   UNL     1      -8.399  10.076  62.953  1.00  0.00    -0.166 A  
HETATM   10  C   UNL     1      -8.147   8.506  64.814  1.00  0.00    -0.151 A  
HETATM   11  C   UNL     1      -9.804  10.278  64.894  1.00  0.00    -0.404 A  
HETATM   12  C   UNL     1      -9.186   9.168  65.476  1.00  0.00    -0.287 A  
BRANCH  10  13
HETATM   13  C   UNL     1      -7.397   7.376  65.500  1.00  0.00    -0.074 C  
BRANCH  13  14
HETATM   14  C   UNL     1      -8.296   6.537  66.388  1.00  0.00    -0.120 A  
HETATM   15  C   UNL     1      -9.062   5.458  65.927  1.00  0.00    -0.157 A  
HETATM   16 CL   UNL     1      -8.971   4.885  64.301  1.00  0.00    -0.112 Cl 
HETATM   17  C   UNL     1      -9.972   4.822  66.778  1.00  0.00    -0.253 A  
HETATM   18  C   UNL     1     -10.183   5.305  68.072  1.00  0.00    -0.204 A  
HETATM   19  C   UNL     1      -9.470   6.413  68.544  1.00  0.00    -0.120 A  
HETATM   20  C   UNL     1      -8.470   6.956  67.720  1.00  0.00    -0.123 A  
BRANCH  19  21
HETATM   21  C   UNL     1      -9.924   7.131  69.807  1.00  0.00    -0.178 C  
HETATM   22  O   UNL     1     -10.368   6.138  70.753  1.00  0.00    -0.197 OA 
HETATM   23  C   UNL     1     -10.564   6.664  72.069  1.00  0.00    -0.211 C  
HETATM   24  H   UNL     1     -11.160   9.964  68.666  1.00  0.00     0.000 HD 
HETATM   25  C   UNL     1     -11.675   7.713  72.040  1.00  0.00    -0.298 C  
HETATM   26  O   UNL     1     -10.507   9.282  68.771  1.00  0.00    -0.207 OA 
HETATM   27  C   UNL     1     -11.319   8.816  71.033  1.00  0.00    -0.278 C  
HETATM   28  O   UNL     1     -11.896   8.309  73.323  1.00  0.00    -0.403 OA 
HETATM   29  H   UNL     1     -12.175  10.440  70.338  1.00  0.00     0.000 HD 
HETATM   30  C   UNL     1     -10.987   8.242  69.636  1.00  0.00    -0.086 C  
HETATM   31  H   UNL     1     -12.587   8.961  73.305  1.00  0.00     0.000 HD 
HETATM   32  O   UNL     1     -12.395   9.758  70.961  1.00  0.00    -0.308 OA 
BRANCH  23  33
HETATM   33  C   UNL     1     -10.907   5.493  72.996  1.00  0.00    -0.274 C  
HETATM   34  O   UNL     1     -12.325   5.272  72.976  1.00  0.00    -0.485 OA 
HETATM   35  H   UNL     1     -12.538   4.546  73.551  1.00  0.00     0.000 HD 
ENDBRANCH  23  33
ENDBRANCH  19  21
ENDBRANCH  13  14
ENDBRANCH  10  13
ENDBRANCH   6   7
ENDBRANCH   1   6
TORSDOF 6
ENDMDL
MODEL       89
REMARK 921   NORMALIZED FREE ENERGY PREDICTED BY IDOCK:   -6.44 KCAL/MOL
REMARK 922        TOTAL FREE ENERGY PREDICTED BY IDOCK:   -9.66 KCAL/MOL
REMARK 923 INTER-LIGAND FREE ENERGY PREDICTED BY IDOCK:   -8.97 KCAL/MOL
REMARK 924 INTRA-LIGAND FREE ENERGY PREDICTED BY IDOCK:   -0.68 KCAL/MOL
REMARK 927      BINDING AFFINITY PREDICTED BY RF-SCORE:    0.00 PKD
ROOT
HETATM    1  C   UNL     1     -12.806  13.412  72.089  1.00  0.00    -0.211 C  
HETATM    2  C   UNL     1     -12.559  13.955  70.693  1.00  0.00    -0.405 C  
HETATM    3  O   UNL     1     -13.159  15.787  72.031  1.00  0.00    -0.445 OA 
HETATM    4  C   UNL     1     -12.305  15.418  70.944  1.00  0.00    -0.398 C  
HETATM    5  C   UNL     1     -13.521  14.590  72.746  1.00  0.00    -0.478 C  
ENDROOT
BRANCH   1   6
HETATM    6  O   UNL     1     -13.616  12.248  71.963  1.00  0.00    -0.400 OA 
BRANCH   6   7
HETATM    7  C   UNL     1     -13.010  11.050  71.718  1.00  0.00    -0.438 A  
HETATM    8  C   UNL     1     -12.856   8.638  71.573  1.00  0.00    -0.351 A  
HETATM    9  C   UNL     1     -13.550   9.793  71.974  1.00  0.00    -0.436 A  
HETATM   10  C   UNL     1     -11.618   8.727  70.913  1.00  0.00    -0.320 A  
HETATM   11  C   UNL     1     -11.774  11.144  71.078  1.00  0.00     0.045 A  
HETATM   12  C   UNL     1     -11.078   9.998  70.687  1.00  0.00    -0.408 A  
BRANCH  10  13
HETATM   13  C   UNL     1     -10.917   7.489  70.380  1.00  0.00    -0.264 C  
BRANCH  13  14
HETATM   14  C   UNL     1     -10.005   7.797  69.209  1.00  0.00    -0.182 A  
HETATM   15  C   UNL     1      -8.612   7.647  69.243  1.00  0.00    -0.136 A  
HETATM   16 CL   UNL     1      -7.785   6.973  70.601  1.00  0.00    -0.094 Cl 
HETATM   17  C   UNL     1      -7.826   8.083  68.171  1.00  0.00    -0.126 A  
HETATM   18  C   UNL     1      -8.414   8.743  67.089  1.00  0.00    -0.110 A  
HETATM   19  C   UNL     1      -9.798   8.953  67.050  1.00  0.00    -0.277 A  
HETATM   20  C   UNL     1     -10.581   8.394  68.072  1.00  0.00    -0.191 A  
BRANCH  19  21
HETATM   21  C   UNL     1     -10.391   9.941  66.055  1.00  0.00    -0.132 C  
HETATM   22  O   UNL     1      -9.618   9.875  64.841  1.00  0.00    -0.281 OA 
HETATM   23  C   UNL     1     -10.237  10.554  63.743  1.00  0.00    -0.085 C  
HETATM   24  H   UNL     1     -11.490  12.383  67.975  1.00  0.00     0.000 HD 
HETATM   25  C   UNL     1     -10.349  12.044  64.063  1.00  0.00    -0.373 C  
HETATM   26  O   UNL     1     -11.395  11.484  67.683  1.00  0.00    -0.264 OA 
HETATM   27  C   UNL     1     -11.137  12.234  65.368  1.00  0.00    -0.311 C  
HETATM   28  O   UNL     1     -10.997  12.778  63.018  1.00  0.00    -0.596 OA 
HETATM   29  H   UNL     1     -11.667  13.745  66.503  1.00  0.00     0.000 HD 
HETATM   30  C   UNL     1     -10.544  11.405  66.530  1.00  0.00    -0.263 C  
HETATM   31  H   UNL     1     -11.067  13.705  63.217  1.00  0.00     0.000 HD 
HETATM   32  O   UNL     1     -11.180  13.628  65.696  1.00  0.00    -0.296 OA 
BRANCH  23  33
HETATM   33  C   UNL     1      -9.385  10.301  62.495  1.00  0.00    -0.296 C  
HETATM   34  O   UNL     1      -8.374  11.314  62.396  1.00  0.00    -0.452 OA 
HETATM   35  H   UNL     1      -7.845  11.157  61.622  1.00  0.00     0.000 HD 
ENDBRANCH  23  33
ENDBRANCH  19  21
ENDBRANCH  13  14
ENDBRANCH  10  13
ENDBRANCH   6   7
ENDBRANCH   1   6
TORSDOF 6
ENDMDL
MODEL       90
REMARK 921   NORMALIZED FREE ENERGY PREDICTED BY IDOCK:   -6.43 KCAL/MOL
REMARK 922        TOTAL FREE ENERGY PREDICTED BY IDOCK:   -9.65 KCAL/MOL
REMARK 923 INTER-LIGAND FREE ENERGY PREDICTED BY IDOCK:   -8.12 KCAL/MOL
REMARK 924 INTRA-LIGAND FREE ENERGY PREDICTED BY IDOCK:   -1.54 KCAL/MOL
REMARK 927      BINDING AFFINITY PREDICTED BY RF-SCORE:    0.00 PKD
ROOT
HETATM    1  C   UNL     1      -8.543   4.040  66.018  1.00  0.00    -0.110 C  
HETATM    2  C   UNL     1      -9.214   2.845  66.671  1.00  0.00    -0.134 C  
HETATM    3  O   UNL     1      -8.125   2.040  64.755  1.00  0.00    -0.076 OA 
HETATM    4  C   UNL     1      -8.450   1.680  66.102  1.00  0.00    -0.102 C  
HETATM    5  C   UNL     1      -8.198   3.474  64.642  1.00  0.00    -0.090 C  
ENDROOT
BRANCH   1   6
HETATM    6  O   UNL     1      -9.492   5.101  65.980  1.00  0.00    -0.152 OA 
BRANCH   6   7
HETATM    7  C   UNL     1      -9.534   5.982  67.021  1.00  0.00    -0.127 A  
HETATM    8  C   UNL     1     -10.568   7.251  68.804  1.00  0.00    -0.202 A  
HETATM    9  C   UNL     1     -10.681   6.422  67.675  1.00  0.00    -0.387 A  
HETATM   10  C   UNL     1      -9.311   7.649  69.291  1.00  0.00    -0.148 A  
HETATM   11  C   UNL     1      -8.283   6.386  67.490  1.00  0.00    -0.117 A  
HETATM   12  C   UNL     1      -8.169   7.218  68.607  1.00  0.00    -0.125 A  
BRANCH  10  13
HETATM   13  C   UNL     1      -9.180   8.454  70.574  1.00  0.00    -0.165 C  
BRANCH  13  14
HETATM   14  C   UNL     1     -10.377   9.352  70.820  1.00  0.00    -0.366 A  
HETATM   15  C   UNL     1     -11.431   9.030  71.685  1.00  0.00    -0.361 A  
HETATM   16 CL   UNL     1     -11.421   7.610  72.668  1.00  0.00    -0.398 Cl 
HETATM   17  C   UNL     1     -12.565   9.845  71.753  1.00  0.00    -0.506 A  
HETATM   18  C   UNL     1     -12.694  10.947  70.903  1.00  0.00    -0.464 A  
HETATM   19  C   UNL     1     -11.680  11.265  69.992  1.00  0.00    -0.428 A  
HETATM   20  C   UNL     1     -10.496  10.511  70.029  1.00  0.00    -0.163 A  
BRANCH  19  21
HETATM   21  C   UNL     1     -11.953  12.245  68.859  1.00  0.00    -0.248 C  
HETATM   22  O   UNL     1     -11.342  11.728  67.661  1.00  0.00    -0.262 OA 
HETATM   23  C   UNL     1     -11.755  12.417  66.477  1.00  0.00    -0.379 C  
HETATM   24  H   UNL     1     -11.974  15.170  70.376  1.00  0.00     0.000 HD 
HETATM   25  C   UNL     1     -11.309  13.877  66.554  1.00  0.00    -0.331 C  
HETATM   26  O   UNL     1     -12.226  14.265  70.231  1.00  0.00    -0.301 OA 
HETATM   27  C   UNL     1     -11.883  14.526  67.822  1.00  0.00    -0.357 C  
HETATM   28  O   UNL     1     -11.726  14.635  65.414  1.00  0.00    -0.351 OA 
HETATM   29  H   UNL     1     -11.761  16.274  68.706  1.00  0.00     0.000 HD 
HETATM   30  C   UNL     1     -11.542  13.718  69.094  1.00  0.00    -0.317 C  
HETATM   31  H   UNL     1     -11.449  15.543  65.462  1.00  0.00     0.000 HD 
HETATM   32  O   UNL     1     -11.406  15.873  67.922  1.00  0.00    -0.330 OA 
BRANCH  23  33
HETATM   33  C   UNL     1     -11.140  11.695  65.274  1.00  0.00    -0.236 C  
HETATM   34  O   UNL     1      -9.942  12.376  64.872  1.00  0.00    -0.381 OA 
HETATM   35  H   UNL     1      -9.560  11.928  64.127  1.00  0.00     0.000 HD 
ENDBRANCH  23  33
ENDBRANCH  19  21
ENDBRANCH  13  14
ENDBRANCH  10  13
ENDBRANCH   6   7
ENDBRANCH   1   6
TORSDOF 6
ENDMDL
MODEL       91
REMARK 921   NORMALIZED FREE ENERGY PREDICTED BY IDOCK:   -6.43 KCAL/MOL
REMARK 922        TOTAL FREE ENERGY PREDICTED BY IDOCK:   -9.65 KCAL/MOL
REMARK 923 INTER-LIGAND FREE ENERGY PREDICTED BY IDOCK:   -8.50 KCAL/MOL
REMARK 924 INTRA-LIGAND FREE ENERGY PREDICTED BY IDOCK:   -1.15 KCAL/MOL
REMARK 927      BINDING AFFINITY PREDICTED BY RF-SCORE:    0.00 PKD
ROOT
HETATM    1  C   UNL     1      -9.161   4.550  72.746  1.00  0.00    -0.128 C  
HETATM    2  C   UNL     1      -8.368   5.350  71.728  1.00  0.00    -0.119 C  
HETATM    3  O   UNL     1      -6.864   3.849  72.724  1.00  0.00    -0.039 OA 
HETATM    4  C   UNL     1      -7.171   4.473  71.474  1.00  0.00    -0.059 C  
HETATM    5  C   UNL     1      -8.042   3.897  73.553  1.00  0.00    -0.088 C  
ENDROOT
BRANCH   1   6
HETATM    6  O   UNL     1      -9.950   5.467  73.496  1.00  0.00    -0.161 OA 
BRANCH   6   7
HETATM    7  C   UNL     1     -10.745   6.351  72.827  1.00  0.00    -0.239 A  
HETATM    8  C   UNL     1     -12.616   7.046  71.458  1.00  0.00    -0.426 A  
HETATM    9  C   UNL     1     -11.816   6.026  72.001  1.00  0.00    -0.284 A  
HETATM   10  C   UNL     1     -12.355   8.399  71.735  1.00  0.00    -0.375 A  
HETATM   11  C   UNL     1     -10.471   7.693  73.093  1.00  0.00    -0.433 A  
HETATM   12  C   UNL     1     -11.259   8.709  72.547  1.00  0.00    -0.244 A  
BRANCH  10  13
HETATM   13  C   UNL     1     -13.281   9.499  71.241  1.00  0.00    -0.400 C  
BRANCH  13  14
HETATM   14  C   UNL     1     -12.545  10.569  70.459  1.00  0.00    -0.423 A  
HETATM   15  C   UNL     1     -12.581  11.933  70.777  1.00  0.00    -0.234 A  
HETATM   16 CL   UNL     1     -13.380  12.536  72.184  1.00  0.00    -0.612 Cl 
HETATM   17  C   UNL     1     -11.991  12.874  69.927  1.00  0.00    -0.377 A  
HETATM   18  C   UNL     1     -11.427  12.473  68.713  1.00  0.00    -0.353 A  
HETATM   19  C   UNL     1     -11.421  11.122  68.344  1.00  0.00    -0.377 A  
HETATM   20  C   UNL     1     -11.902  10.181  69.268  1.00  0.00     0.007 A  
BRANCH  19  21
HETATM   21  C   UNL     1     -11.113  10.727  66.906  1.00  0.00    -0.133 C  
HETATM   22  O   UNL     1      -9.843  10.047  66.890  1.00  0.00    -0.180 OA 
HETATM   23  C   UNL     1      -9.572   9.392  65.646  1.00  0.00    -0.274 C  
HETATM   24  H   UNL     1     -12.465  13.161  65.144  1.00  0.00     0.000 HD 
HETATM   25  C   UNL     1      -9.482  10.431  64.530  1.00  0.00    -0.286 C  
HETATM   26  O   UNL     1     -12.444  12.468  65.793  1.00  0.00    -0.626 OA 
HETATM   27  C   UNL     1     -10.785  11.244  64.475  1.00  0.00    -0.323 C  
HETATM   28  O   UNL     1      -9.251   9.837  63.249  1.00  0.00    -0.293 OA 
HETATM   29  H   UNL     1     -11.472  12.762  63.438  1.00  0.00     0.000 HD 
HETATM   30  C   UNL     1     -11.147  11.855  65.848  1.00  0.00    -0.316 C  
HETATM   31  H   UNL     1      -9.195  10.483  62.555  1.00  0.00     0.000 HD 
HETATM   32  O   UNL     1     -10.667  12.260  63.472  1.00  0.00    -0.429 OA 
BRANCH  23  33
HETATM   33  C   UNL     1      -8.265   8.608  65.804  1.00  0.00    -0.126 C  
HETATM   34  O   UNL     1      -8.089   7.745  64.672  1.00  0.00    -0.145 OA 
HETATM   35  H   UNL     1      -7.278   7.259  64.769  1.00  0.00     0.000 HD 
ENDBRANCH  23  33
ENDBRANCH  19  21
ENDBRANCH  13  14
ENDBRANCH  10  13
ENDBRANCH   6   7
ENDBRANCH   1   6
TORSDOF 6
ENDMDL
MODEL       92
REMARK 921   NORMALIZED FREE ENERGY PREDICTED BY IDOCK:   -6.43 KCAL/MOL
REMARK 922        TOTAL FREE ENERGY PREDICTED BY IDOCK:   -9.65 KCAL/MOL
REMARK 923 INTER-LIGAND FREE ENERGY PREDICTED BY IDOCK:   -8.52 KCAL/MOL
REMARK 924 INTRA-LIGAND FREE ENERGY PREDICTED BY IDOCK:   -1.13 KCAL/MOL
REMARK 927      BINDING AFFINITY PREDICTED BY RF-SCORE:    0.00 PKD
ROOT
HETATM    1  C   UNL     1      -9.990   7.870  73.165  1.00  0.00    -0.290 C  
HETATM    2  C   UNL     1      -9.256   7.058  74.216  1.00  0.00    -0.260 C  
HETATM    3  O   UNL     1      -7.700   8.573  73.329  1.00  0.00    -0.339 OA 
HETATM    4  C   UNL     1      -8.078   7.933  74.552  1.00  0.00    -0.226 C  
HETATM    5  C   UNL     1      -8.827   8.534  72.433  1.00  0.00    -0.198 C  
ENDROOT
BRANCH   1   6
HETATM    6  O   UNL     1     -10.733   6.961  72.358  1.00  0.00    -0.212 OA 
BRANCH   6   7
HETATM    7  C   UNL     1     -10.565   6.996  71.005  1.00  0.00    -0.218 A  
HETATM    8  C   UNL     1     -10.510   8.012  68.808  1.00  0.00    -0.196 A  
HETATM    9  C   UNL     1     -10.830   8.081  70.175  1.00  0.00    -0.242 A  
HETATM   10  C   UNL     1      -9.923   6.860  68.257  1.00  0.00    -0.162 A  
HETATM   11  C   UNL     1      -9.997   5.844  70.461  1.00  0.00    -0.243 A  
HETATM   12  C   UNL     1      -9.687   5.769  69.100  1.00  0.00    -0.189 A  
BRANCH  10  13
HETATM   13  C   UNL     1      -9.475   6.820  66.806  1.00  0.00    -0.199 C  
BRANCH  13  14
HETATM   14  C   UNL     1      -8.747   8.084  66.388  1.00  0.00    -0.169 A  
HETATM   15  C   UNL     1      -7.404   8.347  66.689  1.00  0.00    -0.082 A  
HETATM   16 CL   UNL     1      -6.387   7.195  67.474  1.00  0.00    -0.045 Cl 
HETATM   17  C   UNL     1      -6.844   9.594  66.390  1.00  0.00    -0.084 A  
HETATM   18  C   UNL     1      -7.637  10.615  65.860  1.00  0.00    -0.138 A  
HETATM   19  C   UNL     1      -8.994  10.397  65.596  1.00  0.00    -0.198 A  
HETATM   20  C   UNL     1      -9.506   9.103  65.782  1.00  0.00    -0.322 A  
BRANCH  19  21
HETATM   21  C   UNL     1      -9.919  11.579  65.335  1.00  0.00    -0.248 C  
HETATM   22  O   UNL     1     -10.616  11.882  66.559  1.00  0.00    -0.228 OA 
HETATM   23  C   UNL     1     -11.308  13.134  66.516  1.00  0.00    -0.315 C  
HETATM   24  H   UNL     1     -10.821  11.156  62.195  1.00  0.00     0.000 HD 
HETATM   25  C   UNL     1     -12.394  13.081  65.442  1.00  0.00    -0.486 C  
HETATM   26  O   UNL     1     -10.212  11.239  62.919  1.00  0.00    -0.265 OA 
HETATM   27  C   UNL     1     -11.762  12.732  64.086  1.00  0.00    -0.401 C  
HETATM   28  O   UNL     1     -13.100  14.319  65.319  1.00  0.00    -0.707 OA 
HETATM   29  H   UNL     1     -12.401  12.401  62.260  1.00  0.00     0.000 HD 
HETATM   30  C   UNL     1     -10.911  11.443  64.156  1.00  0.00    -0.341 C  
HETATM   31  H   UNL     1     -13.775  14.286  64.651  1.00  0.00     0.000 HD 
HETATM   32  O   UNL     1     -12.793  12.617  63.098  1.00  0.00    -0.576 OA 
BRANCH  23  33
HETATM   33  C   UNL     1     -11.895  13.394  67.908  1.00  0.00    -0.357 C  
HETATM   34  O   UNL     1     -12.163  14.795  68.056  1.00  0.00    -0.581 OA 
HETATM   35  H   UNL     1     -12.527  14.957  68.919  1.00  0.00     0.000 HD 
ENDBRANCH  23  33
ENDBRANCH  19  21
ENDBRANCH  13  14
ENDBRANCH  10  13
ENDBRANCH   6   7
ENDBRANCH   1   6
TORSDOF 6
ENDMDL
MODEL       93
REMARK 921   NORMALIZED FREE ENERGY PREDICTED BY IDOCK:   -6.41 KCAL/MOL
REMARK 922        TOTAL FREE ENERGY PREDICTED BY IDOCK:   -9.62 KCAL/MOL
REMARK 923 INTER-LIGAND FREE ENERGY PREDICTED BY IDOCK:   -8.46 KCAL/MOL
REMARK 924 INTRA-LIGAND FREE ENERGY PREDICTED BY IDOCK:   -1.16 KCAL/MOL
REMARK 927      BINDING AFFINITY PREDICTED BY RF-SCORE:    0.00 PKD
ROOT
HETATM    1  C   UNL     1     -10.097   5.330  68.744  1.00  0.00    -0.177 C  
HETATM    2  C   UNL     1      -9.660   3.932  69.143  1.00  0.00    -0.218 C  
HETATM    3  O   UNL     1      -8.936   5.375  70.845  1.00  0.00    -0.134 OA 
HETATM    4  C   UNL     1      -9.453   4.059  70.629  1.00  0.00    -0.170 C  
HETATM    5  C   UNL     1      -9.276   6.186  69.705  1.00  0.00    -0.143 C  
ENDROOT
BRANCH   1   6
HETATM    6  O   UNL     1      -9.754   5.514  67.374  1.00  0.00    -0.123 OA 
BRANCH   6   7
HETATM    7  C   UNL     1      -9.612   6.785  66.898  1.00  0.00    -0.160 A  
HETATM    8  C   UNL     1     -10.197   9.115  66.603  1.00  0.00    -0.328 A  
HETATM    9  C   UNL     1     -10.521   7.825  67.057  1.00  0.00    -0.419 A  
HETATM   10  C   UNL     1      -8.962   9.378  65.986  1.00  0.00    -0.205 A  
HETATM   11  C   UNL     1      -8.391   7.036  66.271  1.00  0.00    -0.129 A  
HETATM   12  C   UNL     1      -8.069   8.316  65.810  1.00  0.00    -0.109 A  
BRANCH  10  13
HETATM   13  C   UNL     1      -8.561  10.791  65.593  1.00  0.00    -0.185 C  
BRANCH  13  14
HETATM   14  C   UNL     1      -9.755  11.655  65.236  1.00  0.00    -0.255 A  
HETATM   15  C   UNL     1     -10.367  11.659  63.975  1.00  0.00    -0.357 A  
HETATM   16 CL   UNL     1      -9.897  10.579  62.713  1.00  0.00    -0.270 Cl 
HETATM   17  C   UNL     1     -11.375  12.584  63.681  1.00  0.00    -0.555 A  
HETATM   18  C   UNL     1     -11.727  13.563  64.613  1.00  0.00    -0.412 A  
HETATM   19  C   UNL     1     -11.097  13.616  65.862  1.00  0.00    -0.289 A  
HETATM   20  C   UNL     1     -10.182  12.601  66.186  1.00  0.00    -0.272 A  
BRANCH  19  21
HETATM   21  C   UNL     1     -11.239  14.856  66.736  1.00  0.00    -0.338 C  
HETATM   22  O   UNL     1     -10.253  15.818  66.313  1.00  0.00    -0.273 OA 
HETATM   23  C   UNL     1     -10.462  17.118  66.872  1.00  0.00    -0.274 C  
HETATM   24  H   UNL     1     -12.187  13.629  69.643  1.00  0.00     0.000 HD 
HETATM   25  C   UNL     1     -10.324  17.048  68.393  1.00  0.00    -0.351 C  
HETATM   26  O   UNL     1     -12.223  13.761  68.703  1.00  0.00    -0.347 OA 
HETATM   27  C   UNL     1     -11.317  16.020  68.954  1.00  0.00    -0.370 C  
HETATM   28  O   UNL     1     -10.561  18.313  69.020  1.00  0.00    -0.378 OA 
HETATM   29  H   UNL     1     -11.750  15.275  70.718  1.00  0.00     0.000 HD 
HETATM   30  C   UNL     1     -11.179  14.642  68.267  1.00  0.00    -0.285 C  
HETATM   31  H   UNL     1     -10.475  18.269  69.966  1.00  0.00     0.000 HD 
HETATM   32  O   UNL     1     -11.136  15.911  70.371  1.00  0.00    -0.321 OA 
BRANCH  23  33
HETATM   33  C   UNL     1      -9.433  18.068  66.249  1.00  0.00    -0.220 C  
HETATM   34  O   UNL     1      -9.990  19.388  66.172  1.00  0.00    -0.392 OA 
HETATM   35  H   UNL     1      -9.352  19.977  65.786  1.00  0.00     0.000 HD 
ENDBRANCH  23  33
ENDBRANCH  19  21
ENDBRANCH  13  14
ENDBRANCH  10  13
ENDBRANCH   6   7
ENDBRANCH   1   6
TORSDOF 6
ENDMDL
MODEL       94
REMARK 921   NORMALIZED FREE ENERGY PREDICTED BY IDOCK:   -6.40 KCAL/MOL
REMARK 922        TOTAL FREE ENERGY PREDICTED BY IDOCK:   -9.62 KCAL/MOL
REMARK 923 INTER-LIGAND FREE ENERGY PREDICTED BY IDOCK:   -8.87 KCAL/MOL
REMARK 924 INTRA-LIGAND FREE ENERGY PREDICTED BY IDOCK:   -0.75 KCAL/MOL
REMARK 927      BINDING AFFINITY PREDICTED BY RF-SCORE:    0.00 PKD
ROOT
HETATM    1  C   UNL     1     -10.240  18.122  65.966  1.00  0.00    -0.320 C  
HETATM    2  C   UNL     1     -10.365  19.614  65.717  1.00  0.00    -0.506 C  
HETATM    3  O   UNL     1     -10.740  19.281  68.008  1.00  0.00    -0.365 OA 
HETATM    4  C   UNL     1     -10.148  20.201  67.086  1.00  0.00    -0.450 C  
HETATM    5  C   UNL     1     -10.848  18.000  67.360  1.00  0.00    -0.219 C  
ENDROOT
BRANCH   1   6
HETATM    6  O   UNL     1     -10.984  17.452  64.954  1.00  0.00    -0.862 OA 
BRANCH   6   7
HETATM    7  C   UNL     1     -10.966  16.088  64.920  1.00  0.00    -0.384 A  
HETATM    8  C   UNL     1     -10.268  13.868  65.584  1.00  0.00    -0.344 A  
HETATM    9  C   UNL     1     -10.104  15.262  65.635  1.00  0.00    -0.401 A  
HETATM   10  C   UNL     1     -11.293  13.284  64.820  1.00  0.00    -0.350 A  
HETATM   11  C   UNL     1     -11.976  15.514  64.147  1.00  0.00    -0.083 A  
HETATM   12  C   UNL     1     -12.135  14.127  64.088  1.00  0.00    -0.437 A  
BRANCH  10  13
HETATM   13  C   UNL     1     -11.543  11.785  64.849  1.00  0.00    -0.226 C  
BRANCH  13  14
HETATM   14  C   UNL     1     -10.344  11.006  65.353  1.00  0.00    -0.330 A  
HETATM   15  C   UNL     1      -9.266  10.621  64.543  1.00  0.00    -0.231 A  
HETATM   16 CL   UNL     1      -9.131  11.103  62.891  1.00  0.00    -0.318 Cl 
HETATM   17  C   UNL     1      -8.265   9.785  65.048  1.00  0.00    -0.142 A  
HETATM   18  C   UNL     1      -8.367   9.262  66.340  1.00  0.00    -0.120 A  
HETATM   19  C   UNL     1      -9.458   9.588  67.155  1.00  0.00    -0.187 A  
HETATM   20  C   UNL     1     -10.385  10.529  66.677  1.00  0.00    -0.295 A  
BRANCH  19  21
HETATM   21  C   UNL     1      -9.739   8.777  68.413  1.00  0.00    -0.162 C  
HETATM   22  O   UNL     1      -9.952   7.406  68.025  1.00  0.00    -0.153 OA 
HETATM   23  C   UNL     1      -9.956   6.503  69.135  1.00  0.00    -0.146 C  
HETATM   24  H   UNL     1     -11.329  10.914  70.352  1.00  0.00     0.000 HD 
HETATM   25  C   UNL     1     -11.122   6.840  70.064  1.00  0.00    -0.315 C  
HETATM   26  O   UNL     1     -10.625  10.608  69.793  1.00  0.00    -0.238 OA 
HETATM   27  C   UNL     1     -11.013   8.303  70.519  1.00  0.00    -0.242 C  
HETATM   28  O   UNL     1     -11.161   5.996  71.219  1.00  0.00    -0.287 OA 
HETATM   29  H   UNL     1     -12.076   9.536  71.615  1.00  0.00     0.000 HD 
HETATM   30  C   UNL     1     -10.885   9.276  69.325  1.00  0.00    -0.152 C  
HETATM   31  H   UNL     1     -11.886   6.206  71.796  1.00  0.00     0.000 HD 
HETATM   32  O   UNL     1     -12.144   8.632  71.334  1.00  0.00    -0.288 OA 
BRANCH  23  33
HETATM   33  C   UNL     1     -10.062   5.078  68.581  1.00  0.00    -0.121 C  
HETATM   34  O   UNL     1     -10.514   5.131  67.219  1.00  0.00    -0.196 OA 
HETATM   35  H   UNL     1     -10.580   4.248  66.875  1.00  0.00     0.000 HD 
ENDBRANCH  23  33
ENDBRANCH  19  21
ENDBRANCH  13  14
ENDBRANCH  10  13
ENDBRANCH   6   7
ENDBRANCH   1   6
TORSDOF 6
ENDMDL
MODEL       95
REMARK 921   NORMALIZED FREE ENERGY PREDICTED BY IDOCK:   -6.38 KCAL/MOL
REMARK 922        TOTAL FREE ENERGY PREDICTED BY IDOCK:   -9.58 KCAL/MOL
REMARK 923 INTER-LIGAND FREE ENERGY PREDICTED BY IDOCK:   -8.02 KCAL/MOL
REMARK 924 INTRA-LIGAND FREE ENERGY PREDICTED BY IDOCK:   -1.56 KCAL/MOL
REMARK 927      BINDING AFFINITY PREDICTED BY RF-SCORE:    0.00 PKD
ROOT
HETATM    1  C   UNL     1      -8.415   4.077  65.215  1.00  0.00    -0.113 C  
HETATM    2  C   UNL     1      -9.428   2.996  64.885  1.00  0.00    -0.136 C  
HETATM    3  O   UNL     1      -7.626   2.701  63.412  1.00  0.00    -0.060 OA 
HETATM    4  C   UNL     1      -8.598   1.968  64.164  1.00  0.00    -0.083 C  
HETATM    5  C   UNL     1      -7.499   4.011  63.996  1.00  0.00    -0.070 C  
ENDROOT
BRANCH   1   6
HETATM    6  O   UNL     1      -9.119   5.308  65.338  1.00  0.00    -0.160 OA 
BRANCH   6   7
HETATM    7  C   UNL     1      -9.430   5.765  66.585  1.00  0.00    -0.149 A  
HETATM    8  C   UNL     1     -10.868   6.233  68.475  1.00  0.00    -0.394 A  
HETATM    9  C   UNL     1     -10.706   5.839  67.136  1.00  0.00    -0.358 A  
HETATM   10  C   UNL     1      -9.760   6.557  69.277  1.00  0.00    -0.152 A  
HETATM   11  C   UNL     1      -8.327   6.101  67.371  1.00  0.00    -0.108 A  
HETATM   12  C   UNL     1      -8.487   6.502  68.700  1.00  0.00    -0.121 A  
BRANCH  10  13
HETATM   13  C   UNL     1      -9.921   6.877  70.754  1.00  0.00    -0.201 C  
BRANCH  13  14
HETATM   14  C   UNL     1     -10.890   8.018  70.998  1.00  0.00    -0.259 A  
HETATM   15  C   UNL     1     -12.142   7.863  71.609  1.00  0.00    -0.299 A  
HETATM   16 CL   UNL     1     -12.672   6.357  72.265  1.00  0.00    -0.121 Cl 
HETATM   17  C   UNL     1     -13.035   8.937  71.673  1.00  0.00    -0.404 A  
HETATM   18  C   UNL     1     -12.722  10.154  71.061  1.00  0.00    -0.481 A  
HETATM   19  C   UNL     1     -11.500  10.323  70.399  1.00  0.00    -0.415 A  
HETATM   20  C   UNL     1     -10.565   9.277  70.458  1.00  0.00    -0.309 A  
BRANCH  19  21
HETATM   21  C   UNL     1     -11.295  11.510  69.467  1.00  0.00    -0.274 C  
HETATM   22  O   UNL     1     -11.795  12.689  70.127  1.00  0.00    -0.318 OA 
HETATM   23  C   UNL     1     -11.416  13.903  69.469  1.00  0.00    -0.274 C  
HETATM   24  H   UNL     1     -11.669  10.192  66.470  1.00  0.00     0.000 HD 
HETATM   25  C   UNL     1     -12.029  13.939  68.070  1.00  0.00    -0.355 C  
HETATM   26  O   UNL     1     -11.310  10.268  67.346  1.00  0.00    -0.310 OA 
HETATM   27  C   UNL     1     -11.584  12.699  67.279  1.00  0.00    -0.364 C  
HETATM   28  O   UNL     1     -11.656  15.113  67.341  1.00  0.00    -0.328 OA 
HETATM   29  H   UNL     1     -11.941  11.938  65.505  1.00  0.00     0.000 HD 
HETATM   30  C   UNL     1     -11.881  11.387  68.041  1.00  0.00    -0.202 C  
HETATM   31  H   UNL     1     -12.037  15.135  66.471  1.00  0.00     0.000 HD 
HETATM   32  O   UNL     1     -12.216  12.705  65.994  1.00  0.00    -0.564 OA 
BRANCH  23  33
HETATM   33  C   UNL     1     -11.896  15.074  70.333  1.00  0.00    -0.297 C  
HETATM   34  O   UNL     1     -11.140  16.248  70.004  1.00  0.00    -0.341 OA 
HETATM   35  H   UNL     1     -11.438  16.975  70.539  1.00  0.00     0.000 HD 
ENDBRANCH  23  33
ENDBRANCH  19  21
ENDBRANCH  13  14
ENDBRANCH  10  13
ENDBRANCH   6   7
ENDBRANCH   1   6
TORSDOF 6
ENDMDL
MODEL       96
REMARK 921   NORMALIZED FREE ENERGY PREDICTED BY IDOCK:   -6.38 KCAL/MOL
REMARK 922        TOTAL FREE ENERGY PREDICTED BY IDOCK:   -9.58 KCAL/MOL
REMARK 923 INTER-LIGAND FREE ENERGY PREDICTED BY IDOCK:   -9.86 KCAL/MOL
REMARK 924 INTRA-LIGAND FREE ENERGY PREDICTED BY IDOCK:    0.28 KCAL/MOL
REMARK 927      BINDING AFFINITY PREDICTED BY RF-SCORE:    0.00 PKD
ROOT
HETATM    1  C   UNL     1      -9.711  17.149  67.950  1.00  0.00    -0.270 C  
HETATM    2  C   UNL     1      -9.562  17.325  66.450  1.00  0.00    -0.290 C  
HETATM    3  O   UNL     1      -8.318  19.042  67.456  1.00  0.00    -0.273 OA 
HETATM    4  C   UNL     1      -8.310  18.154  66.334  1.00  0.00    -0.245 C  
HETATM    5  C   UNL     1      -9.187  18.488  68.463  1.00  0.00    -0.335 C  
ENDROOT
BRANCH   1   6
HETATM    6  O   UNL     1     -11.091  16.930  68.224  1.00  0.00    -0.349 OA 
BRANCH   6   7
HETATM    7  C   UNL     1     -11.483  15.712  68.695  1.00  0.00    -0.375 A  
HETATM    8  C   UNL     1     -12.056  13.364  68.553  1.00  0.00    -0.283 A  
HETATM    9  C   UNL     1     -11.765  14.588  67.925  1.00  0.00    -0.381 A  
HETATM   10  C   UNL     1     -12.067  13.251  69.954  1.00  0.00    -0.377 A  
HETATM   11  C   UNL     1     -11.508  15.609  70.087  1.00  0.00    -0.358 A  
HETATM   12  C   UNL     1     -11.806  14.396  70.713  1.00  0.00    -0.349 A  
BRANCH  10  13
HETATM   13  C   UNL     1     -12.272  11.908  70.635  1.00  0.00    -0.424 C  
BRANCH  13  14
HETATM   14  C   UNL     1     -11.689  10.757  69.837  1.00  0.00    -0.412 A  
HETATM   15  C   UNL     1     -11.306   9.532  70.400  1.00  0.00    -0.264 A  
HETATM   16 CL   UNL     1     -11.571   9.152  72.063  1.00  0.00    -0.419 Cl 
HETATM   17  C   UNL     1     -10.648   8.572  69.623  1.00  0.00    -0.221 A  
HETATM   18  C   UNL     1     -10.296   8.854  68.301  1.00  0.00    -0.250 A  
HETATM   19  C   UNL     1     -10.620  10.089  67.727  1.00  0.00    -0.311 A  
HETATM   20  C   UNL     1     -11.393  10.988  68.481  1.00  0.00    -0.355 A  
BRANCH  19  21
HETATM   21  C   UNL     1      -9.963  10.519  66.422  1.00  0.00    -0.218 C  
HETATM   22  O   UNL     1     -10.910  11.318  65.685  1.00  0.00    -0.250 OA 
HETATM   23  C   UNL     1     -10.322  12.002  64.574  1.00  0.00    -0.296 C  
HETATM   24  H   UNL     1      -8.004   7.975  65.685  1.00  0.00     0.000 HD 
HETATM   25  C   UNL     1      -9.793  10.981  63.568  1.00  0.00    -0.359 C  
HETATM   26  O   UNL     1      -8.364   8.664  66.232  1.00  0.00    -0.114 OA 
HETATM   27  C   UNL     1      -8.788  10.048  64.259  1.00  0.00    -0.220 C  
HETATM   28  O   UNL     1      -9.155  11.601  62.446  1.00  0.00    -0.454 OA 
HETATM   29  H   UNL     1      -7.726   8.475  63.755  1.00  0.00     0.000 HD 
HETATM   30  C   UNL     1      -9.378   9.398  65.531  1.00  0.00    -0.251 C  
HETATM   31  H   UNL     1      -8.826  10.966  61.820  1.00  0.00     0.000 HD 
HETATM   32  O   UNL     1      -8.348   9.052  63.327  1.00  0.00    -0.178 OA 
BRANCH  23  33
HETATM   33  C   UNL     1     -11.395  12.907  63.959  1.00  0.00    -0.415 C  
HETATM   34  O   UNL     1     -12.538  12.944  64.826  1.00  0.00    -0.570 OA 
HETATM   35  H   UNL     1     -13.204  13.505  64.445  1.00  0.00     0.000 HD 
ENDBRANCH  23  33
ENDBRANCH  19  21
ENDBRANCH  13  14
ENDBRANCH  10  13
ENDBRANCH   6   7
ENDBRANCH   1   6
TORSDOF 6
ENDMDL
MODEL       97
REMARK 921   NORMALIZED FREE ENERGY PREDICTED BY IDOCK:   -6.36 KCAL/MOL
REMARK 922        TOTAL FREE ENERGY PREDICTED BY IDOCK:   -9.55 KCAL/MOL
REMARK 923 INTER-LIGAND FREE ENERGY PREDICTED BY IDOCK:   -8.28 KCAL/MOL
REMARK 924 INTRA-LIGAND FREE ENERGY PREDICTED BY IDOCK:   -1.27 KCAL/MOL
REMARK 927      BINDING AFFINITY PREDICTED BY RF-SCORE:    0.00 PKD
ROOT
HETATM    1  C   UNL     1      -6.997  10.990  68.775  1.00  0.00    -0.081 C  
HETATM    2  C   UNL     1      -7.328  10.020  69.894  1.00  0.00    -0.163 C  
HETATM    3  O   UNL     1      -9.372  10.847  69.095  1.00  0.00    -0.170 OA 
HETATM    4  C   UNL     1      -8.762   9.661  69.612  1.00  0.00    -0.197 C  
HETATM    5  C   UNL     1      -8.331  11.709  68.597  1.00  0.00    -0.100 C  
ENDROOT
BRANCH   1   6
HETATM    6  O   UNL     1      -5.946  11.834  69.232  1.00  0.00    -0.064 OA 
BRANCH   6   7
HETATM    7  C   UNL     1      -6.020  13.172  68.978  1.00  0.00    -0.084 A  
HETATM    8  C   UNL     1      -6.276  15.155  67.613  1.00  0.00    -0.145 A  
HETATM    9  C   UNL     1      -6.096  13.765  67.722  1.00  0.00    -0.140 A  
HETATM   10  C   UNL     1      -6.382  15.965  68.756  1.00  0.00    -0.114 A  
HETATM   11  C   UNL     1      -6.109  13.974  70.117  1.00  0.00    -0.154 A  
HETATM   12  C   UNL     1      -6.278  15.357  70.011  1.00  0.00    -0.146 A  
BRANCH  10  13
HETATM   13  C   UNL     1      -6.686  17.450  68.645  1.00  0.00    -0.201 C  
BRANCH  13  14
HETATM   14  C   UNL     1      -8.140  17.722  68.308  1.00  0.00    -0.283 A  
HETATM   15  C   UNL     1      -8.610  18.943  67.806  1.00  0.00    -0.292 A  
HETATM   16 CL   UNL     1      -7.553  20.247  67.399  1.00  0.00    -0.336 Cl 
HETATM   17  C   UNL     1      -9.983  19.163  67.651  1.00  0.00    -0.440 A  
HETATM   18  C   UNL     1     -10.903  18.197  68.068  1.00  0.00    -0.189 A  
HETATM   19  C   UNL     1     -10.464  16.988  68.620  1.00  0.00    -0.363 A  
HETATM   20  C   UNL     1      -9.083  16.734  68.647  1.00  0.00    -0.254 A  
BRANCH  19  21
HETATM   21  C   UNL     1     -11.444  16.090  69.365  1.00  0.00    -0.336 C  
HETATM   22  O   UNL     1     -11.363  16.405  70.768  1.00  0.00    -0.373 OA 
HETATM   23  C   UNL     1     -12.422  15.824  71.536  1.00  0.00    -0.455 C  
HETATM   24  H   UNL     1     -11.405  13.304  67.606  1.00  0.00     0.000 HD 
HETATM   25  C   UNL     1     -12.328  14.300  71.463  1.00  0.00    -0.339 C  
HETATM   26  O   UNL     1     -11.487  14.240  67.748  1.00  0.00    -0.294 OA 
HETATM   27  C   UNL     1     -12.374  13.849  69.996  1.00  0.00    -0.316 C  
HETATM   28  O   UNL     1     -13.385  13.654  72.180  1.00  0.00    -0.412 OA 
HETATM   29  H   UNL     1     -12.245  12.148  69.024  1.00  0.00     0.000 HD 
HETATM   30  C   UNL     1     -11.309  14.567  69.134  1.00  0.00    -0.277 C  
HETATM   31  H   UNL     1     -13.327  12.706  72.135  1.00  0.00     0.000 HD 
HETATM   32  O   UNL     1     -12.217  12.427  69.932  1.00  0.00    -0.248 OA 
BRANCH  23  33
HETATM   33  C   UNL     1     -12.295  16.336  72.974  1.00  0.00    -0.485 C  
HETATM   34  O   UNL     1     -13.490  16.016  73.701  1.00  0.00    -0.829 OA 
HETATM   35  H   UNL     1     -13.412  16.333  74.593  1.00  0.00     0.000 HD 
ENDBRANCH  23  33
ENDBRANCH  19  21
ENDBRANCH  13  14
ENDBRANCH  10  13
ENDBRANCH   6   7
ENDBRANCH   1   6
TORSDOF 6
ENDMDL
MODEL       98
REMARK 921   NORMALIZED FREE ENERGY PREDICTED BY IDOCK:   -6.32 KCAL/MOL
REMARK 922        TOTAL FREE ENERGY PREDICTED BY IDOCK:   -9.50 KCAL/MOL
REMARK 923 INTER-LIGAND FREE ENERGY PREDICTED BY IDOCK:   -7.99 KCAL/MOL
REMARK 924 INTRA-LIGAND FREE ENERGY PREDICTED BY IDOCK:   -1.52 KCAL/MOL
REMARK 927      BINDING AFFINITY PREDICTED BY RF-SCORE:    0.00 PKD
ROOT
HETATM    1  C   UNL     1     -11.704  11.987  64.777  1.00  0.00    -0.275 C  
HETATM    2  C   UNL     1     -10.935  13.257  65.090  1.00  0.00    -0.314 C  
HETATM    3  O   UNL     1     -12.604  13.844  63.549  1.00  0.00    -0.842 OA 
HETATM    4  C   UNL     1     -11.902  14.340  64.693  1.00  0.00    -0.448 C  
HETATM    5  C   UNL     1     -12.487  12.409  63.536  1.00  0.00    -0.500 C  
ENDROOT
BRANCH   1   6
HETATM    6  O   UNL     1     -10.754  10.955  64.533  1.00  0.00    -0.327 OA 
BRANCH   6   7
HETATM    7  C   UNL     1      -9.856  10.644  65.512  1.00  0.00    -0.258 A  
HETATM    8  C   UNL     1      -7.663  10.256  66.460  1.00  0.00    -0.113 A  
HETATM    9  C   UNL     1      -8.486  10.471  65.341  1.00  0.00    -0.173 A  
HETATM   10  C   UNL     1      -8.198  10.212  67.758  1.00  0.00    -0.110 A  
HETATM   11  C   UNL     1     -10.396  10.584  66.797  1.00  0.00    -0.301 A  
HETATM   12  C   UNL     1      -9.581  10.361  67.910  1.00  0.00    -0.157 A  
BRANCH  10  13
HETATM   13  C   UNL     1      -7.301  10.089  68.978  1.00  0.00    -0.083 C  
BRANCH  13  14
HETATM   14  C   UNL     1      -6.733  11.425  69.418  1.00  0.00    -0.122 A  
HETATM   15  C   UNL     1      -5.877  11.587  70.516  1.00  0.00    -0.129 A  
HETATM   16 CL   UNL     1      -5.273  10.249  71.425  1.00  0.00    -0.083 Cl 
HETATM   17  C   UNL     1      -5.508  12.867  70.942  1.00  0.00    -0.185 A  
HETATM   18  C   UNL     1      -6.049  13.999  70.328  1.00  0.00    -0.152 A  
HETATM   19  C   UNL     1      -6.947  13.869  69.261  1.00  0.00    -0.067 A  
HETATM   20  C   UNL     1      -7.204  12.580  68.765  1.00  0.00    -0.089 A  
BRANCH  19  21
HETATM   21  C   UNL     1      -7.777  15.064  68.813  1.00  0.00    -0.141 C  
HETATM   22  O   UNL     1      -9.162  14.776  69.087  1.00  0.00    -0.170 OA 
HETATM   23  C   UNL     1     -10.010  15.922  68.962  1.00  0.00    -0.233 C  
HETATM   24  H   UNL     1      -6.116  16.209  66.209  1.00  0.00     0.000 HD 
HETATM   25  C   UNL     1      -9.984  16.422  67.518  1.00  0.00    -0.250 C  
HETATM   26  O   UNL     1      -6.230  15.919  67.106  1.00  0.00    -0.298 OA 
HETATM   27  C   UNL     1      -8.538  16.734  67.105  1.00  0.00    -0.196 C  
HETATM   28  O   UNL     1     -10.783  17.594  67.332  1.00  0.00    -0.340 OA 
HETATM   29  H   UNL     1      -7.619  17.329  65.476  1.00  0.00     0.000 HD 
HETATM   30  C   UNL     1      -7.591  15.537  67.352  1.00  0.00    -0.201 C  
HETATM   31  H   UNL     1     -10.767  17.905  66.434  1.00  0.00     0.000 HD 
HETATM   32  O   UNL     1      -8.514  17.136  65.730  1.00  0.00    -0.522 OA 
BRANCH  23  33
HETATM   33  C   UNL     1     -11.420  15.513  69.399  1.00  0.00    -0.337 C  
HETATM   34  O   UNL     1     -12.165  15.077  68.253  1.00  0.00    -0.568 OA 
HETATM   35  H   UNL     1     -13.040  14.823  68.523  1.00  0.00     0.000 HD 
ENDBRANCH  23  33
ENDBRANCH  19  21
ENDBRANCH  13  14
ENDBRANCH  10  13
ENDBRANCH   6   7
ENDBRANCH   1   6
TORSDOF 6
ENDMDL
MODEL       99
REMARK 921   NORMALIZED FREE ENERGY PREDICTED BY IDOCK:   -6.32 KCAL/MOL
REMARK 922        TOTAL FREE ENERGY PREDICTED BY IDOCK:   -9.50 KCAL/MOL
REMARK 923 INTER-LIGAND FREE ENERGY PREDICTED BY IDOCK:   -8.62 KCAL/MOL
REMARK 924 INTRA-LIGAND FREE ENERGY PREDICTED BY IDOCK:   -0.88 KCAL/MOL
REMARK 927      BINDING AFFINITY PREDICTED BY RF-SCORE:    0.00 PKD
ROOT
HETATM    1  C   UNL     1     -11.574  12.715  68.829  1.00  0.00    -0.313 C  
HETATM    2  C   UNL     1     -11.735  13.218  67.406  1.00  0.00    -0.419 C  
HETATM    3  O   UNL     1     -12.069  15.065  68.814  1.00  0.00    -0.272 OA 
HETATM    4  C   UNL     1     -11.511  14.700  67.548  1.00  0.00    -0.361 C  
HETATM    5  C   UNL     1     -12.158  13.878  69.626  1.00  0.00    -0.349 C  
ENDROOT
BRANCH   1   6
HETATM    6  O   UNL     1     -12.318  11.507  68.947  1.00  0.00    -0.400 OA 
BRANCH   6   7
HETATM    7  C   UNL     1     -12.034  10.658  69.976  1.00  0.00    -0.329 A  
HETATM    8  C   UNL     1     -12.535   9.159  71.809  1.00  0.00    -0.447 A  
HETATM    9  C   UNL     1     -12.957  10.104  70.858  1.00  0.00    -0.432 A  
HETATM   10  C   UNL     1     -11.191   8.758  71.889  1.00  0.00    -0.438 A  
HETATM   11  C   UNL     1     -10.694  10.277  70.061  1.00  0.00    -0.345 A  
HETATM   12  C   UNL     1     -10.272   9.344  71.012  1.00  0.00    -0.369 A  
BRANCH  10  13
HETATM   13  C   UNL     1     -10.750   7.658  72.840  1.00  0.00    -0.428 C  
BRANCH  13  14
HETATM   14  C   UNL     1     -10.527   6.334  72.134  1.00  0.00    -0.228 A  
HETATM   15  C   UNL     1     -10.361   5.112  72.799  1.00  0.00    -0.197 A  
HETATM   16 CL   UNL     1     -10.515   4.961  74.512  1.00  0.00    -0.321 Cl 
HETATM   17  C   UNL     1     -10.021   3.958  72.084  1.00  0.00    -0.243 A  
HETATM   18  C   UNL     1      -9.766   4.027  70.712  1.00  0.00    -0.263 A  
HETATM   19  C   UNL     1      -9.874   5.245  70.029  1.00  0.00    -0.288 A  
HETATM   20  C   UNL     1     -10.341   6.363  70.739  1.00  0.00    -0.244 A  
BRANCH  19  21
HETATM   21  C   UNL     1      -9.289   5.388  68.631  1.00  0.00    -0.118 C  
HETATM   22  O   UNL     1      -9.433   6.763  68.223  1.00  0.00    -0.127 OA 
HETATM   23  C   UNL     1      -8.684   7.081  67.046  1.00  0.00    -0.123 C  
HETATM   24  H   UNL     1      -9.934   2.474  67.236  1.00  0.00     0.000 HD 
HETATM   25  C   UNL     1      -9.207   6.258  65.869  1.00  0.00    -0.024 C  
HETATM   26  O   UNL     1      -9.600   3.062  67.904  1.00  0.00    -0.194 OA 
HETATM   27  C   UNL     1      -9.128   4.762  66.209  1.00  0.00    -0.122 C  
HETATM   28  O   UNL     1      -8.472   6.501  64.665  1.00  0.00    -0.325 OA 
HETATM   29  H   UNL     1      -9.633   3.077  65.339  1.00  0.00     0.000 HD 
HETATM   30  C   UNL     1      -9.833   4.431  67.544  1.00  0.00    -0.128 C  
HETATM   31  H   UNL     1      -8.797   5.989  63.933  1.00  0.00     0.000 HD 
HETATM   32  O   UNL     1      -9.682   4.001  65.129  1.00  0.00    -0.173 OA 
BRANCH  23  33
HETATM   33  C   UNL     1      -8.820   8.586  66.796  1.00  0.00    -0.139 C  
HETATM   34  O   UNL     1      -9.850   8.815  65.824  1.00  0.00    -0.462 OA 
HETATM   35  H   UNL     1      -9.935   9.748  65.668  1.00  0.00     0.000 HD 
ENDBRANCH  23  33
ENDBRANCH  19  21
ENDBRANCH  13  14
ENDBRANCH  10  13
ENDBRANCH   6   7
ENDBRANCH   1   6
TORSDOF 6
ENDMDL
MODEL      100
REMARK 921   NORMALIZED FREE ENERGY PREDICTED BY IDOCK:   -6.31 KCAL/MOL
REMARK 922        TOTAL FREE ENERGY PREDICTED BY IDOCK:   -9.49 KCAL/MOL
REMARK 923 INTER-LIGAND FREE ENERGY PREDICTED BY IDOCK:   -8.64 KCAL/MOL
REMARK 924 INTRA-LIGAND FREE ENERGY PREDICTED BY IDOCK:   -0.85 KCAL/MOL
REMARK 927      BINDING AFFINITY PREDICTED BY RF-SCORE:    0.00 PKD
ROOT
HETATM    1  C   UNL     1      -7.784   5.211  73.304  1.00  0.00    -0.096 C  
HETATM    2  C   UNL     1      -7.091   4.469  72.176  1.00  0.00    -0.061 C  
HETATM    3  O   UNL     1      -6.165   3.668  74.177  1.00  0.00    -0.022 OA 
HETATM    4  C   UNL     1      -6.548   3.246  72.865  1.00  0.00    -0.025 C  
HETATM    5  C   UNL     1      -6.871   4.886  74.483  1.00  0.00    -0.072 C  
ENDROOT
BRANCH   1   6
HETATM    6  O   UNL     1      -7.809   6.593  72.961  1.00  0.00    -0.099 OA 
BRANCH   6   7
HETATM    7  C   UNL     1      -8.482   6.980  71.839  1.00  0.00    -0.109 A  
HETATM    8  C   UNL     1     -10.322   7.022  70.267  1.00  0.00    -0.219 A  
HETATM    9  C   UNL     1      -9.687   6.454  71.385  1.00  0.00    -0.187 A  
HETATM   10  C   UNL     1      -9.761   8.121  69.594  1.00  0.00    -0.170 A  
HETATM   11  C   UNL     1      -7.911   8.060  71.165  1.00  0.00    -0.095 A  
HETATM   12  C   UNL     1      -8.536   8.621  70.048  1.00  0.00    -0.132 A  
BRANCH  10  13
HETATM   13  C   UNL     1     -10.496   8.808  68.455  1.00  0.00    -0.220 C  
BRANCH  13  14
HETATM   14  C   UNL     1     -10.815  10.258  68.761  1.00  0.00    -0.265 A  
HETATM   15  C   UNL     1     -11.610  10.672  69.838  1.00  0.00    -0.316 A  
HETATM   16 CL   UNL     1     -12.220   9.569  71.018  1.00  0.00    -0.380 Cl 
HETATM   17  C   UNL     1     -11.974  12.017  69.974  1.00  0.00    -0.400 A  
HETATM   18  C   UNL     1     -11.614  12.947  68.995  1.00  0.00    -0.372 A  
HETATM   19  C   UNL     1     -10.863  12.553  67.881  1.00  0.00    -0.251 A  
HETATM   20  C   UNL     1     -10.400  11.228  67.829  1.00  0.00    -0.208 A  
BRANCH  19  21
HETATM   21  C   UNL     1     -10.754  13.472  66.672  1.00  0.00    -0.282 C  
HETATM   22  O   UNL     1     -10.744  14.834  67.143  1.00  0.00    -0.287 OA 
HETATM   23  C   UNL     1     -10.374  15.776  66.131  1.00  0.00    -0.320 C  
HETATM   24  H   UNL     1     -12.394  11.840  64.327  1.00  0.00     0.000 HD 
HETATM   25  C   UNL     1     -11.409  15.750  65.007  1.00  0.00    -0.220 C  
HETATM   26  O   UNL     1     -11.749  11.956  65.014  1.00  0.00    -0.290 OA 
HETATM   27  C   UNL     1     -11.526  14.325  64.445  1.00  0.00    -0.310 C  
HETATM   28  O   UNL     1     -11.077  16.644  63.940  1.00  0.00    -1.242 OA 
HETATM   29  H   UNL     1     -12.617  13.414  63.091  1.00  0.00     0.000 HD 
HETATM   30  C   UNL     1     -11.805  13.284  65.553  1.00  0.00    -0.370 C  
HETATM   31  H   UNL     1     -11.721  16.628  63.240  1.00  0.00     0.000 HD 
HETATM   32  O   UNL     1     -12.545  14.295  63.439  1.00  0.00    -0.777 OA 
BRANCH  23  33
HETATM   33  C   UNL     1     -10.279  17.157  66.787  1.00  0.00    -0.311 C  
HETATM   34  O   UNL     1      -9.716  18.089  65.853  1.00  0.00    -0.530 OA 
HETATM   35  H   UNL     1      -9.657  18.946  66.260  1.00  0.00     0.000 HD 
ENDBRANCH  23  33
ENDBRANCH  19  21
ENDBRANCH  13  14
ENDBRANCH  10  13
ENDBRANCH   6   7
ENDBRANCH   1   6
TORSDOF 6
ENDMDL
MODEL      101
REMARK 921   NORMALIZED FREE ENERGY PREDICTED BY IDOCK:   -6.28 KCAL/MOL
REMARK 922        TOTAL FREE ENERGY PREDICTED BY IDOCK:   -9.45 KCAL/MOL
REMARK 923 INTER-LIGAND FREE ENERGY PREDICTED BY IDOCK:   -8.17 KCAL/MOL
REMARK 924 INTRA-LIGAND FREE ENERGY PREDICTED BY IDOCK:   -1.29 KCAL/MOL
REMARK 927      BINDING AFFINITY PREDICTED BY RF-SCORE:    0.00 PKD
ROOT
HETATM    1  C   UNL     1      -9.523   7.626  67.710  1.00  0.00    -0.142 C  
HETATM    2  C   UNL     1     -10.694   6.921  67.050  1.00  0.00    -0.432 C  
HETATM    3  O   UNL     1      -9.038   5.295  67.398  1.00  0.00    -0.112 OA 
HETATM    4  C   UNL     1     -10.457   5.477  67.405  1.00  0.00    -0.219 C  
HETATM    5  C   UNL     1      -8.418   6.586  67.550  1.00  0.00    -0.120 C  
ENDROOT
BRANCH   1   6
HETATM    6  O   UNL     1      -9.284   8.832  66.991  1.00  0.00    -0.135 OA 
BRANCH   6   7
HETATM    7  C   UNL     1     -10.102   9.901  67.211  1.00  0.00    -0.211 A  
HETATM    8  C   UNL     1     -11.457  11.417  68.526  1.00  0.00    -0.361 A  
HETATM    9  C   UNL     1     -10.723  10.223  68.414  1.00  0.00    -0.263 A  
HETATM   10  C   UNL     1     -11.577  12.300  67.439  1.00  0.00    -0.425 A  
HETATM   11  C   UNL     1     -10.231  10.766  66.124  1.00  0.00    -0.308 A  
HETATM   12  C   UNL     1     -10.968  11.949  66.230  1.00  0.00    -0.345 A  
BRANCH  10  13
HETATM   13  C   UNL     1     -12.274  13.642  67.586  1.00  0.00    -0.224 C  
BRANCH  13  14
HETATM   14  C   UNL     1     -11.603  14.537  68.610  1.00  0.00    -0.346 A  
HETATM   15  C   UNL     1     -12.019  14.648  69.943  1.00  0.00    -0.329 A  
HETATM   16 CL   UNL     1     -13.284  13.674  70.604  1.00  0.00    -0.042 Cl 
HETATM   17  C   UNL     1     -11.437  15.597  70.790  1.00  0.00    -0.409 A  
HETATM   18  C   UNL     1     -10.490  16.497  70.295  1.00  0.00     0.169 A  
HETATM   19  C   UNL     1     -10.091  16.444  68.954  1.00  0.00    -0.255 A  
HETATM   20  C   UNL     1     -10.591  15.403  68.155  1.00  0.00    -0.263 A  
BRANCH  19  21
HETATM   21  C   UNL     1      -9.323  17.607  68.341  1.00  0.00    -0.289 C  
HETATM   22  O   UNL     1     -10.077  18.099  67.216  1.00  0.00    -0.317 OA 
HETATM   23  C   UNL     1      -9.597  19.355  66.724  1.00  0.00    -0.346 C  
HETATM   24  H   UNL     1      -6.172  16.784  68.843  1.00  0.00     0.000 HD 
HETATM   25  C   UNL     1      -8.169  19.189  66.206  1.00  0.00    -0.300 C  
HETATM   26  O   UNL     1      -7.076  16.947  69.086  1.00  0.00    -0.228 OA 
HETATM   27  C   UNL     1      -7.275  18.636  67.326  1.00  0.00    -0.209 C  
HETATM   28  O   UNL     1      -7.614  20.421  65.735  1.00  0.00    -0.512 OA 
HETATM   29  H   UNL     1      -5.401  18.077  67.507  1.00  0.00     0.000 HD 
HETATM   30  C   UNL     1      -7.851  17.342  67.945  1.00  0.00    -0.196 C  
HETATM   31  H   UNL     1      -6.725  20.318  65.413  1.00  0.00     0.000 HD 
HETATM   32  O   UNL     1      -5.954  18.420  66.814  1.00  0.00    -0.147 OA 
BRANCH  23  33
HETATM   33  C   UNL     1     -10.553  19.823  65.622  1.00  0.00    -0.355 C  
HETATM   34  O   UNL     1     -10.992  18.689  64.861  1.00  0.00    -0.494 OA 
HETATM   35  H   UNL     1     -11.585  18.979  64.177  1.00  0.00     0.000 HD 
ENDBRANCH  23  33
ENDBRANCH  19  21
ENDBRANCH  13  14
ENDBRANCH  10  13
ENDBRANCH   6   7
ENDBRANCH   1   6
TORSDOF 6
ENDMDL
MODEL      102
REMARK 921   NORMALIZED FREE ENERGY PREDICTED BY IDOCK:   -6.27 KCAL/MOL
REMARK 922        TOTAL FREE ENERGY PREDICTED BY IDOCK:   -9.44 KCAL/MOL
REMARK 923 INTER-LIGAND FREE ENERGY PREDICTED BY IDOCK:   -7.89 KCAL/MOL
REMARK 924 INTRA-LIGAND FREE ENERGY PREDICTED BY IDOCK:   -1.55 KCAL/MOL
REMARK 927      BINDING AFFINITY PREDICTED BY RF-SCORE:    0.00 PKD
ROOT
HETATM    1  C   UNL     1      -8.621   8.756  65.001  1.00  0.00    -0.169 C  
HETATM    2  C   UNL     1      -7.534   8.332  64.031  1.00  0.00    -0.110 C  
HETATM    3  O   UNL     1      -8.175   6.405  65.206  1.00  0.00    -0.132 OA 
HETATM    4  C   UNL     1      -7.751   6.847  63.913  1.00  0.00    -0.115 C  
HETATM    5  C   UNL     1      -8.688   7.543  65.926  1.00  0.00    -0.147 C  
ENDROOT
BRANCH   1   6
HETATM    6  O   UNL     1      -8.184   9.947  65.647  1.00  0.00    -0.128 OA 
BRANCH   6   7
HETATM    7  C   UNL     1      -9.038  11.008  65.717  1.00  0.00    -0.202 A  
HETATM    8  C   UNL     1     -11.144  12.175  65.458  1.00  0.00    -0.361 A  
HETATM    9  C   UNL     1     -10.338  11.047  65.222  1.00  0.00    -0.338 A  
HETATM   10  C   UNL     1     -10.660  13.273  66.189  1.00  0.00    -0.293 A  
HETATM   11  C   UNL     1      -8.547  12.103  66.430  1.00  0.00    -0.002 A  
HETATM   12  C   UNL     1      -9.343  13.228  66.657  1.00  0.00    -0.247 A  
BRANCH  10  13
HETATM   13  C   UNL     1     -11.561  14.445  66.541  1.00  0.00    -0.388 C  
BRANCH  13  14
HETATM   14  C   UNL     1     -11.773  14.586  68.036  1.00  0.00    -0.373 A  
HETATM   15  C   UNL     1     -11.550  15.773  68.748  1.00  0.00    -0.395 A  
HETATM   16 CL   UNL     1     -11.119  17.253  67.971  1.00  0.00    -0.194 Cl 
HETATM   17  C   UNL     1     -11.634  15.786  70.144  1.00  0.00    -0.364 A  
HETATM   18  C   UNL     1     -11.865  14.602  70.848  1.00  0.00    -0.372 A  
HETATM   19  C   UNL     1     -12.041  13.392  70.167  1.00  0.00    -0.415 A  
HETATM   20  C   UNL     1     -12.082  13.422  68.763  1.00  0.00    -0.281 A  
BRANCH  19  21
HETATM   21  C   UNL     1     -11.964  12.072  70.924  1.00  0.00     0.079 C  
HETATM   22  O   UNL     1     -11.412  11.079  70.038  1.00  0.00    -0.285 OA 
HETATM   23  C   UNL     1     -11.040   9.872  70.712  1.00  0.00    -0.347 C  
HETATM   24  H   UNL     1     -14.574  12.197  72.931  1.00  0.00     0.000 HD 
HETATM   25  C   UNL     1     -12.283   9.220  71.316  1.00  0.00    -0.334 C  
HETATM   26  O   UNL     1     -13.771  12.510  72.531  1.00  0.00    -0.410 OA 
HETATM   27  C   UNL     1     -12.976  10.211  72.263  1.00  0.00    -0.222 C  
HETATM   28  O   UNL     1     -11.974   8.024  72.039  1.00  0.00    -0.294 OA 
HETATM   29  H   UNL     1     -14.605  10.230  73.359  1.00  0.00     0.000 HD 
HETATM   30  C   UNL     1     -13.272  11.563  71.575  1.00  0.00    -0.220 C  
HETATM   31  H   UNL     1     -12.747   7.619  72.416  1.00  0.00     0.000 HD 
HETATM   32  O   UNL     1     -14.176   9.617  72.773  1.00  0.00    -0.224 OA 
BRANCH  23  33
HETATM   33  C   UNL     1     -10.355   8.957  69.690  1.00  0.00    -0.212 C  
HETATM   34  O   UNL     1     -10.819   9.285  68.373  1.00  0.00    -0.396 OA 
HETATM   35  H   UNL     1     -10.394   8.719  67.739  1.00  0.00     0.000 HD 
ENDBRANCH  23  33
ENDBRANCH  19  21
ENDBRANCH  13  14
ENDBRANCH  10  13
ENDBRANCH   6   7
ENDBRANCH   1   6
TORSDOF 6
ENDMDL
MODEL      103
REMARK 921   NORMALIZED FREE ENERGY PREDICTED BY IDOCK:   -6.27 KCAL/MOL
REMARK 922        TOTAL FREE ENERGY PREDICTED BY IDOCK:   -9.43 KCAL/MOL
REMARK 923 INTER-LIGAND FREE ENERGY PREDICTED BY IDOCK:   -9.32 KCAL/MOL
REMARK 924 INTRA-LIGAND FREE ENERGY PREDICTED BY IDOCK:   -0.11 KCAL/MOL
REMARK 927      BINDING AFFINITY PREDICTED BY RF-SCORE:    0.00 PKD
ROOT
HETATM    1  C   UNL     1      -9.790   6.042  73.146  1.00  0.00    -0.169 C  
HETATM    2  C   UNL     1      -9.773   5.389  71.775  1.00  0.00    -0.206 C  
HETATM    3  O   UNL     1      -8.981   3.785  73.294  1.00  0.00    -0.101 OA 
HETATM    4  C   UNL     1      -9.766   3.920  72.105  1.00  0.00    -0.159 C  
HETATM    5  C   UNL     1      -8.938   5.065  73.953  1.00  0.00    -0.113 C  
ENDROOT
BRANCH   1   6
HETATM    6  O   UNL     1      -9.211   7.336  73.015  1.00  0.00    -0.135 OA 
BRANCH   6   7
HETATM    7  C   UNL     1      -9.806   8.241  72.186  1.00  0.00    -0.272 A  
HETATM    8  C   UNL     1      -9.927   9.813  70.349  1.00  0.00    -0.294 A  
HETATM    9  C   UNL     1      -9.169   8.993  71.203  1.00  0.00    -0.326 A  
HETATM   10  C   UNL     1     -11.325   9.889  70.466  1.00  0.00    -0.399 A  
HETATM   11  C   UNL     1     -11.193   8.325  72.318  1.00  0.00    -0.443 A  
HETATM   12  C   UNL     1     -11.946   9.146  71.475  1.00  0.00    -0.422 A  
BRANCH  10  13
HETATM   13  C   UNL     1     -12.158  10.687  69.476  1.00  0.00    -0.285 C  
BRANCH  13  14
HETATM   14  C   UNL     1     -11.515  10.761  68.104  1.00  0.00    -0.346 A  
HETATM   15  C   UNL     1     -10.872   9.682  67.483  1.00  0.00    -0.198 A  
HETATM   16 CL   UNL     1     -10.849   8.098  68.169  1.00  0.00    -0.068 Cl 
HETATM   17  C   UNL     1     -10.183   9.866  66.280  1.00  0.00    -0.282 A  
HETATM   18  C   UNL     1     -10.061  11.143  65.725  1.00  0.00    -0.299 A  
HETATM   19  C   UNL     1     -10.649  12.249  66.350  1.00  0.00    -0.272 A  
HETATM   20  C   UNL     1     -11.444  12.024  67.485  1.00  0.00    -0.403 A  
BRANCH  19  21
HETATM   21  C   UNL     1     -10.249  13.659  65.937  1.00  0.00    -0.311 C  
HETATM   22  O   UNL     1      -9.898  14.393  67.127  1.00  0.00    -0.245 OA 
HETATM   23  C   UNL     1      -9.250  15.638  66.848  1.00  0.00    -0.236 C  
HETATM   24  H   UNL     1     -12.164  14.256  63.323  1.00  0.00     0.000 HD 
HETATM   25  C   UNL     1     -10.207  16.552  66.084  1.00  0.00    -0.346 C  
HETATM   26  O   UNL     1     -11.540  13.770  63.849  1.00  0.00    -0.327 OA 
HETATM   27  C   UNL     1     -10.674  15.852  64.799  1.00  0.00    -0.229 C  
HETATM   28  O   UNL     1      -9.606  17.804  65.739  1.00  0.00    -0.519 OA 
HETATM   29  H   UNL     1     -11.910  16.253  63.328  1.00  0.00     0.000 HD 
HETATM   30  C   UNL     1     -11.265  14.452  65.081  1.00  0.00    -0.359 C  
HETATM   31  H   UNL     1     -10.201  18.373  65.263  1.00  0.00     0.000 HD 
HETATM   32  O   UNL     1     -11.622  16.686  64.122  1.00  0.00    -1.102 OA 
BRANCH  23  33
HETATM   33  C   UNL     1      -8.820  16.252  68.185  1.00  0.00    -0.183 C  
HETATM   34  O   UNL     1      -9.755  17.273  68.562  1.00  0.00    -0.271 OA 
HETATM   35  H   UNL     1      -9.488  17.654  69.390  1.00  0.00     0.000 HD 
ENDBRANCH  23  33
ENDBRANCH  19  21
ENDBRANCH  13  14
ENDBRANCH  10  13
ENDBRANCH   6   7
ENDBRANCH   1   6
TORSDOF 6
ENDMDL
MODEL      104
REMARK 921   NORMALIZED FREE ENERGY PREDICTED BY IDOCK:   -6.26 KCAL/MOL
REMARK 922        TOTAL FREE ENERGY PREDICTED BY IDOCK:   -9.43 KCAL/MOL
REMARK 923 INTER-LIGAND FREE ENERGY PREDICTED BY IDOCK:   -8.78 KCAL/MOL
REMARK 924 INTRA-LIGAND FREE ENERGY PREDICTED BY IDOCK:   -0.65 KCAL/MOL
REMARK 927      BINDING AFFINITY PREDICTED BY RF-SCORE:    0.00 PKD
ROOT
HETATM    1  C   UNL     1      -6.660  12.989  67.773  1.00  0.00    -0.146 C  
HETATM    2  C   UNL     1      -6.249  13.034  69.234  1.00  0.00    -0.103 C  
HETATM    3  O   UNL     1      -7.526  11.086  68.954  1.00  0.00    -0.105 OA 
HETATM    4  C   UNL     1      -6.397  11.599  69.667  1.00  0.00    -0.133 C  
HETATM    5  C   UNL     1      -7.749  11.920  67.801  1.00  0.00    -0.136 C  
ENDROOT
BRANCH   1   6
HETATM    6  O   UNL     1      -7.134  14.283  67.418  1.00  0.00    -0.184 OA 
BRANCH   6   7
HETATM    7  C   UNL     1      -8.374  14.667  67.837  1.00  0.00    -0.152 A  
HETATM    8  C   UNL     1     -10.789  14.814  67.757  1.00  0.00    -0.278 A  
HETATM    9  C   UNL     1      -9.569  14.459  67.155  1.00  0.00    -0.251 A  
HETATM   10  C   UNL     1     -10.828  15.379  69.043  1.00  0.00    -0.244 A  
HETATM   11  C   UNL     1      -8.405  15.242  69.108  1.00  0.00    -0.233 A  
HETATM   12  C   UNL     1      -9.616  15.604  69.704  1.00  0.00    -0.260 A  
BRANCH  10  13
HETATM   13  C   UNL     1     -12.147  15.663  69.741  1.00  0.00    -0.346 C  
BRANCH  13  14
HETATM   14  C   UNL     1     -12.655  14.471  70.529  1.00  0.00    -0.413 A  
HETATM   15  C   UNL     1     -13.174  14.557  71.828  1.00  0.00    -0.351 A  
HETATM   16 CL   UNL     1     -13.406  16.066  72.636  1.00  0.00    -0.506 Cl 
HETATM   17  C   UNL     1     -13.493  13.396  72.541  1.00  0.00    -0.640 A  
HETATM   18  C   UNL     1     -13.224  12.138  71.997  1.00  0.00    -0.496 A  
HETATM   19  C   UNL     1     -12.659  12.020  70.722  1.00  0.00    -0.312 A  
HETATM   20  C   UNL     1     -12.467  13.192  69.972  1.00  0.00    -0.143 A  
BRANCH  19  21
HETATM   21  C   UNL     1     -12.071  10.691  70.269  1.00  0.00    -0.338 C  
HETATM   22  O   UNL     1     -11.341  10.123  71.374  1.00  0.00    -0.291 OA 
HETATM   23  C   UNL     1     -10.972   8.756  71.160  1.00  0.00    -0.268 C  
HETATM   24  H   UNL     1     -11.426  11.196  67.077  1.00  0.00     0.000 HD 
HETATM   25  C   UNL     1     -10.023   8.665  69.966  1.00  0.00    -0.185 C  
HETATM   26  O   UNL     1     -11.959  11.184  67.864  1.00  0.00    -0.624 OA 
HETATM   27  C   UNL     1     -10.692   9.275  68.725  1.00  0.00    -0.154 C  
HETATM   28  O   UNL     1      -9.644   7.316  69.672  1.00  0.00    -0.156 OA 
HETATM   29  H   UNL     1     -10.186   9.625  66.861  1.00  0.00     0.000 HD 
HETATM   30  C   UNL     1     -11.203  10.711  68.988  1.00  0.00    -0.265 C  
HETATM   31  H   UNL     1      -9.054   7.259  68.930  1.00  0.00     0.000 HD 
HETATM   32  O   UNL     1      -9.772   9.247  67.628  1.00  0.00    -0.148 OA 
BRANCH  23  33
HETATM   33  C   UNL     1     -10.322   8.239  72.447  1.00  0.00    -0.332 C  
HETATM   34  O   UNL     1     -11.335   7.700  73.308  1.00  0.00    -0.587 OA 
HETATM   35  H   UNL     1     -10.933   7.379  74.106  1.00  0.00     0.000 HD 
ENDBRANCH  23  33
ENDBRANCH  19  21
ENDBRANCH  13  14
ENDBRANCH  10  13
ENDBRANCH   6   7
ENDBRANCH   1   6
TORSDOF 6
ENDMDL
MODEL      105
REMARK 921   NORMALIZED FREE ENERGY PREDICTED BY IDOCK:   -6.26 KCAL/MOL
REMARK 922        TOTAL FREE ENERGY PREDICTED BY IDOCK:   -9.42 KCAL/MOL
REMARK 923 INTER-LIGAND FREE ENERGY PREDICTED BY IDOCK:   -8.01 KCAL/MOL
REMARK 924 INTRA-LIGAND FREE ENERGY PREDICTED BY IDOCK:   -1.41 KCAL/MOL
REMARK 927      BINDING AFFINITY PREDICTED BY RF-SCORE:    0.00 PKD
ROOT
HETATM    1  C   UNL     1     -10.459   7.884  69.442  1.00  0.00    -0.220 C  
HETATM    2  C   UNL     1     -10.318   7.522  67.975  1.00  0.00    -0.254 C  
HETATM    3  O   UNL     1     -10.208   5.511  69.178  1.00  0.00    -0.197 OA 
HETATM    4  C   UNL     1     -10.696   6.065  67.952  1.00  0.00    -0.284 C  
HETATM    5  C   UNL     1     -10.016   6.588  70.115  1.00  0.00    -0.167 C  
ENDROOT
BRANCH   1   6
HETATM    6  O   UNL     1      -9.598   8.988  69.699  1.00  0.00    -0.164 OA 
BRANCH   6   7
HETATM    7  C   UNL     1     -10.051  10.249  69.445  1.00  0.00    -0.235 A  
HETATM    8  C   UNL     1     -10.159  12.368  68.280  1.00  0.00    -0.227 A  
HETATM    9  C   UNL     1      -9.524  11.136  68.512  1.00  0.00    -0.193 A  
HETATM   10  C   UNL     1     -11.326  12.726  68.976  1.00  0.00    -0.346 A  
HETATM   11  C   UNL     1     -11.201  10.606  70.151  1.00  0.00    -0.378 A  
HETATM   12  C   UNL     1     -11.829  11.834  69.929  1.00  0.00    -0.423 A  
BRANCH  10  13
HETATM   13  C   UNL     1     -12.078  14.007  68.651  1.00  0.00    -0.332 C  
BRANCH  13  14
HETATM   14  C   UNL     1     -11.447  14.774  67.505  1.00  0.00    -0.369 A  
HETATM   15  C   UNL     1     -11.638  14.456  66.153  1.00  0.00    -0.369 A  
HETATM   16 CL   UNL     1     -12.720  13.214  65.637  1.00  0.00    -0.419 Cl 
HETATM   17  C   UNL     1     -10.913  15.124  65.160  1.00  0.00    -0.428 A  
HETATM   18  C   UNL     1      -9.935  16.059  65.509  1.00  0.00    -0.282 A  
HETATM   19  C   UNL     1      -9.687  16.361  66.853  1.00  0.00    -0.260 A  
HETATM   20  C   UNL     1     -10.513  15.777  67.827  1.00  0.00    -0.283 A  
BRANCH  19  21
HETATM   21  C   UNL     1      -8.424  17.117  67.244  1.00  0.00    -0.196 C  
HETATM   22  O   UNL     1      -7.799  16.413  68.334  1.00  0.00    -0.161 OA 
HETATM   23  C   UNL     1      -6.471  16.871  68.609  1.00  0.00    -0.169 C  
HETATM   24  H   UNL     1      -9.214  20.263  66.662  1.00  0.00     0.000 HD 
HETATM   25  C   UNL     1      -6.516  18.332  69.053  1.00  0.00    -0.246 C  
HETATM   26  O   UNL     1      -9.116  19.340  66.457  1.00  0.00    -0.323 OA 
HETATM   27  C   UNL     1      -7.197  19.180  67.968  1.00  0.00    -0.256 C  
HETATM   28  O   UNL     1      -5.212  18.865  69.307  1.00  0.00    -0.193 OA 
HETATM   29  H   UNL     1      -7.718  21.060  67.748  1.00  0.00     0.000 HD 
HETATM   30  C   UNL     1      -8.584  18.619  67.578  1.00  0.00    -0.269 C  
HETATM   31  H   UNL     1      -5.240  19.774  69.583  1.00  0.00     0.000 HD 
HETATM   32  O   UNL     1      -7.296  20.536  68.419  1.00  0.00    -0.136 OA 
BRANCH  23  33
HETATM   33  C   UNL     1      -5.878  15.964  69.693  1.00  0.00    -0.143 C  
HETATM   34  O   UNL     1      -5.657  16.730  70.886  1.00  0.00    -0.088 OA 
HETATM   35  H   UNL     1      -5.290  16.168  71.558  1.00  0.00     0.000 HD 
ENDBRANCH  23  33
ENDBRANCH  19  21
ENDBRANCH  13  14
ENDBRANCH  10  13
ENDBRANCH   6   7
ENDBRANCH   1   6
TORSDOF 6
ENDMDL
MODEL      106
REMARK 921   NORMALIZED FREE ENERGY PREDICTED BY IDOCK:   -6.26 KCAL/MOL
REMARK 922        TOTAL FREE ENERGY PREDICTED BY IDOCK:   -9.42 KCAL/MOL
REMARK 923 INTER-LIGAND FREE ENERGY PREDICTED BY IDOCK:   -8.42 KCAL/MOL
REMARK 924 INTRA-LIGAND FREE ENERGY PREDICTED BY IDOCK:   -0.99 KCAL/MOL
REMARK 927      BINDING AFFINITY PREDICTED BY RF-SCORE:    0.00 PKD
ROOT
HETATM    1  C   UNL     1      -7.861   3.997  66.614  1.00  0.00    -0.093 C  
HETATM    2  C   UNL     1      -8.766   2.790  66.782  1.00  0.00    -0.131 C  
HETATM    3  O   UNL     1      -6.959   2.098  65.454  1.00  0.00    -0.042 OA 
HETATM    4  C   UNL     1      -7.844   1.638  66.479  1.00  0.00    -0.070 C  
HETATM    5  C   UNL     1      -6.957   3.538  65.474  1.00  0.00    -0.058 C  
ENDROOT
BRANCH   1   6
HETATM    6  O   UNL     1      -8.684   5.111  66.282  1.00  0.00    -0.116 OA 
BRANCH   6   7
HETATM    7  C   UNL     1      -9.313   5.786  67.287  1.00  0.00    -0.113 A  
HETATM    8  C   UNL     1     -11.189   6.476  68.652  1.00  0.00    -0.302 A  
HETATM    9  C   UNL     1     -10.685   5.825  67.513  1.00  0.00    -0.320 A  
HETATM   10  C   UNL     1     -10.328   7.094  69.576  1.00  0.00    -0.224 A  
HETATM   11  C   UNL     1      -8.454   6.412  68.191  1.00  0.00    -0.115 A  
HETATM   12  C   UNL     1      -8.953   7.068  69.320  1.00  0.00    -0.138 A  
BRANCH  10  13
HETATM   13  C   UNL     1     -10.858   7.704  70.863  1.00  0.00    -0.250 C  
BRANCH  13  14
HETATM   14  C   UNL     1     -11.192   9.176  70.714  1.00  0.00    -0.336 A  
HETATM   15  C   UNL     1     -12.241   9.811  71.392  1.00  0.00    -0.397 A  
HETATM   16 CL   UNL     1     -13.202   9.003  72.578  1.00  0.00    -0.500 Cl 
HETATM   17  C   UNL     1     -12.573  11.137  71.097  1.00  0.00    -0.513 A  
HETATM   18  C   UNL     1     -11.915  11.818  70.070  1.00  0.00    -0.421 A  
HETATM   19  C   UNL     1     -10.898  11.192  69.340  1.00  0.00    -0.264 A  
HETATM   20  C   UNL     1     -10.492   9.908  69.736  1.00  0.00    -0.292 A  
BRANCH  19  21
HETATM   21  C   UNL     1     -10.415  11.800  68.030  1.00  0.00    -0.199 C  
HETATM   22  O   UNL     1     -11.552  12.371  67.354  1.00  0.00    -0.328 OA 
HETATM   23  C   UNL     1     -11.188  13.204  66.248  1.00  0.00    -0.301 C  
HETATM   24  H   UNL     1      -7.942   9.813  67.138  1.00  0.00     0.000 HD 
HETATM   25  C   UNL     1     -10.475  12.364  65.189  1.00  0.00    -0.292 C  
HETATM   26  O   UNL     1      -8.431  10.382  67.721  1.00  0.00    -0.114 OA 
HETATM   27  C   UNL     1      -9.251  11.678  65.813  1.00  0.00    -0.173 C  
HETATM   28  O   UNL     1     -10.048  13.147  64.070  1.00  0.00    -0.682 OA 
HETATM   29  H   UNL     1      -7.870  10.416  65.219  1.00  0.00     0.000 HD 
HETATM   30  C   UNL     1      -9.619  10.873  67.081  1.00  0.00    -0.165 C  
HETATM   31  H   UNL     1      -9.604  12.625  63.411  1.00  0.00     0.000 HD 
HETATM   32  O   UNL     1      -8.626  10.840  64.833  1.00  0.00    -0.168 OA 
BRANCH  23  33
HETATM   33  C   UNL     1     -12.469  13.844  65.702  1.00  0.00    -0.505 C  
HETATM   34  O   UNL     1     -13.132  12.913  64.834  1.00  0.00    -0.799 OA 
HETATM   35  H   UNL     1     -13.926  13.310  64.495  1.00  0.00     0.000 HD 
ENDBRANCH  23  33
ENDBRANCH  19  21
ENDBRANCH  13  14
ENDBRANCH  10  13
ENDBRANCH   6   7
ENDBRANCH   1   6
TORSDOF 6
ENDMDL
MODEL      107
REMARK 921   NORMALIZED FREE ENERGY PREDICTED BY IDOCK:   -6.24 KCAL/MOL
REMARK 922        TOTAL FREE ENERGY PREDICTED BY IDOCK:   -9.39 KCAL/MOL
REMARK 923 INTER-LIGAND FREE ENERGY PREDICTED BY IDOCK:   -8.54 KCAL/MOL
REMARK 924 INTRA-LIGAND FREE ENERGY PREDICTED BY IDOCK:   -0.85 KCAL/MOL
REMARK 927      BINDING AFFINITY PREDICTED BY RF-SCORE:    0.00 PKD
ROOT
HETATM    1  C   UNL     1      -9.855  14.699  66.403  1.00  0.00    -0.285 C  
HETATM    2  C   UNL     1     -10.433  16.032  65.964  1.00  0.00    -0.356 C  
HETATM    3  O   UNL     1     -10.640  15.946  68.300  1.00  0.00    -0.257 OA 
HETATM    4  C   UNL     1     -10.376  16.853  67.225  1.00  0.00    -0.309 C  
HETATM    5  C   UNL     1     -10.366  14.609  67.839  1.00  0.00    -0.237 C  
ENDROOT
BRANCH   1   6
HETATM    6  O   UNL     1     -10.381  13.695  65.542  1.00  0.00    -0.290 OA 
BRANCH   6   7
HETATM    7  C   UNL     1      -9.823  12.451  65.565  1.00  0.00    -0.200 A  
HETATM    8  C   UNL     1      -8.266  10.737  66.273  1.00  0.00    -0.162 A  
HETATM    9  C   UNL     1      -8.670  12.083  66.252  1.00  0.00    -0.027 A  
HETATM   10  C   UNL     1      -9.010   9.745  65.610  1.00  0.00    -0.199 A  
HETATM   11  C   UNL     1     -10.556  11.473  64.891  1.00  0.00    -0.360 A  
HETATM   12  C   UNL     1     -10.152  10.136  64.903  1.00  0.00    -0.277 A  
BRANCH  10  13
HETATM   13  C   UNL     1      -8.640   8.276  65.721  1.00  0.00    -0.182 C  
BRANCH  13  14
HETATM   14  C   UNL     1      -9.156   7.642  66.998  1.00  0.00    -0.157 A  
HETATM   15  C   UNL     1      -9.492   6.286  67.116  1.00  0.00    -0.124 A  
HETATM   16 CL   UNL     1      -9.236   5.153  65.839  1.00  0.00    -0.157 Cl 
HETATM   17  C   UNL     1     -10.093   5.806  68.285  1.00  0.00    -0.208 A  
HETATM   18  C   UNL     1     -10.436   6.685  69.315  1.00  0.00    -0.247 A  
HETATM   19  C   UNL     1     -10.160   8.053  69.204  1.00  0.00    -0.202 A  
HETATM   20  C   UNL     1      -9.441   8.495  68.081  1.00  0.00    -0.152 A  
BRANCH  19  21
HETATM   21  C   UNL     1     -10.815   9.043  70.157  1.00  0.00    -0.237 C  
HETATM   22  O   UNL     1     -12.073   8.487  70.587  1.00  0.00    -0.141 OA 
HETATM   23  C   UNL     1     -12.653   9.196  71.687  1.00  0.00    -0.360 C  
HETATM   24  H   UNL     1      -9.847  11.970  68.993  1.00  0.00     0.000 HD 
HETATM   25  C   UNL     1     -12.975  10.627  71.260  1.00  0.00    -0.414 C  
HETATM   26  O   UNL     1      -9.735  11.081  69.309  1.00  0.00    -0.139 OA 
HETATM   27  C   UNL     1     -11.698  11.313  70.751  1.00  0.00    -0.043 C  
HETATM   28  O   UNL     1     -13.524  11.404  72.330  1.00  0.00    -0.601 OA 
HETATM   29  H   UNL     1     -11.231  13.055  69.975  1.00  0.00     0.000 HD 
HETATM   30  C   UNL     1     -10.999  10.491  69.644  1.00  0.00    -0.283 C  
HETATM   31  H   UNL     1     -13.724  12.295  72.064  1.00  0.00     0.000 HD 
HETATM   32  O   UNL     1     -12.020  12.631  70.290  1.00  0.00    -0.348 OA 
BRANCH  23  33
HETATM   33  C   UNL     1     -13.909   8.434  72.124  1.00  0.00    -0.347 C  
HETATM   34  O   UNL     1     -14.285   8.856  73.443  1.00  0.00    -1.241 OA 
HETATM   35  H   UNL     1     -15.064   8.384  73.714  1.00  0.00     0.000 HD 
ENDBRANCH  23  33
ENDBRANCH  19  21
ENDBRANCH  13  14
ENDBRANCH  10  13
ENDBRANCH   6   7
ENDBRANCH   1   6
TORSDOF 6
ENDMDL
MODEL      108
REMARK 921   NORMALIZED FREE ENERGY PREDICTED BY IDOCK:   -6.22 KCAL/MOL
REMARK 922        TOTAL FREE ENERGY PREDICTED BY IDOCK:   -9.37 KCAL/MOL
REMARK 923 INTER-LIGAND FREE ENERGY PREDICTED BY IDOCK:   -7.96 KCAL/MOL
REMARK 924 INTRA-LIGAND FREE ENERGY PREDICTED BY IDOCK:   -1.40 KCAL/MOL
REMARK 927      BINDING AFFINITY PREDICTED BY RF-SCORE:    0.00 PKD
ROOT
HETATM    1  C   UNL     1     -10.699   6.740  72.223  1.00  0.00    -0.220 C  
HETATM    2  C   UNL     1     -10.278   7.462  73.490  1.00  0.00    -0.400 C  
HETATM    3  O   UNL     1     -10.895   5.290  74.127  1.00  0.00    -0.258 OA 
HETATM    4  C   UNL     1      -9.960   6.330  74.430  1.00  0.00    -0.332 C  
HETATM    5  C   UNL     1     -11.401   5.512  72.797  1.00  0.00    -0.303 C  
ENDROOT
BRANCH   1   6
HETATM    6  O   UNL     1     -11.563   7.608  71.497  1.00  0.00    -0.261 OA 
BRANCH   6   7
HETATM    7  C   UNL     1     -11.100   8.191  70.354  1.00  0.00    -0.239 A  
HETATM    8  C   UNL     1     -10.323   8.259  68.063  1.00  0.00    -0.268 A  
HETATM    9  C   UNL     1     -10.676   7.525  69.208  1.00  0.00    -0.185 A  
HETATM   10  C   UNL     1     -10.389   9.662  68.050  1.00  0.00    -0.262 A  
HETATM   11  C   UNL     1     -11.151   9.586  70.353  1.00  0.00    -0.330 A  
HETATM   12  C   UNL     1     -10.791  10.317  69.218  1.00  0.00    -0.275 A  
BRANCH  10  13
HETATM   13  C   UNL     1     -10.113  10.454  66.782  1.00  0.00    -0.267 C  
BRANCH  13  14
HETATM   14  C   UNL     1      -8.920  11.379  66.922  1.00  0.00    -0.171 A  
HETATM   15  C   UNL     1      -7.597  10.933  67.043  1.00  0.00    -0.122 A  
HETATM   16 CL   UNL     1      -7.165   9.265  66.923  1.00  0.00    -0.086 Cl 
HETATM   17  C   UNL     1      -6.566  11.841  67.309  1.00  0.00    -0.132 A  
HETATM   18  C   UNL     1      -6.854  13.190  67.533  1.00  0.00    -0.156 A  
HETATM   19  C   UNL     1      -8.173  13.655  67.470  1.00  0.00    -0.189 A  
HETATM   20  C   UNL     1      -9.175  12.754  67.075  1.00  0.00    -0.221 A  
BRANCH  19  21
HETATM   21  C   UNL     1      -8.524  15.028  68.027  1.00  0.00    -0.149 C  
HETATM   22  O   UNL     1      -9.847  14.957  68.594  1.00  0.00    -0.212 OA 
HETATM   23  C   UNL     1     -10.181  16.102  69.385  1.00  0.00    -0.266 C  
HETATM   24  H   UNL     1      -6.987  17.096  65.974  1.00  0.00     0.000 HD 
HETATM   25  C   UNL     1     -10.193  17.348  68.500  1.00  0.00    -0.369 C  
HETATM   26  O   UNL     1      -7.061  16.360  66.569  1.00  0.00    -0.193 OA 
HETATM   27  C   UNL     1      -8.827  17.508  67.815  1.00  0.00    -0.241 C  
HETATM   28  O   UNL     1     -10.483  18.539  69.240  1.00  0.00    -0.423 OA 
HETATM   29  H   UNL     1      -8.023  18.736  66.512  1.00  0.00     0.000 HD 
HETATM   30  C   UNL     1      -8.404  16.228  67.058  1.00  0.00    -0.205 C  
HETATM   31  H   UNL     1     -10.489  19.314  68.690  1.00  0.00     0.000 HD 
HETATM   32  O   UNL     1      -8.867  18.638  66.936  1.00  0.00    -0.271 OA 
BRANCH  23  33
HETATM   33  C   UNL     1     -11.548  15.846  70.027  1.00  0.00    -0.344 C  
HETATM   34  O   UNL     1     -11.626  16.547  71.276  1.00  0.00    -0.615 OA 
HETATM   35  H   UNL     1     -12.473  16.389  71.675  1.00  0.00     0.000 HD 
ENDBRANCH  23  33
ENDBRANCH  19  21
ENDBRANCH  13  14
ENDBRANCH  10  13
ENDBRANCH   6   7
ENDBRANCH   1   6
TORSDOF 6
ENDMDL
MODEL      109
REMARK 921   NORMALIZED FREE ENERGY PREDICTED BY IDOCK:   -6.20 KCAL/MOL
REMARK 922        TOTAL FREE ENERGY PREDICTED BY IDOCK:   -9.34 KCAL/MOL
REMARK 923 INTER-LIGAND FREE ENERGY PREDICTED BY IDOCK:   -8.37 KCAL/MOL
REMARK 924 INTRA-LIGAND FREE ENERGY PREDICTED BY IDOCK:   -0.96 KCAL/MOL
REMARK 927      BINDING AFFINITY PREDICTED BY RF-SCORE:    0.00 PKD
ROOT
HETATM    1  C   UNL     1     -11.303   8.332  71.622  1.00  0.00    -0.272 C  
HETATM    2  C   UNL     1     -10.829   8.056  73.038  1.00  0.00    -0.317 C  
HETATM    3  O   UNL     1     -11.979   6.138  72.327  1.00  0.00    -0.318 OA 
HETATM    4  C   UNL     1     -10.856   6.553  73.111  1.00  0.00    -0.257 C  
HETATM    5  C   UNL     1     -12.313   7.205  71.420  1.00  0.00    -0.377 C  
ENDROOT
BRANCH   1   6
HETATM    6  O   UNL     1     -11.883   9.632  71.607  1.00  0.00    -0.379 OA 
BRANCH   6   7
HETATM    7  C   UNL     1     -11.440  10.539  70.690  1.00  0.00    -0.327 A  
HETATM    8  C   UNL     1     -10.049  11.365  68.889  1.00  0.00    -0.166 A  
HETATM    9  C   UNL     1     -10.329  10.393  69.865  1.00  0.00    -0.231 A  
HETATM   10  C   UNL     1     -10.874  12.491  68.727  1.00  0.00    -0.276 A  
HETATM   11  C   UNL     1     -12.254  11.664  70.546  1.00  0.00    -0.451 A  
HETATM   12  C   UNL     1     -11.972  12.636  69.582  1.00  0.00    -0.352 A  
BRANCH  10  13
HETATM   13  C   UNL     1     -10.639  13.487  67.604  1.00  0.00    -0.246 C  
BRANCH  13  14
HETATM   14  C   UNL     1     -10.659  12.833  66.235  1.00  0.00    -0.275 A  
HETATM   15  C   UNL     1     -11.575  13.160  65.227  1.00  0.00    -0.321 A  
HETATM   16 CL   UNL     1     -12.719  14.443  65.393  1.00  0.00    -0.378 Cl 
HETATM   17  C   UNL     1     -11.619  12.417  64.042  1.00  0.00    -0.488 A  
HETATM   18  C   UNL     1     -10.803  11.293  63.884  1.00  0.00    -0.427 A  
HETATM   19  C   UNL     1      -9.914  10.912  64.896  1.00  0.00    -0.361 A  
HETATM   20  C   UNL     1      -9.793  11.744  66.020  1.00  0.00    -0.258 A  
BRANCH  19  21
HETATM   21  C   UNL     1      -9.276   9.529  64.868  1.00  0.00    -0.223 C  
HETATM   22  O   UNL     1      -9.699   8.816  66.046  1.00  0.00    -0.254 OA 
HETATM   23  C   UNL     1      -9.387   7.420  66.000  1.00  0.00     0.015 C  
HETATM   24  H   UNL     1      -6.377  10.062  63.394  1.00  0.00     0.000 HD 
HETATM   25  C   UNL     1      -7.871   7.238  65.947  1.00  0.00    -0.106 C  
HETATM   26  O   UNL     1      -7.322  10.097  63.490  1.00  0.00    -0.141 OA 
HETATM   27  C   UNL     1      -7.302   7.989  64.734  1.00  0.00    -0.082 C  
HETATM   28  O   UNL     1      -7.490   5.860  65.859  1.00  0.00    -0.081 OA 
HETATM   29  H   UNL     1      -5.524   8.335  63.979  1.00  0.00     0.000 HD 
HETATM   30  C   UNL     1      -7.738   9.473  64.713  1.00  0.00    -0.119 C  
HETATM   31  H   UNL     1      -6.547   5.747  65.826  1.00  0.00     0.000 HD 
HETATM   32  O   UNL     1      -5.875   7.870  64.729  1.00  0.00    -0.043 OA 
BRANCH  23  33
HETATM   33  C   UNL     1      -9.998   6.762  67.241  1.00  0.00    -0.157 C  
HETATM   34  O   UNL     1     -11.397   6.534  67.018  1.00  0.00    -0.703 OA 
HETATM   35  H   UNL     1     -11.776   6.125  67.787  1.00  0.00     0.000 HD 
ENDBRANCH  23  33
ENDBRANCH  19  21
ENDBRANCH  13  14
ENDBRANCH  10  13
ENDBRANCH   6   7
ENDBRANCH   1   6
TORSDOF 6
ENDMDL
MODEL      110
REMARK 921   NORMALIZED FREE ENERGY PREDICTED BY IDOCK:   -6.20 KCAL/MOL
REMARK 922        TOTAL FREE ENERGY PREDICTED BY IDOCK:   -9.33 KCAL/MOL
REMARK 923 INTER-LIGAND FREE ENERGY PREDICTED BY IDOCK:   -8.74 KCAL/MOL
REMARK 924 INTRA-LIGAND FREE ENERGY PREDICTED BY IDOCK:   -0.59 KCAL/MOL
REMARK 927      BINDING AFFINITY PREDICTED BY RF-SCORE:    0.00 PKD
ROOT
HETATM    1  C   UNL     1     -11.081  12.848  64.311  1.00  0.00    -0.378 C  
HETATM    2  C   UNL     1     -10.761  14.278  64.707  1.00  0.00    -0.435 C  
HETATM    3  O   UNL     1     -12.741  14.355  63.452  1.00  0.00    -0.689 OA 
HETATM    4  C   UNL     1     -12.091  14.969  64.568  1.00  0.00    -0.363 C  
HETATM    5  C   UNL     1     -12.138  13.065  63.232  1.00  0.00    -0.422 C  
ENDROOT
BRANCH   1   6
HETATM    6  O   UNL     1      -9.881  12.254  63.828  1.00  0.00    -0.310 OA 
BRANCH   6   7
HETATM    7  C   UNL     1      -9.414  11.126  64.436  1.00  0.00    -0.220 A  
HETATM    8  C   UNL     1      -8.610   8.846  64.550  1.00  0.00    -0.155 A  
HETATM    9  C   UNL     1      -9.195   9.896  63.823  1.00  0.00    -0.289 A  
HETATM   10  C   UNL     1      -8.236   9.012  65.894  1.00  0.00    -0.118 A  
HETATM   11  C   UNL     1      -9.060  11.293  65.775  1.00  0.00    -0.216 A  
HETATM   12  C   UNL     1      -8.486  10.247  66.503  1.00  0.00    -0.126 A  
BRANCH  10  13
HETATM   13  C   UNL     1      -7.504   7.917  66.651  1.00  0.00    -0.089 C  
BRANCH  13  14
HETATM   14  C   UNL     1      -8.327   7.349  67.791  1.00  0.00    -0.118 A  
HETATM   15  C   UNL     1      -8.734   6.010  67.868  1.00  0.00    -0.112 A  
HETATM   16 CL   UNL     1      -8.234   4.821  66.720  1.00  0.00    -0.107 Cl 
HETATM   17  C   UNL     1      -9.608   5.593  68.878  1.00  0.00    -0.168 A  
HETATM   18  C   UNL     1     -10.146   6.522  69.773  1.00  0.00    -0.207 A  
HETATM   19  C   UNL     1      -9.798   7.875  69.689  1.00  0.00    -0.179 A  
HETATM   20  C   UNL     1      -8.821   8.251  68.752  1.00  0.00    -0.137 A  
BRANCH  19  21
HETATM   21  C   UNL     1     -10.617   8.921  70.434  1.00  0.00    -0.217 C  
HETATM   22  O   UNL     1     -11.869   8.320  70.818  1.00  0.00    -0.264 OA 
HETATM   23  C   UNL     1     -12.608   9.112  71.753  1.00  0.00    -0.370 C  
HETATM   24  H   UNL     1      -9.749  11.744  68.973  1.00  0.00     0.000 HD 
HETATM   25  C   UNL     1     -12.987  10.444  71.106  1.00  0.00    -0.412 C  
HETATM   26  O   UNL     1      -9.606  10.916  69.416  1.00  0.00    -0.114 OA 
HETATM   27  C   UNL     1     -11.718  11.164  70.627  1.00  0.00    -0.207 C  
HETATM   28  O   UNL     1     -13.697  11.303  72.004  1.00  0.00    -0.274 OA 
HETATM   29  H   UNL     1     -11.301  12.824  69.665  1.00  0.00     0.000 HD 
HETATM   30  C   UNL     1     -10.852  10.269  69.712  1.00  0.00    -0.287 C  
HETATM   31  H   UNL     1     -13.933  12.132  71.602  1.00  0.00     0.000 HD 
HETATM   32  O   UNL     1     -12.085  12.379  69.962  1.00  0.00    -0.309 OA 
BRANCH  23  33
HETATM   33  C   UNL     1     -13.844   8.310  72.173  1.00  0.00    -0.296 C  
HETATM   34  O   UNL     1     -14.342   8.821  73.418  1.00  0.00    -1.155 OA 
HETATM   35  H   UNL     1     -15.109   8.324  73.679  1.00  0.00     0.000 HD 
ENDBRANCH  23  33
ENDBRANCH  19  21
ENDBRANCH  13  14
ENDBRANCH  10  13
ENDBRANCH   6   7
ENDBRANCH   1   6
TORSDOF 6
ENDMDL
MODEL      111
REMARK 921   NORMALIZED FREE ENERGY PREDICTED BY IDOCK:   -6.20 KCAL/MOL
REMARK 922        TOTAL FREE ENERGY PREDICTED BY IDOCK:   -9.33 KCAL/MOL
REMARK 923 INTER-LIGAND FREE ENERGY PREDICTED BY IDOCK:   -8.12 KCAL/MOL
REMARK 924 INTRA-LIGAND FREE ENERGY PREDICTED BY IDOCK:   -1.21 KCAL/MOL
REMARK 927      BINDING AFFINITY PREDICTED BY RF-SCORE:    0.00 PKD
ROOT
HETATM    1  C   UNL     1     -10.595   5.998  72.303  1.00  0.00    -0.216 C  
HETATM    2  C   UNL     1     -10.392   7.039  73.388  1.00  0.00    -0.370 C  
HETATM    3  O   UNL     1     -10.652   4.977  74.476  1.00  0.00    -0.320 OA 
HETATM    4  C   UNL     1      -9.938   6.214  74.562  1.00  0.00    -0.330 C  
HETATM    5  C   UNL     1     -11.103   4.811  73.118  1.00  0.00    -0.310 C  
ENDROOT
BRANCH   1   6
HETATM    6  O   UNL     1     -11.552   6.514  71.383  1.00  0.00    -0.292 OA 
BRANCH   6   7
HETATM    7  C   UNL     1     -11.128   6.911  70.149  1.00  0.00    -0.299 A  
HETATM    8  C   UNL     1     -10.657   6.668  67.787  1.00  0.00    -0.311 A  
HETATM    9  C   UNL     1     -11.005   6.100  69.025  1.00  0.00    -0.436 A  
HETATM   10  C   UNL     1     -10.429   8.049  67.659  1.00  0.00    -0.301 A  
HETATM   11  C   UNL     1     -10.887   8.281  70.031  1.00  0.00    -0.232 A  
HETATM   12  C   UNL     1     -10.532   8.846  68.804  1.00  0.00    -0.223 A  
BRANCH  10  13
HETATM   13  C   UNL     1     -10.161   8.682  66.304  1.00  0.00    -0.215 C  
BRANCH  13  14
HETATM   14  C   UNL     1      -9.257   9.896  66.399  1.00  0.00    -0.195 A  
HETATM   15  C   UNL     1      -7.894   9.831  66.720  1.00  0.00    -0.102 A  
HETATM   16 CL   UNL     1      -7.060   8.333  66.925  1.00  0.00    -0.077 Cl 
HETATM   17  C   UNL     1      -7.159  11.004  66.925  1.00  0.00    -0.125 A  
HETATM   18  C   UNL     1      -7.793  12.249  66.890  1.00  0.00    -0.045 A  
HETATM   19  C   UNL     1      -9.163  12.342  66.622  1.00  0.00    -0.208 A  
HETATM   20  C   UNL     1      -9.855  11.165  66.292  1.00  0.00    -0.253 A  
BRANCH  19  21
HETATM   21  C   UNL     1      -9.909  13.640  66.903  1.00  0.00    -0.261 C  
HETATM   22  O   UNL     1      -8.986  14.733  66.730  1.00  0.00    -0.244 OA 
HETATM   23  C   UNL     1      -9.630  16.011  66.701  1.00  0.00    -0.239 C  
HETATM   24  H   UNL     1     -12.078  12.780  69.230  1.00  0.00     0.000 HD 
HETATM   25  C   UNL     1     -10.309  16.272  68.045  1.00  0.00    -0.279 C  
HETATM   26  O   UNL     1     -11.629  12.715  68.395  1.00  0.00    -0.283 OA 
HETATM   27  C   UNL     1     -11.302  15.140  68.350  1.00  0.00    -0.315 C  
HETATM   28  O   UNL     1     -11.007  17.521  68.070  1.00  0.00    -0.328 OA 
HETATM   29  H   UNL     1     -12.498  14.656  69.829  1.00  0.00     0.000 HD 
HETATM   30  C   UNL     1     -10.639  13.746  68.263  1.00  0.00    -0.255 C  
HETATM   31  H   UNL     1     -11.429  17.683  68.906  1.00  0.00     0.000 HD 
HETATM   32  O   UNL     1     -11.884  15.356  69.641  1.00  0.00    -0.308 OA 
BRANCH  23  33
HETATM   33  C   UNL     1      -8.564  17.066  66.386  1.00  0.00    -0.276 C  
HETATM   34  O   UNL     1      -9.177  18.176  65.714  1.00  0.00    -0.469 OA 
HETATM   35  H   UNL     1      -8.517  18.830  65.519  1.00  0.00     0.000 HD 
ENDBRANCH  23  33
ENDBRANCH  19  21
ENDBRANCH  13  14
ENDBRANCH  10  13
ENDBRANCH   6   7
ENDBRANCH   1   6
TORSDOF 6
ENDMDL
MODEL      112
REMARK 921   NORMALIZED FREE ENERGY PREDICTED BY IDOCK:   -6.19 KCAL/MOL
REMARK 922        TOTAL FREE ENERGY PREDICTED BY IDOCK:   -9.33 KCAL/MOL
REMARK 923 INTER-LIGAND FREE ENERGY PREDICTED BY IDOCK:   -8.18 KCAL/MOL
REMARK 924 INTRA-LIGAND FREE ENERGY PREDICTED BY IDOCK:   -1.14 KCAL/MOL
REMARK 927      BINDING AFFINITY PREDICTED BY RF-SCORE:    0.00 PKD
ROOT
HETATM    1  C   UNL     1      -8.208  18.029  67.481  1.00  0.00    -0.235 C  
HETATM    2  C   UNL     1      -7.835  18.901  66.297  1.00  0.00    -0.299 C  
HETATM    3  O   UNL     1      -6.400  19.503  68.053  1.00  0.00    -0.212 OA 
HETATM    4  C   UNL     1      -6.434  19.339  66.632  1.00  0.00    -0.187 C  
HETATM    5  C   UNL     1      -7.486  18.745  68.620  1.00  0.00    -0.313 C  
ENDROOT
BRANCH   1   6
HETATM    6  O   UNL     1      -9.626  18.045  67.600  1.00  0.00    -0.264 OA 
BRANCH   6   7
HETATM    7  C   UNL     1     -10.335  16.963  67.168  1.00  0.00    -0.304 A  
HETATM    8  C   UNL     1     -11.064  15.287  65.581  1.00  0.00    -0.308 A  
HETATM    9  C   UNL     1     -10.374  16.477  65.864  1.00  0.00    -0.365 A  
HETATM   10  C   UNL     1     -11.721  14.569  66.595  1.00  0.00    -0.384 A  
HETATM   11  C   UNL     1     -10.999  16.263  68.177  1.00  0.00    -0.343 A  
HETATM   12  C   UNL     1     -11.694  15.084  67.896  1.00  0.00    -0.310 A  
BRANCH  10  13
HETATM   13  C   UNL     1     -12.375  13.226  66.315  1.00  0.00    -0.382 C  
BRANCH  13  14
HETATM   14  C   UNL     1     -11.366  12.153  65.955  1.00  0.00    -0.407 A  
HETATM   15  C   UNL     1     -11.112  11.728  64.644  1.00  0.00    -0.303 A  
HETATM   16 CL   UNL     1     -11.843  12.475  63.269  1.00  0.00    -0.542 Cl 
HETATM   17  C   UNL     1     -10.269  10.637  64.404  1.00  0.00    -0.400 A  
HETATM   18  C   UNL     1      -9.733   9.912  65.471  1.00  0.00    -0.370 A  
HETATM   19  C   UNL     1     -10.010  10.281  66.793  1.00  0.00    -0.261 A  
HETATM   20  C   UNL     1     -10.752  11.454  67.011  1.00  0.00    -0.304 A  
BRANCH  19  21
HETATM   21  C   UNL     1      -9.706   9.318  67.933  1.00  0.00    -0.153 C  
HETATM   22  O   UNL     1      -8.497   9.758  68.581  1.00  0.00    -0.111 OA 
HETATM   23  C   UNL     1      -8.257   9.097  69.828  1.00  0.00    -0.128 C  
HETATM   24  H   UNL     1     -10.815   6.429  66.801  1.00  0.00     0.000 HD 
HETATM   25  C   UNL     1      -8.058   7.602  69.583  1.00  0.00    -0.126 C  
HETATM   26  O   UNL     1     -10.865   7.352  67.020  1.00  0.00    -0.354 OA 
HETATM   27  C   UNL     1      -9.287   7.028  68.862  1.00  0.00    -0.139 C  
HETATM   28  O   UNL     1      -7.851   6.874  70.798  1.00  0.00    -0.094 OA 
HETATM   29  H   UNL     1      -9.824   5.288  68.131  1.00  0.00     0.000 HD 
HETATM   30  C   UNL     1      -9.625   7.815  67.575  1.00  0.00    -0.148 C  
HETATM   31  H   UNL     1      -7.727   5.944  70.646  1.00  0.00     0.000 HD 
HETATM   32  O   UNL     1      -9.064   5.642  68.577  1.00  0.00    -0.114 OA 
BRANCH  23  33
HETATM   33  C   UNL     1      -7.022   9.740  70.468  1.00  0.00    -0.126 C  
HETATM   34  O   UNL     1      -6.737   9.085  71.713  1.00  0.00    -0.196 OA 
HETATM   35  H   UNL     1      -5.972   9.483  72.110  1.00  0.00     0.000 HD 
ENDBRANCH  23  33
ENDBRANCH  19  21
ENDBRANCH  13  14
ENDBRANCH  10  13
ENDBRANCH   6   7
ENDBRANCH   1   6
TORSDOF 6
ENDMDL
MODEL      113
REMARK 921   NORMALIZED FREE ENERGY PREDICTED BY IDOCK:   -6.19 KCAL/MOL
REMARK 922        TOTAL FREE ENERGY PREDICTED BY IDOCK:   -9.32 KCAL/MOL
REMARK 923 INTER-LIGAND FREE ENERGY PREDICTED BY IDOCK:   -8.21 KCAL/MOL
REMARK 924 INTRA-LIGAND FREE ENERGY PREDICTED BY IDOCK:   -1.12 KCAL/MOL
REMARK 927      BINDING AFFINITY PREDICTED BY RF-SCORE:    0.00 PKD
ROOT
HETATM    1  C   UNL     1      -8.454   4.865  65.939  1.00  0.00    -0.119 C  
HETATM    2  C   UNL     1      -8.006   3.428  65.744  1.00  0.00    -0.092 C  
HETATM    3  O   UNL     1      -9.550   3.417  67.510  1.00  0.00    -0.208 OA 
HETATM    4  C   UNL     1      -9.115   2.641  66.389  1.00  0.00    -0.112 C  
HETATM    5  C   UNL     1      -9.142   4.782  67.299  1.00  0.00    -0.119 C  
ENDROOT
BRANCH   1   6
HETATM    6  O   UNL     1      -7.291   5.685  65.933  1.00  0.00    -0.071 OA 
BRANCH   6   7
HETATM    7  C   UNL     1      -7.362   6.931  66.482  1.00  0.00    -0.073 A  
HETATM    8  C   UNL     1      -8.248   9.162  66.799  1.00  0.00    -0.119 A  
HETATM    9  C   UNL     1      -8.204   7.960  66.072  1.00  0.00    -0.122 A  
HETATM   10  C   UNL     1      -7.452   9.348  67.943  1.00  0.00    -0.084 A  
HETATM   11  C   UNL     1      -6.557   7.116  67.607  1.00  0.00    -0.056 A  
HETATM   12  C   UNL     1      -6.592   8.314  68.327  1.00  0.00    -0.060 A  
BRANCH  10  13
HETATM   13  C   UNL     1      -7.575  10.601  68.794  1.00  0.00    -0.109 C  
BRANCH  13  14
HETATM   14  C   UNL     1      -9.011  11.066  68.938  1.00  0.00    -0.123 A  
HETATM   15  C   UNL     1     -10.027  10.296  69.520  1.00  0.00    -0.228 A  
HETATM   16 CL   UNL     1      -9.723   8.763  70.254  1.00  0.00    -0.185 Cl 
HETATM   17  C   UNL     1     -11.354  10.737  69.490  1.00  0.00    -0.355 A  
HETATM   18  C   UNL     1     -11.693  11.911  68.813  1.00  0.00    -0.379 A  
HETATM   19  C   UNL     1     -10.706  12.675  68.178  1.00  0.00    -0.242 A  
HETATM   20  C   UNL     1      -9.366  12.284  68.329  1.00  0.00    -0.199 A  
BRANCH  19  21
HETATM   21  C   UNL     1     -11.103  13.754  67.179  1.00  0.00    -0.302 C  
HETATM   22  O   UNL     1     -11.181  13.150  65.873  1.00  0.00    -0.284 OA 
HETATM   23  C   UNL     1     -11.804  13.995  64.900  1.00  0.00    -0.393 C  
HETATM   24  H   UNL     1      -9.694  16.471  68.399  1.00  0.00     0.000 HD 
HETATM   25  C   UNL     1     -10.964  15.257  64.707  1.00  0.00    -0.386 C  
HETATM   26  O   UNL     1     -10.230  15.688  68.420  1.00  0.00    -0.217 OA 
HETATM   27  C   UNL     1     -10.789  15.973  66.055  1.00  0.00    -0.190 C  
HETATM   28  O   UNL     1     -11.554  16.166  63.772  1.00  0.00    -1.390 OA 
HETATM   29  H   UNL     1      -9.837  17.559  66.711  1.00  0.00     0.000 HD 
HETATM   30  C   UNL     1     -10.229  15.030  67.145  1.00  0.00    -0.249 C  
HETATM   31  H   UNL     1     -11.031  16.951  63.651  1.00  0.00     0.000 HD 
HETATM   32  O   UNL     1      -9.945  17.117  65.878  1.00  0.00    -0.478 OA 
BRANCH  23  33
HETATM   33  C   UNL     1     -11.939  13.194  63.601  1.00  0.00    -0.514 C  
HETATM   34  O   UNL     1     -13.146  12.420  63.643  1.00  0.00    -0.748 OA 
HETATM   35  H   UNL     1     -13.230  11.923  62.838  1.00  0.00     0.000 HD 
ENDBRANCH  23  33
ENDBRANCH  19  21
ENDBRANCH  13  14
ENDBRANCH  10  13
ENDBRANCH   6   7
ENDBRANCH   1   6
TORSDOF 6
ENDMDL
MODEL      114
REMARK 921   NORMALIZED FREE ENERGY PREDICTED BY IDOCK:   -6.17 KCAL/MOL
REMARK 922        TOTAL FREE ENERGY PREDICTED BY IDOCK:   -9.29 KCAL/MOL
REMARK 923 INTER-LIGAND FREE ENERGY PREDICTED BY IDOCK:   -7.89 KCAL/MOL
REMARK 924 INTRA-LIGAND FREE ENERGY PREDICTED BY IDOCK:   -1.40 KCAL/MOL
REMARK 927      BINDING AFFINITY PREDICTED BY RF-SCORE:    0.00 PKD
ROOT
HETATM    1  C   UNL     1      -7.794   6.982  67.136  1.00  0.00    -0.109 C  
HETATM    2  C   UNL     1      -6.486   6.222  67.015  1.00  0.00    -0.050 C  
HETATM    3  O   UNL     1      -7.799   5.055  68.570  1.00  0.00    -0.081 OA 
HETATM    4  C   UNL     1      -6.847   4.852  67.522  1.00  0.00    -0.060 C  
HETATM    5  C   UNL     1      -8.386   6.359  68.398  1.00  0.00    -0.116 C  
ENDROOT
BRANCH   1   6
HETATM    6  O   UNL     1      -7.481   8.364  67.271  1.00  0.00    -0.090 OA 
BRANCH   6   7
HETATM    7  C   UNL     1      -8.484   9.280  67.151  1.00  0.00    -0.124 A  
HETATM    8  C   UNL     1     -10.400  10.340  66.118  1.00  0.00    -0.253 A  
HETATM    9  C   UNL     1      -9.339   9.420  66.062  1.00  0.00    -0.279 A  
HETATM   10  C   UNL     1     -10.617  11.130  67.261  1.00  0.00    -0.279 A  
HETATM   11  C   UNL     1      -8.684  10.073  68.282  1.00  0.00    -0.119 A  
HETATM   12  C   UNL     1      -9.733  10.996  68.336  1.00  0.00    -0.181 A  
BRANCH  10  13
HETATM   13  C   UNL     1     -11.825  12.046  67.369  1.00  0.00    -0.268 C  
BRANCH  13  14
HETATM   14  C   UNL     1     -11.625  13.359  66.637  1.00  0.00    -0.399 A  
HETATM   15  C   UNL     1     -11.844  13.529  65.264  1.00  0.00    -0.352 A  
HETATM   16 CL   UNL     1     -12.488  12.275  64.266  1.00  0.00    -0.531 Cl 
HETATM   17  C   UNL     1     -11.504  14.732  64.636  1.00  0.00    -0.381 A  
HETATM   18  C   UNL     1     -10.872  15.749  65.356  1.00  0.00    -0.376 A  
HETATM   19  C   UNL     1     -10.594  15.589  66.719  1.00  0.00    -0.307 A  
HETATM   20  C   UNL     1     -11.058  14.427  67.358  1.00  0.00    -0.317 A  
BRANCH  19  21
HETATM   21  C   UNL     1      -9.629  16.538  67.417  1.00  0.00    -0.238 C  
HETATM   22  O   UNL     1     -10.167  17.872  67.325  1.00  0.00    -0.329 OA 
HETATM   23  C   UNL     1      -9.492  18.808  68.172  1.00  0.00    -0.326 C  
HETATM   24  H   UNL     1      -6.682  15.180  66.844  1.00  0.00     0.000 HD 
HETATM   25  C   UNL     1      -8.034  18.935  67.734  1.00  0.00    -0.251 C  
HETATM   26  O   UNL     1      -7.587  15.200  67.131  1.00  0.00    -0.205 OA 
HETATM   27  C   UNL     1      -7.363  17.554  67.764  1.00  0.00    -0.186 C  
HETATM   28  O   UNL     1      -7.290  19.831  68.567  1.00  0.00    -0.317 OA 
HETATM   29  H   UNL     1      -5.603  16.816  67.306  1.00  0.00     0.000 HD 
HETATM   30  C   UNL     1      -8.155  16.506  66.948  1.00  0.00    -0.218 C  
HETATM   31  H   UNL     1      -6.383  19.910  68.294  1.00  0.00     0.000 HD 
HETATM   32  O   UNL     1      -6.017  17.670  67.287  1.00  0.00    -0.130 OA 
BRANCH  23  33
HETATM   33  C   UNL     1     -10.236  20.145  68.078  1.00  0.00    -0.353 C  
HETATM   34  O   UNL     1      -9.724  20.896  66.968  1.00  0.00    -0.664 OA 
HETATM   35  H   UNL     1     -10.185  21.725  66.909  1.00  0.00     0.000 HD 
ENDBRANCH  23  33
ENDBRANCH  19  21
ENDBRANCH  13  14
ENDBRANCH  10  13
ENDBRANCH   6   7
ENDBRANCH   1   6
TORSDOF 6
ENDMDL
MODEL      115
REMARK 921   NORMALIZED FREE ENERGY PREDICTED BY IDOCK:   -6.16 KCAL/MOL
REMARK 922        TOTAL FREE ENERGY PREDICTED BY IDOCK:   -9.29 KCAL/MOL
REMARK 923 INTER-LIGAND FREE ENERGY PREDICTED BY IDOCK:   -8.18 KCAL/MOL
REMARK 924 INTRA-LIGAND FREE ENERGY PREDICTED BY IDOCK:   -1.11 KCAL/MOL
REMARK 927      BINDING AFFINITY PREDICTED BY RF-SCORE:    0.00 PKD
ROOT
HETATM    1  C   UNL     1      -9.956  17.954  67.375  1.00  0.00    -0.325 C  
HETATM    2  C   UNL     1     -10.424  18.390  65.998  1.00  0.00    -0.400 C  
HETATM    3  O   UNL     1     -10.332  20.325  67.321  1.00  0.00    -0.387 OA 
HETATM    4  C   UNL     1     -10.105  19.861  65.987  1.00  0.00    -0.487 C  
HETATM    5  C   UNL     1     -10.283  19.191  68.208  1.00  0.00    -0.401 C  
ENDROOT
BRANCH   1   6
HETATM    6  O   UNL     1     -10.706  16.801  67.741  1.00  0.00    -0.337 OA 
BRANCH   6   7
HETATM    7  C   UNL     1     -10.122  15.574  67.630  1.00  0.00    -0.243 A  
HETATM    8  C   UNL     1     -10.017  13.212  67.108  1.00  0.00    -0.236 A  
HETATM    9  C   UNL     1     -10.765  14.388  67.290  1.00  0.00    -0.285 A  
HETATM   10  C   UNL     1      -8.620  13.209  67.263  1.00  0.00    -0.210 A  
HETATM   11  C   UNL     1      -8.737  15.573  67.802  1.00  0.00    -0.170 A  
HETATM   12  C   UNL     1      -7.992  14.404  67.630  1.00  0.00    -0.191 A  
BRANCH  10  13
HETATM   13  C   UNL     1      -7.795  11.969  66.961  1.00  0.00    -0.138 C  
BRANCH  13  14
HETATM   14  C   UNL     1      -8.616  10.695  67.028  1.00  0.00    -0.128 A  
HETATM   15  C   UNL     1      -9.436  10.239  65.987  1.00  0.00    -0.185 A  
HETATM   16 CL   UNL     1      -9.506  11.024  64.451  1.00  0.00    -0.260 Cl 
HETATM   17  C   UNL     1     -10.269   9.131  66.176  1.00  0.00    -0.189 A  
HETATM   18  C   UNL     1     -10.351   8.516  67.428  1.00  0.00    -0.356 A  
HETATM   19  C   UNL     1      -9.583   8.982  68.502  1.00  0.00    -0.161 A  
HETATM   20  C   UNL     1      -8.659  10.011  68.257  1.00  0.00    -0.115 A  
BRANCH  19  21
HETATM   21  C   UNL     1      -9.907   8.536  69.921  1.00  0.00    -0.186 C  
HETATM   22  O   UNL     1      -9.893   7.096  69.954  1.00  0.00    -0.173 OA 
HETATM   23  C   UNL     1      -9.916   6.564  71.282  1.00  0.00    -0.181 C  
HETATM   24  H   UNL     1     -11.982  10.862  70.990  1.00  0.00     0.000 HD 
HETATM   25  C   UNL     1     -11.219   6.966  71.971  1.00  0.00    -0.257 C  
HETATM   26  O   UNL     1     -11.182  10.522  70.606  1.00  0.00    -0.316 OA 
HETATM   27  C   UNL     1     -11.355   8.496  71.967  1.00  0.00    -0.355 C  
HETATM   28  O   UNL     1     -11.289   6.497  73.322  1.00  0.00    -0.473 OA 
HETATM   29  H   UNL     1     -12.693   9.808  72.551  1.00  0.00     0.000 HD 
HETATM   30  C   UNL     1     -11.209   9.089  70.547  1.00  0.00    -0.260 C  
HETATM   31  H   UNL     1     -12.100   6.747  73.750  1.00  0.00     0.000 HD 
HETATM   32  O   UNL     1     -12.610   8.862  72.554  1.00  0.00    -0.375 OA 
BRANCH  23  33
HETATM   33  C   UNL     1      -9.770   5.042  71.181  1.00  0.00    -0.178 C  
HETATM   34  O   UNL     1      -9.951   4.637  69.816  1.00  0.00    -0.217 OA 
HETATM   35  H   UNL     1      -9.860   3.694  69.752  1.00  0.00     0.000 HD 
ENDBRANCH  23  33
ENDBRANCH  19  21
ENDBRANCH  13  14
ENDBRANCH  10  13
ENDBRANCH   6   7
ENDBRANCH   1   6
TORSDOF 6
ENDMDL
MODEL      116
REMARK 921   NORMALIZED FREE ENERGY PREDICTED BY IDOCK:   -6.13 KCAL/MOL
REMARK 922        TOTAL FREE ENERGY PREDICTED BY IDOCK:   -9.25 KCAL/MOL
REMARK 923 INTER-LIGAND FREE ENERGY PREDICTED BY IDOCK:   -8.57 KCAL/MOL
REMARK 924 INTRA-LIGAND FREE ENERGY PREDICTED BY IDOCK:   -0.68 KCAL/MOL
REMARK 927      BINDING AFFINITY PREDICTED BY RF-SCORE:    0.00 PKD
ROOT
HETATM    1  C   UNL     1      -7.558   7.963  63.039  1.00  0.00    -0.126 C  
HETATM    2  C   UNL     1      -6.066   7.759  62.854  1.00  0.00    -0.067 C  
HETATM    3  O   UNL     1      -6.936   5.713  63.601  1.00  0.00    -0.046 OA 
HETATM    4  C   UNL     1      -5.945   6.264  62.728  1.00  0.00    -0.026 C  
HETATM    5  C   UNL     1      -7.932   6.724  63.848  1.00  0.00    -0.069 C  
ENDROOT
BRANCH   1   6
HETATM    6  O   UNL     1      -7.744   9.186  63.743  1.00  0.00    -0.110 OA 
BRANCH   6   7
HETATM    7  C   UNL     1      -8.139   9.140  65.048  1.00  0.00    -0.130 A  
HETATM    8  C   UNL     1      -7.844   9.155  67.450  1.00  0.00    -0.099 A  
HETATM    9  C   UNL     1      -7.299   9.092  66.156  1.00  0.00    -0.091 A  
HETATM   10  C   UNL     1      -9.230   9.266  67.650  1.00  0.00    -0.139 A  
HETATM   11  C   UNL     1      -9.518   9.234  65.240  1.00  0.00    -0.234 A  
HETATM   12  C   UNL     1     -10.062   9.287  66.526  1.00  0.00    -0.343 A  
BRANCH  10  13
HETATM   13  C   UNL     1      -9.815   9.445  69.042  1.00  0.00    -0.171 C  
BRANCH  13  14
HETATM   14  C   UNL     1     -10.450  10.809  69.234  1.00  0.00    -0.243 A  
HETATM   15  C   UNL     1     -11.422  11.088  70.204  1.00  0.00    -0.296 A  
HETATM   16 CL   UNL     1     -11.919   9.925  71.379  1.00  0.00    -0.471 Cl 
HETATM   17  C   UNL     1     -12.060  12.333  70.228  1.00  0.00    -0.376 A  
HETATM   18  C   UNL     1     -11.793  13.282  69.238  1.00  0.00    -0.383 A  
HETATM   19  C   UNL     1     -10.864  13.012  68.226  1.00  0.00    -0.267 A  
HETATM   20  C   UNL     1     -10.141  11.810  68.294  1.00  0.00    -0.199 A  
BRANCH  19  21
HETATM   21  C   UNL     1     -10.814  13.892  66.984  1.00  0.00    -0.285 C  
HETATM   22  O   UNL     1     -10.686  15.262  67.410  1.00  0.00    -0.280 OA 
HETATM   23  C   UNL     1     -10.358  16.154  66.339  1.00  0.00    -0.315 C  
HETATM   24  H   UNL     1     -12.747  12.296  64.846  1.00  0.00     0.000 HD 
HETATM   25  C   UNL     1     -11.490  16.159  65.313  1.00  0.00     0.206 C  
HETATM   26  O   UNL     1     -12.037  12.392  65.469  1.00  0.00    -0.495 OA 
HETATM   27  C   UNL     1     -11.736  14.730  64.809  1.00  0.00    -0.422 C  
HETATM   28  O   UNL     1     -11.207  17.005  64.193  1.00  0.00    -1.286 OA 
HETATM   29  H   UNL     1     -12.994  13.848  63.587  1.00  0.00     0.000 HD 
HETATM   30  C   UNL     1     -11.971  13.736  65.969  1.00  0.00    -0.414 C  
HETATM   31  H   UNL     1     -11.911  17.008  63.555  1.00  0.00     0.000 HD 
HETATM   32  O   UNL     1     -12.842  14.732  63.898  1.00  0.00    -0.694 OA 
BRANCH  23  33
HETATM   33  C   UNL     1     -10.127  17.544  66.942  1.00  0.00    -0.324 C  
HETATM   34  O   UNL     1     -10.654  17.578  68.276  1.00  0.00    -0.372 OA 
HETATM   35  H   UNL     1     -10.511  18.439  68.650  1.00  0.00     0.000 HD 
ENDBRANCH  23  33
ENDBRANCH  19  21
ENDBRANCH  13  14
ENDBRANCH  10  13
ENDBRANCH   6   7
ENDBRANCH   1   6
TORSDOF 6
ENDMDL
MODEL      117
REMARK 921   NORMALIZED FREE ENERGY PREDICTED BY IDOCK:   -6.11 KCAL/MOL
REMARK 922        TOTAL FREE ENERGY PREDICTED BY IDOCK:   -9.22 KCAL/MOL
REMARK 923 INTER-LIGAND FREE ENERGY PREDICTED BY IDOCK:   -8.22 KCAL/MOL
REMARK 924 INTRA-LIGAND FREE ENERGY PREDICTED BY IDOCK:   -1.01 KCAL/MOL
REMARK 927      BINDING AFFINITY PREDICTED BY RF-SCORE:    0.00 PKD
ROOT
HETATM    1  C   UNL     1     -10.946  12.850  64.808  1.00  0.00    -0.318 C  
HETATM    2  C   UNL     1     -10.806  14.359  64.895  1.00  0.00    -0.430 C  
HETATM    3  O   UNL     1     -12.499  13.930  63.328  1.00  0.00    -0.817 OA 
HETATM    4  C   UNL     1     -12.125  14.849  64.359  1.00  0.00    -0.401 C  
HETATM    5  C   UNL     1     -11.780  12.700  63.539  1.00  0.00    -0.531 C  
ENDROOT
BRANCH   1   6
HETATM    6  O   UNL     1      -9.637  12.300  64.704  1.00  0.00    -0.055 OA 
BRANCH   6   7
HETATM    7  C   UNL     1      -9.338  11.175  65.414  1.00  0.00    -0.219 A  
HETATM    8  C   UNL     1      -9.305   8.801  65.888  1.00  0.00    -0.284 A  
HETATM    9  C   UNL     1      -9.779   9.886  65.130  1.00  0.00    -0.376 A  
HETATM   10  C   UNL     1      -8.388   8.992  66.936  1.00  0.00    -0.119 A  
HETATM   11  C   UNL     1      -8.441  11.373  66.464  1.00  0.00    -0.170 A  
HETATM   12  C   UNL     1      -7.976  10.297  67.225  1.00  0.00    -0.107 A  
BRANCH  10  13
HETATM   13  C   UNL     1      -7.790   7.814  67.686  1.00  0.00    -0.123 C  
BRANCH  13  14
HETATM   14  C   UNL     1      -8.793   7.140  68.603  1.00  0.00    -0.126 A  
HETATM   15  C   UNL     1      -9.005   5.755  68.645  1.00  0.00    -0.112 A  
HETATM   16 CL   UNL     1      -8.050   4.643  67.732  1.00  0.00    -0.096 Cl 
HETATM   17  C   UNL     1     -10.043   5.222  69.415  1.00  0.00    -0.311 A  
HETATM   18  C   UNL     1     -10.928   6.067  70.089  1.00  0.00    -0.429 A  
HETATM   19  C   UNL     1     -10.773   7.457  70.024  1.00  0.00    -0.258 A  
HETATM   20  C   UNL     1      -9.650   7.967  69.352  1.00  0.00    -0.160 A  
BRANCH  19  21
HETATM   21  C   UNL     1     -11.904   8.373  70.473  1.00  0.00    -0.001 C  
HETATM   22  O   UNL     1     -11.437   9.734  70.396  1.00  0.00    -0.257 OA 
HETATM   23  C   UNL     1     -12.488  10.696  70.532  1.00  0.00    -0.358 C  
HETATM   24  H   UNL     1     -13.468   6.582  72.754  1.00  0.00     0.000 HD 
HETATM   25  C   UNL     1     -13.120  10.570  71.917  1.00  0.00    -0.462 C  
HETATM   26  O   UNL     1     -13.084   6.760  71.904  1.00  0.00    -0.308 OA 
HETATM   27  C   UNL     1     -13.630   9.135  72.123  1.00  0.00    -0.474 C  
HETATM   28  O   UNL     1     -14.207  11.481  72.105  1.00  0.00     0.274 OA 
HETATM   29  H   UNL     1     -14.476   8.120  73.574  1.00  0.00     0.000 HD 
HETATM   30  C   UNL     1     -12.529   8.083  71.858  1.00  0.00    -0.330 C  
HETATM   31  H   UNL     1     -14.601  11.402  72.967  1.00  0.00     0.000 HD 
HETATM   32  O   UNL     1     -14.160   9.007  73.447  1.00  0.00    -0.160 OA 
BRANCH  23  33
HETATM   33  C   UNL     1     -11.883  12.086  70.305  1.00  0.00    -0.270 C  
HETATM   34  O   UNL     1     -10.803  11.986  69.366  1.00  0.00    -0.429 OA 
HETATM   35  H   UNL     1     -10.428  12.848  69.225  1.00  0.00     0.000 HD 
ENDBRANCH  23  33
ENDBRANCH  19  21
ENDBRANCH  13  14
ENDBRANCH  10  13
ENDBRANCH   6   7
ENDBRANCH   1   6
TORSDOF 6
ENDMDL
MODEL      118
REMARK 921   NORMALIZED FREE ENERGY PREDICTED BY IDOCK:   -6.09 KCAL/MOL
REMARK 922        TOTAL FREE ENERGY PREDICTED BY IDOCK:   -9.19 KCAL/MOL
REMARK 923 INTER-LIGAND FREE ENERGY PREDICTED BY IDOCK:   -8.69 KCAL/MOL
REMARK 924 INTRA-LIGAND FREE ENERGY PREDICTED BY IDOCK:   -0.50 KCAL/MOL
REMARK 927      BINDING AFFINITY PREDICTED BY RF-SCORE:    0.00 PKD
ROOT
HETATM    1  C   UNL     1     -12.650   9.939  70.930  1.00  0.00    -0.302 C  
HETATM    2  C   UNL     1     -11.412   9.456  71.662  1.00  0.00    -0.463 C  
HETATM    3  O   UNL     1     -13.152   7.996  72.249  1.00  0.00    -0.237 OA 
HETATM    4  C   UNL     1     -11.748   8.023  71.978  1.00  0.00    -0.323 C  
HETATM    5  C   UNL     1     -13.748   9.165  71.655  1.00  0.00    -0.373 C  
ENDROOT
BRANCH   1   6
HETATM    6  O   UNL     1     -12.732  11.349  71.103  1.00  0.00    -0.392 OA 
BRANCH   6   7
HETATM    7  C   UNL     1     -12.239  12.161  70.124  1.00  0.00    -0.231 A  
HETATM    8  C   UNL     1     -11.187  14.143  69.215  1.00  0.00    -0.308 A  
HETATM    9  C   UNL     1     -11.767  13.459  70.297  1.00  0.00    -0.231 A  
HETATM   10  C   UNL     1     -11.073  13.539  67.950  1.00  0.00    -0.288 A  
HETATM   11  C   UNL     1     -12.143  11.562  68.867  1.00  0.00    -0.270 A  
HETATM   12  C   UNL     1     -11.576  12.244  67.787  1.00  0.00    -0.416 A  
BRANCH  10  13
HETATM   13  C   UNL     1     -10.349  14.232  66.808  1.00  0.00    -0.274 C  
BRANCH  13  14
HETATM   14  C   UNL     1      -8.854  14.331  67.042  1.00  0.00    -0.243 A  
HETATM   15  C   UNL     1      -8.051  13.251  67.431  1.00  0.00    -0.175 A  
HETATM   16 CL   UNL     1      -8.665  11.643  67.570  1.00  0.00    -0.151 Cl 
HETATM   17  C   UNL     1      -6.707  13.452  67.763  1.00  0.00    -0.163 A  
HETATM   18  C   UNL     1      -6.171  14.742  67.786  1.00  0.00    -0.157 A  
HETATM   19  C   UNL     1      -6.963  15.847  67.452  1.00  0.00    -0.233 A  
HETATM   20  C   UNL     1      -8.271  15.612  66.997  1.00  0.00    -0.268 A  
BRANCH  19  21
HETATM   21  C   UNL     1      -6.488  17.254  67.788  1.00  0.00    -0.152 C  
HETATM   22  O   UNL     1      -6.296  17.335  69.213  1.00  0.00    -0.215 OA 
HETATM   23  C   UNL     1      -5.597  18.516  69.620  1.00  0.00    -0.229 C  
HETATM   24  H   UNL     1      -8.011  19.124  65.542  1.00  0.00     0.000 HD 
HETATM   25  C   UNL     1      -6.424  19.749  69.259  1.00  0.00    -0.339 C  
HETATM   26  O   UNL     1      -7.474  18.404  65.852  1.00  0.00    -0.428 OA 
HETATM   27  C   UNL     1      -6.717  19.750  67.751  1.00  0.00    -0.240 C  
HETATM   28  O   UNL     1      -5.762  20.970  69.604  1.00  0.00    -0.410 OA 
HETATM   29  H   UNL     1      -7.731  20.873  66.499  1.00  0.00     0.000 HD 
HETATM   30  C   UNL     1      -7.363  18.426  67.283  1.00  0.00    -0.212 C  
HETATM   31  H   UNL     1      -6.276  21.737  69.379  1.00  0.00     0.000 HD 
HETATM   32  O   UNL     1      -7.549  20.872  67.431  1.00  0.00    -0.345 OA 
BRANCH  23  33
HETATM   33  C   UNL     1      -5.347  18.417  71.128  1.00  0.00    -0.224 C  
HETATM   34  O   UNL     1      -5.142  17.043  71.487  1.00  0.00    -0.394 OA 
HETATM   35  H   UNL     1      -4.987  16.982  72.423  1.00  0.00     0.000 HD 
ENDBRANCH  23  33
ENDBRANCH  19  21
ENDBRANCH  13  14
ENDBRANCH  10  13
ENDBRANCH   6   7
ENDBRANCH   1   6
TORSDOF 6
ENDMDL
MODEL      119
REMARK 921   NORMALIZED FREE ENERGY PREDICTED BY IDOCK:   -6.05 KCAL/MOL
REMARK 922        TOTAL FREE ENERGY PREDICTED BY IDOCK:   -9.14 KCAL/MOL
REMARK 923 INTER-LIGAND FREE ENERGY PREDICTED BY IDOCK:   -7.50 KCAL/MOL
REMARK 924 INTRA-LIGAND FREE ENERGY PREDICTED BY IDOCK:   -1.64 KCAL/MOL
REMARK 927      BINDING AFFINITY PREDICTED BY RF-SCORE:    0.00 PKD
ROOT
HETATM    1  C   UNL     1     -12.247  13.904  70.805  1.00  0.00    -0.369 C  
HETATM    2  C   UNL     1     -12.874  15.156  71.391  1.00  0.00    -0.457 C  
HETATM    3  O   UNL     1     -13.703  13.345  72.631  1.00  0.00    -0.687 OA 
HETATM    4  C   UNL     1     -13.291  14.709  72.767  1.00  0.00    -0.499 C  
HETATM    5  C   UNL     1     -13.116  12.815  71.428  1.00  0.00    -0.227 C  
ENDROOT
BRANCH   1   6
HETATM    6  O   UNL     1     -12.358  13.988  69.389  1.00  0.00    -0.333 OA 
BRANCH   6   7
HETATM    7  C   UNL     1     -11.358  13.470  68.619  1.00  0.00    -0.288 A  
HETATM    8  C   UNL     1      -9.095  13.248  67.788  1.00  0.00    -0.202 A  
HETATM    9  C   UNL     1     -10.052  13.946  68.544  1.00  0.00    -0.234 A  
HETATM   10  C   UNL     1      -9.431  12.069  67.100  1.00  0.00    -0.187 A  
HETATM   11  C   UNL     1     -11.702  12.309  67.925  1.00  0.00    -0.410 A  
HETATM   12  C   UNL     1     -10.754  11.619  67.165  1.00  0.00    -0.288 A  
BRANCH  10  13
HETATM   13  C   UNL     1      -8.377  11.252  66.372  1.00  0.00    -0.159 C  
BRANCH  13  14
HETATM   14  C   UNL     1      -7.424  10.554  67.324  1.00  0.00    -0.095 A  
HETATM   15  C   UNL     1      -6.058  10.374  67.069  1.00  0.00    -0.052 A  
HETATM   16 CL   UNL     1      -5.278  11.043  65.680  1.00  0.00    -0.136 Cl 
HETATM   17  C   UNL     1      -5.273   9.599  67.930  1.00  0.00    -0.036 A  
HETATM   18  C   UNL     1      -5.859   8.932  69.009  1.00  0.00    -0.040 A  
HETATM   19  C   UNL     1      -7.231   9.052  69.259  1.00  0.00    -0.065 A  
HETATM   20  C   UNL     1      -7.975   9.936  68.462  1.00  0.00    -0.086 A  
BRANCH  19  21
HETATM   21  C   UNL     1      -7.918   8.086  70.215  1.00  0.00    -0.104 C  
HETATM   22  O   UNL     1      -9.155   7.661  69.611  1.00  0.00    -0.147 OA 
HETATM   23  C   UNL     1      -9.757   6.551  70.285  1.00  0.00    -0.168 C  
HETATM   24  H   UNL     1      -7.056   9.217  73.187  1.00  0.00     0.000 HD 
HETATM   25  C   UNL     1     -10.129   6.960  71.710  1.00  0.00    -0.185 C  
HETATM   26  O   UNL     1      -6.911   8.912  72.299  1.00  0.00    -0.289 OA 
HETATM   27  C   UNL     1      -8.879   7.464  72.445  1.00  0.00    -0.124 C  
HETATM   28  O   UNL     1     -10.703   5.881  72.454  1.00  0.00    -0.210 OA 
HETATM   29  H   UNL     1      -8.474   8.220  74.211  1.00  0.00     0.000 HD 
HETATM   30  C   UNL     1      -8.154   8.582  71.661  1.00  0.00    -0.150 C  
HETATM   31  H   UNL     1     -10.934   6.135  73.341  1.00  0.00     0.000 HD 
HETATM   32  O   UNL     1      -9.248   7.909  73.756  1.00  0.00    -0.281 OA 
BRANCH  23  33
HETATM   33  C   UNL     1     -10.985   6.121  69.476  1.00  0.00    -0.393 C  
HETATM   34  O   UNL     1     -12.171   6.623  70.108  1.00  0.00    -0.598 OA 
HETATM   35  H   UNL     1     -12.933   6.356  69.606  1.00  0.00     0.000 HD 
ENDBRANCH  23  33
ENDBRANCH  19  21
ENDBRANCH  13  14
ENDBRANCH  10  13
ENDBRANCH   6   7
ENDBRANCH   1   6
TORSDOF 6
ENDMDL
MODEL      120
REMARK 921   NORMALIZED FREE ENERGY PREDICTED BY IDOCK:   -6.05 KCAL/MOL
REMARK 922        TOTAL FREE ENERGY PREDICTED BY IDOCK:   -9.13 KCAL/MOL
REMARK 923 INTER-LIGAND FREE ENERGY PREDICTED BY IDOCK:   -8.03 KCAL/MOL
REMARK 924 INTRA-LIGAND FREE ENERGY PREDICTED BY IDOCK:   -1.11 KCAL/MOL
REMARK 927      BINDING AFFINITY PREDICTED BY RF-SCORE:    0.00 PKD
ROOT
HETATM    1  C   UNL     1      -7.906   9.552  65.620  1.00  0.00    -0.101 C  
HETATM    2  C   UNL     1      -7.393   9.615  64.193  1.00  0.00    -0.122 C  
HETATM    3  O   UNL     1      -6.698   7.552  65.066  1.00  0.00    -0.046 OA 
HETATM    4  C   UNL     1      -7.156   8.167  63.859  1.00  0.00    -0.084 C  
HETATM    5  C   UNL     1      -7.104   8.377  66.175  1.00  0.00    -0.076 C  
ENDROOT
BRANCH   1   6
HETATM    6  O   UNL     1      -7.606  10.796  66.243  1.00  0.00    -0.135 OA 
BRANCH   6   7
HETATM    7  C   UNL     1      -8.635  11.605  66.626  1.00  0.00    -0.179 A  
HETATM    8  C   UNL     1     -10.930  12.368  66.723  1.00  0.00    -0.305 A  
HETATM    9  C   UNL     1      -9.945  11.538  66.162  1.00  0.00    -0.257 A  
HETATM   10  C   UNL     1     -10.618  13.273  67.753  1.00  0.00    -0.249 A  
HETATM   11  C   UNL     1      -8.315  12.513  67.636  1.00  0.00    -0.172 A  
HETATM   12  C   UNL     1      -9.291  13.346  68.189  1.00  0.00    -0.217 A  
BRANCH  10  13
HETATM   13  C   UNL     1     -11.698  14.093  68.437  1.00  0.00    -0.380 C  
BRANCH  13  14
HETATM   14  C   UNL     1     -12.284  13.388  69.646  1.00  0.00    -0.279 A  
HETATM   15  C   UNL     1     -12.811  14.056  70.759  1.00  0.00    -0.285 A  
HETATM   16 CL   UNL     1     -12.963  15.775  70.824  1.00  0.00    -0.421 Cl 
HETATM   17  C   UNL     1     -13.205  13.337  71.894  1.00  0.00    -0.523 A  
HETATM   18  C   UNL     1     -13.005  11.956  71.959  1.00  0.00    -0.370 A  
HETATM   19  C   UNL     1     -12.433  11.269  70.882  1.00  0.00    -0.493 A  
HETATM   20  C   UNL     1     -12.164  11.987  69.705  1.00  0.00    -0.202 A  
BRANCH  19  21
HETATM   21  C   UNL     1     -11.919   9.848  71.071  1.00  0.00    -0.365 C  
HETATM   22  O   UNL     1     -11.255   9.446  69.856  1.00  0.00    -0.230 OA 
HETATM   23  C   UNL     1     -10.498   8.240  70.004  1.00  0.00    -0.231 C  
HETATM   24  H   UNL     1     -14.176   8.481  73.044  1.00  0.00     0.000 HD 
HETATM   25  C   UNL     1     -11.439   7.085  70.345  1.00  0.00    -0.310 C  
HETATM   26  O   UNL     1     -13.542   9.135  72.772  1.00  0.00    -0.430 OA 
HETATM   27  C   UNL     1     -12.228   7.422  71.619  1.00  0.00    -0.330 C  
HETATM   28  O   UNL     1     -10.739   5.852  70.545  1.00  0.00    -0.255 OA 
HETATM   29  H   UNL     1     -13.644   6.574  72.683  1.00  0.00     0.000 HD 
HETATM   30  C   UNL     1     -12.951   8.784  71.512  1.00  0.00    -0.319 C  
HETATM   31  H   UNL     1     -11.324   5.134  70.757  1.00  0.00     0.000 HD 
HETATM   32  O   UNL     1     -13.156   6.365  71.895  1.00  0.00    -0.153 OA 
BRANCH  23  33
HETATM   33  C   UNL     1      -9.747   7.995  68.691  1.00  0.00    -0.159 C  
HETATM   34  O   UNL     1     -10.574   8.394  67.588  1.00  0.00    -0.351 OA 
HETATM   35  H   UNL     1     -10.109   8.243  66.774  1.00  0.00     0.000 HD 
ENDBRANCH  23  33
ENDBRANCH  19  21
ENDBRANCH  13  14
ENDBRANCH  10  13
ENDBRANCH   6   7
ENDBRANCH   1   6
TORSDOF 6
ENDMDL
MODEL      121
REMARK 921   NORMALIZED FREE ENERGY PREDICTED BY IDOCK:   -6.04 KCAL/MOL
REMARK 922        TOTAL FREE ENERGY PREDICTED BY IDOCK:   -9.12 KCAL/MOL
REMARK 923 INTER-LIGAND FREE ENERGY PREDICTED BY IDOCK:   -7.49 KCAL/MOL
REMARK 924 INTRA-LIGAND FREE ENERGY PREDICTED BY IDOCK:   -1.63 KCAL/MOL
REMARK 927      BINDING AFFINITY PREDICTED BY RF-SCORE:    0.00 PKD
ROOT
HETATM    1  C   UNL     1     -10.873  11.553  64.346  1.00  0.00    -0.342 C  
HETATM    2  C   UNL     1     -10.104  11.185  63.091  1.00  0.00    -0.373 C  
HETATM    3  O   UNL     1      -8.698  10.703  64.906  1.00  0.00    -0.184 OA 
HETATM    4  C   UNL     1      -9.061  10.229  63.606  1.00  0.00    -0.258 C  
HETATM    5  C   UNL     1      -9.761  11.545  65.392  1.00  0.00    -0.233 C  
ENDROOT
BRANCH   1   6
HETATM    6  O   UNL     1     -11.454  12.836  64.136  1.00  0.00    -0.343 OA 
BRANCH   6   7
HETATM    7  C   UNL     1     -11.465  13.729  65.167  1.00  0.00    -0.321 A  
HETATM    8  C   UNL     1     -11.943  14.520  67.404  1.00  0.00    -0.367 A  
HETATM    9  C   UNL     1     -12.105  13.560  66.391  1.00  0.00    -0.467 A  
HETATM   10  C   UNL     1     -11.141  15.657  67.206  1.00  0.00    -0.238 A  
HETATM   11  C   UNL     1     -10.680  14.864  64.958  1.00  0.00    -0.451 A  
HETATM   12  C   UNL     1     -10.526  15.825  65.961  1.00  0.00    -0.350 A  
BRANCH  10  13
HETATM   13  C   UNL     1     -10.875  16.641  68.333  1.00  0.00    -0.361 C  
BRANCH  13  14
HETATM   14  C   UNL     1      -9.394  16.857  68.578  1.00  0.00    -0.259 A  
HETATM   15  C   UNL     1      -8.680  17.970  68.116  1.00  0.00    -0.272 A  
HETATM   16 CL   UNL     1      -9.445  19.293  67.311  1.00  0.00    -0.362 Cl 
HETATM   17  C   UNL     1      -7.290  18.030  68.261  1.00  0.00    -0.259 A  
HETATM   18  C   UNL     1      -6.590  16.947  68.798  1.00  0.00    -0.184 A  
HETATM   19  C   UNL     1      -7.270  15.799  69.221  1.00  0.00    -0.211 A  
HETATM   20  C   UNL     1      -8.674  15.811  69.186  1.00  0.00    -0.253 A  
BRANCH  19  21
HETATM   21  C   UNL     1      -6.501  14.513  69.494  1.00  0.00    -0.134 C  
HETATM   22  O   UNL     1      -7.233  13.420  68.906  1.00  0.00    -0.103 OA 
HETATM   23  C   UNL     1      -6.481  12.203  68.860  1.00  0.00    -0.088 C  
HETATM   24  H   UNL     1      -5.118  15.066  72.433  1.00  0.00     0.000 HD 
HETATM   25  C   UNL     1      -6.158  11.747  70.282  1.00  0.00    -0.116 C  
HETATM   26  O   UNL     1      -5.335  15.252  71.527  1.00  0.00    -0.090 OA 
HETATM   27  C   UNL     1      -5.397  12.859  71.020  1.00  0.00    -0.181 C  
HETATM   28  O   UNL     1      -5.372  10.552  70.306  1.00  0.00    -0.044 OA 
HETATM   29  H   UNL     1      -4.687  13.140  72.828  1.00  0.00     0.000 HD 
HETATM   30  C   UNL     1      -6.148  14.209  70.969  1.00  0.00    -0.123 C  
HETATM   31  H   UNL     1      -5.171  10.268  71.191  1.00  0.00     0.000 HD 
HETATM   32  O   UNL     1      -5.158  12.452  72.372  1.00  0.00    -0.359 OA 
BRANCH  23  33
HETATM   33  C   UNL     1      -7.317  11.164  68.104  1.00  0.00    -0.087 C  
HETATM   34  O   UNL     1      -6.594  10.726  66.944  1.00  0.00    -0.077 OA 
HETATM   35  H   UNL     1      -7.112  10.082  66.475  1.00  0.00     0.000 HD 
ENDBRANCH  23  33
ENDBRANCH  19  21
ENDBRANCH  13  14
ENDBRANCH  10  13
ENDBRANCH   6   7
ENDBRANCH   1   6
TORSDOF 6
ENDMDL
MODEL      122
REMARK 921   NORMALIZED FREE ENERGY PREDICTED BY IDOCK:   -6.04 KCAL/MOL
REMARK 922        TOTAL FREE ENERGY PREDICTED BY IDOCK:   -9.12 KCAL/MOL
REMARK 923 INTER-LIGAND FREE ENERGY PREDICTED BY IDOCK:   -7.88 KCAL/MOL
REMARK 924 INTRA-LIGAND FREE ENERGY PREDICTED BY IDOCK:   -1.24 KCAL/MOL
REMARK 927      BINDING AFFINITY PREDICTED BY RF-SCORE:    0.00 PKD
ROOT
HETATM    1  C   UNL     1     -12.560   9.611  71.282  1.00  0.00    -0.352 C  
HETATM    2  C   UNL     1     -11.098   9.387  71.622  1.00  0.00    -0.409 C  
HETATM    3  O   UNL     1     -12.343   8.037  73.082  1.00  0.00    -0.016 OA 
HETATM    4  C   UNL     1     -11.121   8.063  72.339  1.00  0.00    -0.352 C  
HETATM    5  C   UNL     1     -13.249   8.990  72.494  1.00  0.00    -0.406 C  
ENDROOT
BRANCH   1   6
HETATM    6  O   UNL     1     -12.765  11.015  71.161  1.00  0.00    -0.374 OA 
BRANCH   6   7
HETATM    7  C   UNL     1     -12.276  11.659  70.062  1.00  0.00    -0.263 A  
HETATM    8  C   UNL     1     -11.202  13.456  68.847  1.00  0.00    -0.320 A  
HETATM    9  C   UNL     1     -11.773  12.956  70.030  1.00  0.00    -0.284 A  
HETATM   10  C   UNL     1     -11.128  12.667  67.686  1.00  0.00    -0.303 A  
HETATM   11  C   UNL     1     -12.220  10.876  68.908  1.00  0.00    -0.040 A  
HETATM   12  C   UNL     1     -11.661  11.375  67.728  1.00  0.00    -0.279 A  
BRANCH  10  13
HETATM   13  C   UNL     1     -10.414  13.163  66.439  1.00  0.00    -0.287 C  
BRANCH  13  14
HETATM   14  C   UNL     1      -9.043  13.735  66.744  1.00  0.00    -0.235 A  
HETATM   15  C   UNL     1      -8.001  13.000  67.324  1.00  0.00    -0.138 A  
HETATM   16 CL   UNL     1      -8.129  11.308  67.649  1.00  0.00    -0.116 Cl 
HETATM   17  C   UNL     1      -6.813  13.633  67.702  1.00  0.00    -0.185 A  
HETATM   18  C   UNL     1      -6.681  15.019  67.577  1.00  0.00    -0.178 A  
HETATM   19  C   UNL     1      -7.725  15.787  67.047  1.00  0.00    -0.267 A  
HETATM   20  C   UNL     1      -8.857  15.118  66.555  1.00  0.00    -0.312 A  
BRANCH  19  21
HETATM   21  C   UNL     1      -7.716  17.301  67.212  1.00  0.00    -0.188 C  
HETATM   22  O   UNL     1      -6.933  17.864  66.141  1.00  0.00    -0.247 OA 
HETATM   23  C   UNL     1      -7.072  19.284  66.030  1.00  0.00    -0.269 C  
HETATM   24  H   UNL     1      -7.813  17.709  70.480  1.00  0.00     0.000 HD 
HETATM   25  C   UNL     1      -6.547  19.950  67.302  1.00  0.00    -0.204 C  
HETATM   26  O   UNL     1      -8.096  17.371  69.639  1.00  0.00     0.420 OA 
HETATM   27  C   UNL     1      -7.299  19.397  68.522  1.00  0.00    -0.333 C  
HETATM   28  O   UNL     1      -6.694  21.374  67.272  1.00  0.00    -0.551 OA 
HETATM   29  H   UNL     1      -7.220  19.633  70.469  1.00  0.00     0.000 HD 
HETATM   30  C   UNL     1      -7.254  17.853  68.581  1.00  0.00    -0.272 C  
HETATM   31  H   UNL     1      -6.368  21.788  68.063  1.00  0.00     0.000 HD 
HETATM   32  O   UNL     1      -6.755  19.975  69.715  1.00  0.00    -0.338 OA 
BRANCH  23  33
HETATM   33  C   UNL     1      -6.297  19.736  64.788  1.00  0.00    -0.259 C  
HETATM   34  O   UNL     1      -6.536  21.132  64.560  1.00  0.00    -0.521 OA 
HETATM   35  H   UNL     1      -6.056  21.413  63.790  1.00  0.00     0.000 HD 
ENDBRANCH  23  33
ENDBRANCH  19  21
ENDBRANCH  13  14
ENDBRANCH  10  13
ENDBRANCH   6   7
ENDBRANCH   1   6
TORSDOF 6
ENDMDL
MODEL      123
REMARK 921   NORMALIZED FREE ENERGY PREDICTED BY IDOCK:   -6.03 KCAL/MOL
REMARK 922        TOTAL FREE ENERGY PREDICTED BY IDOCK:   -9.11 KCAL/MOL
REMARK 923 INTER-LIGAND FREE ENERGY PREDICTED BY IDOCK:   -7.90 KCAL/MOL
REMARK 924 INTRA-LIGAND FREE ENERGY PREDICTED BY IDOCK:   -1.22 KCAL/MOL
REMARK 927      BINDING AFFINITY PREDICTED BY RF-SCORE:    0.00 PKD
ROOT
HETATM    1  C   UNL     1     -12.316   8.019  70.987  1.00  0.00    -0.150 C  
HETATM    2  C   UNL     1     -13.490   7.139  71.376  1.00  0.00    -0.374 C  
HETATM    3  O   UNL     1     -13.559   9.014  72.785  1.00  0.00    -0.433 OA 
HETATM    4  C   UNL     1     -14.408   8.100  72.084  1.00  0.00    -0.372 C  
HETATM    5  C   UNL     1     -12.256   8.979  72.172  1.00  0.00    -0.357 C  
ENDROOT
BRANCH   1   6
HETATM    6  O   UNL     1     -11.170   7.183  70.867  1.00  0.00    -0.257 OA 
BRANCH   6   7
HETATM    7  C   UNL     1     -10.115   7.618  70.121  1.00  0.00    -0.199 A  
HETATM    8  C   UNL     1      -8.973   8.340  68.112  1.00  0.00    -0.139 A  
HETATM    9  C   UNL     1     -10.100   7.781  68.739  1.00  0.00    -0.205 A  
HETATM   10  C   UNL     1      -7.851   8.741  68.857  1.00  0.00    -0.104 A  
HETATM   11  C   UNL     1      -8.997   8.000  70.865  1.00  0.00    -0.150 A  
HETATM   12  C   UNL     1      -7.872   8.547  70.242  1.00  0.00    -0.090 A  
BRANCH  10  13
HETATM   13  C   UNL     1      -6.677   9.446  68.198  1.00  0.00    -0.059 C  
BRANCH  13  14
HETATM   14  C   UNL     1      -6.909  10.936  68.039  1.00  0.00    -0.068 A  
HETATM   15  C   UNL     1      -6.547  11.889  69.001  1.00  0.00    -0.091 A  
HETATM   16 CL   UNL     1      -5.678  11.476  70.435  1.00  0.00    -0.143 Cl 
HETATM   17  C   UNL     1      -6.919  13.229  68.844  1.00  0.00    -0.096 A  
HETATM   18  C   UNL     1      -7.721  13.617  67.768  1.00  0.00    -0.166 A  
HETATM   19  C   UNL     1      -8.141  12.678  66.819  1.00  0.00     0.073 A  
HETATM   20  C   UNL     1      -7.651  11.366  66.923  1.00  0.00    -0.151 A  
BRANCH  19  21
HETATM   21  C   UNL     1      -9.264  13.023  65.850  1.00  0.00     0.172 C  
HETATM   22  O   UNL     1      -9.636  14.398  66.066  1.00  0.00    -0.302 OA 
HETATM   23  C   UNL     1     -10.488  14.918  65.039  1.00  0.00    -0.401 C  
HETATM   24  H   UNL     1     -10.919  10.189  65.564  1.00  0.00     0.000 HD 
HETATM   25  C   UNL     1     -11.806  14.144  65.029  1.00  0.00    -0.389 C  
HETATM   26  O   UNL     1     -10.154  10.752  65.554  1.00  0.00    -0.248 OA 
HETATM   27  C   UNL     1     -11.525  12.647  64.834  1.00  0.00    -0.322 C  
HETATM   28  O   UNL     1     -12.691  14.590  63.997  1.00  0.00    -0.759 OA 
HETATM   29  H   UNL     1     -12.584  10.996  64.773  1.00  0.00     0.000 HD 
HETATM   30  C   UNL     1     -10.510  12.106  65.867  1.00  0.00    -0.254 C  
HETATM   31  H   UNL     1     -13.511  14.108  63.990  1.00  0.00     0.000 HD 
HETATM   32  O   UNL     1     -12.758  11.922  64.893  1.00  0.00    -0.281 OA 
BRANCH  23  33
HETATM   33  C   UNL     1     -10.702  16.409  65.318  1.00  0.00    -0.295 C  
HETATM   34  O   UNL     1     -11.226  17.042  64.142  1.00  0.00    -1.286 OA 
HETATM   35  H   UNL     1     -11.360  17.966  64.314  1.00  0.00     0.000 HD 
ENDBRANCH  23  33
ENDBRANCH  19  21
ENDBRANCH  13  14
ENDBRANCH  10  13
ENDBRANCH   6   7
ENDBRANCH   1   6
TORSDOF 6
ENDMDL
MODEL      124
REMARK 921   NORMALIZED FREE ENERGY PREDICTED BY IDOCK:   -6.02 KCAL/MOL
REMARK 922        TOTAL FREE ENERGY PREDICTED BY IDOCK:   -9.10 KCAL/MOL
REMARK 923 INTER-LIGAND FREE ENERGY PREDICTED BY IDOCK:   -7.74 KCAL/MOL
REMARK 924 INTRA-LIGAND FREE ENERGY PREDICTED BY IDOCK:   -1.36 KCAL/MOL
REMARK 927      BINDING AFFINITY PREDICTED BY RF-SCORE:    0.00 PKD
ROOT
HETATM    1  C   UNL     1     -10.990   5.067  72.489  1.00  0.00    -0.177 C  
HETATM    2  C   UNL     1     -10.068   3.895  72.208  1.00  0.00    -0.234 C  
HETATM    3  O   UNL     1     -10.701   3.728  74.461  1.00  0.00    -0.187 OA 
HETATM    4  C   UNL     1     -10.411   2.929  73.311  1.00  0.00    -0.148 C  
HETATM    5  C   UNL     1     -11.032   5.057  74.015  1.00  0.00    -0.093 C  
ENDROOT
BRANCH   1   6
HETATM    6  O   UNL     1     -10.386   6.233  71.939  1.00  0.00    -0.199 OA 
BRANCH   6   7
HETATM    7  C   UNL     1     -10.056   6.240  70.615  1.00  0.00    -0.189 A  
HETATM    8  C   UNL     1     -10.473   6.243  68.231  1.00  0.00    -0.277 A  
HETATM    9  C   UNL     1     -10.941   6.111  69.550  1.00  0.00    -0.463 A  
HETATM   10  C   UNL     1      -9.118   6.505  67.963  1.00  0.00    -0.114 A  
HETATM   11  C   UNL     1      -8.707   6.484  70.356  1.00  0.00    -0.147 A  
HETATM   12  C   UNL     1      -8.237   6.606  69.045  1.00  0.00    -0.117 A  
BRANCH  10  13
HETATM   13  C   UNL     1      -8.628   6.757  66.547  1.00  0.00    -0.128 C  
BRANCH  13  14
HETATM   14  C   UNL     1      -8.342   8.222  66.284  1.00  0.00    -0.124 A  
HETATM   15  C   UNL     1      -7.073   8.805  66.408  1.00  0.00    -0.083 A  
HETATM   16 CL   UNL     1      -5.659   7.879  66.762  1.00  0.00    -0.031 Cl 
HETATM   17  C   UNL     1      -6.915  10.189  66.285  1.00  0.00    -0.109 A  
HETATM   18  C   UNL     1      -8.029  11.014  66.114  1.00  0.00    -0.129 A  
HETATM   19  C   UNL     1      -9.315  10.466  66.037  1.00  0.00    -0.219 A  
HETATM   20  C   UNL     1      -9.440   9.067  66.034  1.00  0.00    -0.323 A  
BRANCH  19  21
HETATM   21  C   UNL     1     -10.537  11.364  66.180  1.00  0.00    -0.265 C  
HETATM   22  O   UNL     1     -10.978  11.734  64.860  1.00  0.00    -0.297 OA 
HETATM   23  C   UNL     1     -12.270  12.351  64.852  1.00  0.00    -0.418 C  
HETATM   24  H   UNL     1      -9.947  13.005  68.976  1.00  0.00     0.000 HD 
HETATM   25  C   UNL     1     -12.215  13.661  65.637  1.00  0.00    -0.454 C  
HETATM   26  O   UNL     1     -10.041  12.239  68.423  1.00  0.00    -0.214 OA 
HETATM   27  C   UNL     1     -11.722  13.388  67.065  1.00  0.00    -0.381 C  
HETATM   28  O   UNL     1     -13.488  14.312  65.701  1.00  0.00    -0.688 OA 
HETATM   29  H   UNL     1     -11.303  14.458  68.656  1.00  0.00     0.000 HD 
HETATM   30  C   UNL     1     -10.384  12.613  67.080  1.00  0.00    -0.231 C  
HETATM   31  H   UNL     1     -13.454  15.127  66.189  1.00  0.00     0.000 HD 
HETATM   32  O   UNL     1     -11.608  14.628  67.773  1.00  0.00    -0.330 OA 
BRANCH  23  33
HETATM   33  C   UNL     1     -12.673  12.577  63.391  1.00  0.00    -0.191 C  
HETATM   34  O   UNL     1     -12.070  13.788  62.914  1.00  0.00    -0.783 OA 
HETATM   35  H   UNL     1     -12.320  13.928  62.008  1.00  0.00     0.000 HD 
ENDBRANCH  23  33
ENDBRANCH  19  21
ENDBRANCH  13  14
ENDBRANCH  10  13
ENDBRANCH   6   7
ENDBRANCH   1   6
TORSDOF 6
ENDMDL
MODEL      125
REMARK 921   NORMALIZED FREE ENERGY PREDICTED BY IDOCK:   -6.01 KCAL/MOL
REMARK 922        TOTAL FREE ENERGY PREDICTED BY IDOCK:   -9.08 KCAL/MOL
REMARK 923 INTER-LIGAND FREE ENERGY PREDICTED BY IDOCK:   -8.42 KCAL/MOL
REMARK 924 INTRA-LIGAND FREE ENERGY PREDICTED BY IDOCK:   -0.66 KCAL/MOL
REMARK 927      BINDING AFFINITY PREDICTED BY RF-SCORE:    0.00 PKD
ROOT
HETATM    1  C   UNL     1      -6.378  12.836  67.488  1.00  0.00    -0.162 C  
HETATM    2  C   UNL     1      -5.724  12.826  68.858  1.00  0.00    -0.072 C  
HETATM    3  O   UNL     1      -7.090  10.922  68.753  1.00  0.00    -0.070 OA 
HETATM    4  C   UNL     1      -5.841  11.385  69.275  1.00  0.00    -0.051 C  
HETATM    5  C   UNL     1      -7.479  11.795  67.676  1.00  0.00    -0.123 C  
ENDROOT
BRANCH   1   6
HETATM    6  O   UNL     1      -6.866  14.152  67.251  1.00  0.00    -0.226 OA 
BRANCH   6   7
HETATM    7  C   UNL     1      -8.134  14.463  67.643  1.00  0.00    -0.177 A  
HETATM    8  C   UNL     1     -10.549  14.518  67.482  1.00  0.00    -0.262 A  
HETATM    9  C   UNL     1      -9.296  14.243  66.909  1.00  0.00    -0.268 A  
HETATM   10  C   UNL     1     -10.655  15.014  68.793  1.00  0.00    -0.240 A  
HETATM   11  C   UNL     1      -8.233  14.972  68.939  1.00  0.00    -0.178 A  
HETATM   12  C   UNL     1      -9.477  15.254  69.508  1.00  0.00    -0.204 A  
BRANCH  10  13
HETATM   13  C   UNL     1     -12.009  15.209  69.456  1.00  0.00    -0.351 C  
BRANCH  13  14
HETATM   14  C   UNL     1     -12.469  13.976  70.209  1.00  0.00    -0.403 A  
HETATM   15  C   UNL     1     -13.208  14.018  71.399  1.00  0.00    -0.334 A  
HETATM   16 CL   UNL     1     -13.785  15.496  72.080  1.00  0.00    -0.576 Cl 
HETATM   17  C   UNL     1     -13.476  12.842  72.108  1.00  0.00    -0.619 A  
HETATM   18  C   UNL     1     -12.943  11.624  71.680  1.00  0.00    -0.483 A  
HETATM   19  C   UNL     1     -12.158  11.558  70.522  1.00  0.00    -0.472 A  
HETATM   20  C   UNL     1     -12.009  12.725  69.756  1.00  0.00    -0.362 A  
BRANCH  19  21
HETATM   21  C   UNL     1     -11.319  10.319  70.240  1.00  0.00    -0.323 C  
HETATM   22  O   UNL     1     -11.174  10.191  68.812  1.00  0.00    -0.223 OA 
HETATM   23  C   UNL     1     -10.187   9.227  68.432  1.00  0.00    -0.202 C  
HETATM   24  H   UNL     1     -12.151   8.267  72.680  1.00  0.00     0.000 HD 
HETATM   25  C   UNL     1     -10.614   7.841  68.915  1.00  0.00    -0.150 C  
HETATM   26  O   UNL     1     -11.853   9.084  72.296  1.00  0.00    -0.334 OA 
HETATM   27  C   UNL     1     -10.830   7.868  70.435  1.00  0.00    -0.244 C  
HETATM   28  O   UNL     1      -9.649   6.833  68.600  1.00  0.00    -0.133 OA 
HETATM   29  H   UNL     1     -11.428   6.602  71.811  1.00  0.00     0.000 HD 
HETATM   30  C   UNL     1     -11.803   8.989  70.865  1.00  0.00    -0.253 C  
HETATM   31  H   UNL     1      -9.915   5.971  68.900  1.00  0.00     0.000 HD 
HETATM   32  O   UNL     1     -11.295   6.585  70.871  1.00  0.00    -0.298 OA 
BRANCH  23  33
HETATM   33  C   UNL     1     -10.042   9.280  66.907  1.00  0.00    -0.256 C  
HETATM   34  O   UNL     1     -10.544   8.062  66.339  1.00  0.00    -0.373 OA 
HETATM   35  H   UNL     1     -10.454   8.095  65.394  1.00  0.00     0.000 HD 
ENDBRANCH  23  33
ENDBRANCH  19  21
ENDBRANCH  13  14
ENDBRANCH  10  13
ENDBRANCH   6   7
ENDBRANCH   1   6
TORSDOF 6
ENDMDL
MODEL      126
REMARK 921   NORMALIZED FREE ENERGY PREDICTED BY IDOCK:   -6.00 KCAL/MOL
REMARK 922        TOTAL FREE ENERGY PREDICTED BY IDOCK:   -9.07 KCAL/MOL
REMARK 923 INTER-LIGAND FREE ENERGY PREDICTED BY IDOCK:   -8.45 KCAL/MOL
REMARK 924 INTRA-LIGAND FREE ENERGY PREDICTED BY IDOCK:   -0.62 KCAL/MOL
REMARK 927      BINDING AFFINITY PREDICTED BY RF-SCORE:    0.00 PKD
ROOT
HETATM    1  C   UNL     1      -9.136  18.668  67.131  1.00  0.00    -0.288 C  
HETATM    2  C   UNL     1      -9.920  19.674  67.955  1.00  0.00    -0.527 C  
HETATM    3  O   UNL     1      -8.030  20.799  67.138  1.00  0.00    -0.307 OA 
HETATM    4  C   UNL     1      -9.415  20.994  67.437  1.00  0.00    -0.120 C  
HETATM    5  C   UNL     1      -7.799  19.387  66.972  1.00  0.00    -0.253 C  
ENDROOT
BRANCH   1   6
HETATM    6  O   UNL     1      -9.054  17.463  67.885  1.00  0.00    -0.246 OA 
BRANCH   6   7
HETATM    7  C   UNL     1      -9.684  16.349  67.414  1.00  0.00    -0.238 A  
HETATM    8  C   UNL     1      -9.911  14.316  66.119  1.00  0.00    -0.330 A  
HETATM    9  C   UNL     1      -9.202  15.489  66.432  1.00  0.00    -0.339 A  
HETATM   10  C   UNL     1     -11.107  13.991  66.782  1.00  0.00    -0.311 A  
HETATM   11  C   UNL     1     -10.879  16.039  68.065  1.00  0.00    -0.335 A  
HETATM   12  C   UNL     1     -11.591  14.879  67.749  1.00  0.00    -0.358 A  
BRANCH  10  13
HETATM   13  C   UNL     1     -11.818  12.673  66.526  1.00  0.00    -0.463 C  
BRANCH  13  14
HETATM   14  C   UNL     1     -10.874  11.587  66.048  1.00  0.00    -0.330 A  
HETATM   15  C   UNL     1     -10.516  11.398  64.706  1.00  0.00    -0.308 A  
HETATM   16 CL   UNL     1     -11.024  12.471  63.452  1.00  0.00    -0.467 Cl 
HETATM   17  C   UNL     1      -9.751  10.290  64.327  1.00  0.00    -0.373 A  
HETATM   18  C   UNL     1      -9.402   9.318  65.268  1.00  0.00    -0.269 A  
HETATM   19  C   UNL     1      -9.789   9.453  66.607  1.00  0.00    -0.309 A  
HETATM   20  C   UNL     1     -10.444  10.635  66.991  1.00  0.00    -0.295 A  
BRANCH  19  21
HETATM   21  C   UNL     1      -9.698   8.261  67.550  1.00  0.00    -0.165 C  
HETATM   22  O   UNL     1      -9.923   7.063  66.782  1.00  0.00    -0.196 OA 
HETATM   23  C   UNL     1      -9.597   5.868  67.499  1.00  0.00    -0.112 C  
HETATM   24  H   UNL     1     -10.872   9.452  70.390  1.00  0.00     0.000 HD 
HETATM   25  C   UNL     1     -10.511   5.738  68.717  1.00  0.00    -0.242 C  
HETATM   26  O   UNL     1     -10.314   9.434  69.621  1.00  0.00    -0.195 OA 
HETATM   27  C   UNL     1     -10.374   6.987  69.600  1.00  0.00    -0.209 C  
HETATM   28  O   UNL     1     -10.211   4.579  69.502  1.00  0.00    -0.168 OA 
HETATM   29  H   UNL     1     -11.199   7.661  71.249  1.00  0.00     0.000 HD 
HETATM   30  C   UNL     1     -10.606   8.291  68.803  1.00  0.00    -0.123 C  
HETATM   31  H   UNL     1     -10.779   4.499  70.260  1.00  0.00     0.000 HD 
HETATM   32  O   UNL     1     -11.283   6.888  70.704  1.00  0.00    -0.267 OA 
BRANCH  23  33
HETATM   33  C   UNL     1      -9.757   4.686  66.537  1.00  0.00    -0.201 C  
HETATM   34  O   UNL     1      -8.624   3.814  66.664  1.00  0.00    -0.104 OA 
HETATM   35  H   UNL     1      -8.723   3.081  66.068  1.00  0.00     0.000 HD 
ENDBRANCH  23  33
ENDBRANCH  19  21
ENDBRANCH  13  14
ENDBRANCH  10  13
ENDBRANCH   6   7
ENDBRANCH   1   6
TORSDOF 6
ENDMDL
MODEL      127
REMARK 921   NORMALIZED FREE ENERGY PREDICTED BY IDOCK:   -5.99 KCAL/MOL
REMARK 922        TOTAL FREE ENERGY PREDICTED BY IDOCK:   -9.05 KCAL/MOL
REMARK 923 INTER-LIGAND FREE ENERGY PREDICTED BY IDOCK:   -8.46 KCAL/MOL
REMARK 924 INTRA-LIGAND FREE ENERGY PREDICTED BY IDOCK:   -0.60 KCAL/MOL
REMARK 927      BINDING AFFINITY PREDICTED BY RF-SCORE:    0.00 PKD
ROOT
HETATM    1  C   UNL     1      -7.397   6.301  70.980  1.00  0.00    -0.084 C  
HETATM    2  C   UNL     1      -7.358   7.004  69.636  1.00  0.00    -0.086 C  
HETATM    3  O   UNL     1      -6.179   8.364  71.141  1.00  0.00    -0.034 OA 
HETATM    4  C   UNL     1      -6.180   7.930  69.777  1.00  0.00    -0.026 C  
HETATM    5  C   UNL     1      -6.939   7.417  71.915  1.00  0.00    -0.062 C  
ENDROOT
BRANCH   1   6
HETATM    6  O   UNL     1      -8.737   5.876  71.207  1.00  0.00    -0.131 OA 
BRANCH   6   7
HETATM    7  C   UNL     1      -9.721   6.818  71.286  1.00  0.00    -0.172 A  
HETATM    8  C   UNL     1     -10.913   8.697  72.240  1.00  0.00    -0.392 A  
HETATM    9  C   UNL     1      -9.922   7.705  72.339  1.00  0.00    -0.256 A  
HETATM   10  C   UNL     1     -11.712   8.812  71.089  1.00  0.00    -0.344 A  
HETATM   11  C   UNL     1     -10.522   6.917  70.148  1.00  0.00    -0.233 A  
HETATM   12  C   UNL     1     -11.515   7.896  70.051  1.00  0.00     0.046 A  
BRANCH  10  13
HETATM   13  C   UNL     1     -12.709   9.948  70.932  1.00  0.00    -0.376 C  
BRANCH  13  14
HETATM   14  C   UNL     1     -12.092  11.177  70.292  1.00  0.00    -0.462 A  
HETATM   15  C   UNL     1     -12.359  12.490  70.704  1.00  0.00    -0.282 A  
HETATM   16 CL   UNL     1     -13.339  12.848  72.081  1.00  0.00    -0.627 Cl 
HETATM   17  C   UNL     1     -11.861  13.575  69.976  1.00  0.00    -0.371 A  
HETATM   18  C   UNL     1     -11.158  13.364  68.787  1.00  0.00    -0.297 A  
HETATM   19  C   UNL     1     -10.920  12.065  68.323  1.00  0.00    -0.275 A  
HETATM   20  C   UNL     1     -11.315  10.989  69.133  1.00  0.00    -0.348 A  
BRANCH  19  21
HETATM   21  C   UNL     1     -10.454  11.841  66.890  1.00  0.00    -0.223 C  
HETATM   22  O   UNL     1     -11.550  12.151  66.008  1.00  0.00    -0.367 OA 
HETATM   23  C   UNL     1     -11.157  12.240  64.634  1.00  0.00    -0.313 C  
HETATM   24  H   UNL     1      -8.335   9.333  67.166  1.00  0.00     0.000 HD 
HETATM   25  C   UNL     1     -10.638  10.882  64.163  1.00  0.00    -0.257 C  
HETATM   26  O   UNL     1      -8.702  10.185  67.369  1.00  0.00    -0.125 OA 
HETATM   27  C   UNL     1      -9.474  10.435  65.061  1.00  0.00    -0.253 C  
HETATM   28  O   UNL     1     -10.190  10.912  62.804  1.00  0.00    -0.699 OA 
HETATM   29  H   UNL     1      -8.318   8.856  65.210  1.00  0.00     0.000 HD 
HETATM   30  C   UNL     1      -9.856  10.454  66.559  1.00  0.00    -0.206 C  
HETATM   31  H   UNL     1      -9.867  10.068  62.511  1.00  0.00     0.000 HD 
HETATM   32  O   UNL     1      -9.037   9.132  64.655  1.00  0.00    -0.179 OA 
BRANCH  23  33
HETATM   33  C   UNL     1     -12.377  12.696  63.827  1.00  0.00    -0.478 C  
HETATM   34  O   UNL     1     -13.529  11.948  64.243  1.00  0.00    -0.545 OA 
HETATM   35  H   UNL     1     -14.286  12.231  63.742  1.00  0.00     0.000 HD 
ENDBRANCH  23  33
ENDBRANCH  19  21
ENDBRANCH  13  14
ENDBRANCH  10  13
ENDBRANCH   6   7
ENDBRANCH   1   6
TORSDOF 6
ENDMDL
MODEL      128
REMARK 921   NORMALIZED FREE ENERGY PREDICTED BY IDOCK:   -5.98 KCAL/MOL
REMARK 922        TOTAL FREE ENERGY PREDICTED BY IDOCK:   -9.04 KCAL/MOL
REMARK 923 INTER-LIGAND FREE ENERGY PREDICTED BY IDOCK:   -8.15 KCAL/MOL
REMARK 924 INTRA-LIGAND FREE ENERGY PREDICTED BY IDOCK:   -0.89 KCAL/MOL
REMARK 927      BINDING AFFINITY PREDICTED BY RF-SCORE:    0.00 PKD
ROOT
HETATM    1  C   UNL     1     -10.389  17.464  66.785  1.00  0.00    -0.305 C  
HETATM    2  C   UNL     1     -10.549  18.539  65.726  1.00  0.00    -0.265 C  
HETATM    3  O   UNL     1     -10.300  19.648  67.778  1.00  0.00    -0.410 OA 
HETATM    4  C   UNL     1      -9.961  19.754  66.392  1.00  0.00    -0.470 C  
HETATM    5  C   UNL     1     -10.602  18.269  68.064  1.00  0.00    -0.325 C  
ENDROOT
BRANCH   1   6
HETATM    6  O   UNL     1     -11.390  16.478  66.554  1.00  0.00     0.272 OA 
BRANCH   6   7
HETATM    7  C   UNL     1     -11.034  15.162  66.576  1.00  0.00    -0.318 A  
HETATM    8  C   UNL     1     -10.678  12.982  67.566  1.00  0.00    -0.248 A  
HETATM    9  C   UNL     1     -10.958  14.352  67.705  1.00  0.00    -0.294 A  
HETATM   10  C   UNL     1     -10.473  12.407  66.300  1.00  0.00    -0.271 A  
HETATM   11  C   UNL     1     -10.814  14.600  65.317  1.00  0.00    -0.387 A  
HETATM   12  C   UNL     1     -10.527  13.239  65.178  1.00  0.00    -0.346 A  
BRANCH  10  13
HETATM   13  C   UNL     1     -10.279  10.908  66.136  1.00  0.00    -0.304 C  
BRANCH  13  14
HETATM   14  C   UNL     1      -9.630  10.270  67.349  1.00  0.00    -0.183 A  
HETATM   15  C   UNL     1      -8.244  10.187  67.539  1.00  0.00    -0.114 A  
HETATM   16 CL   UNL     1      -7.114  10.919  66.458  1.00  0.00    -0.133 Cl 
HETATM   17  C   UNL     1      -7.720   9.462  68.614  1.00  0.00    -0.084 A  
HETATM   18  C   UNL     1      -8.568   8.747  69.464  1.00  0.00    -0.130 A  
HETATM   19  C   UNL     1      -9.954   8.770  69.268  1.00  0.00    -0.194 A  
HETATM   20  C   UNL     1     -10.468   9.606  68.264  1.00  0.00    -0.259 A  
BRANCH  19  21
HETATM   21  C   UNL     1     -10.840   7.751  69.972  1.00  0.00    -0.241 C  
HETATM   22  O   UNL     1     -11.840   8.467  70.722  1.00  0.00    -0.262 OA 
HETATM   23  C   UNL     1     -12.891   7.624  71.205  1.00  0.00    -0.260 C  
HETATM   24  H   UNL     1      -8.766   5.279  70.643  1.00  0.00     0.000 HD 
HETATM   25  C   UNL     1     -12.315   6.602  72.185  1.00  0.00    -0.200 C  
HETATM   26  O   UNL     1      -9.203   5.922  70.096  1.00  0.00    -0.149 OA 
HETATM   27  C   UNL     1     -11.207   5.793  71.495  1.00  0.00    -0.175 C  
HETATM   28  O   UNL     1     -13.310   5.699  72.678  1.00  0.00    -0.298 OA 
HETATM   29  H   UNL     1      -9.941   4.384  72.011  1.00  0.00     0.000 HD 
HETATM   30  C   UNL     1     -10.129   6.704  70.863  1.00  0.00    -0.187 C  
HETATM   31  H   UNL     1     -12.952   5.063  73.287  1.00  0.00     0.000 HD 
HETATM   32  O   UNL     1     -10.626   4.884  72.438  1.00  0.00    -0.209 OA 
BRANCH  23  33
HETATM   33  C   UNL     1     -13.943   8.519  71.868  1.00  0.00    -0.437 C  
HETATM   34  O   UNL     1     -13.458   8.960  73.144  1.00  0.00    -0.968 OA 
HETATM   35  H   UNL     1     -14.110   9.515  73.555  1.00  0.00     0.000 HD 
ENDBRANCH  23  33
ENDBRANCH  19  21
ENDBRANCH  13  14
ENDBRANCH  10  13
ENDBRANCH   6   7
ENDBRANCH   1   6
TORSDOF 6
ENDMDL
MODEL      129
REMARK 921   NORMALIZED FREE ENERGY PREDICTED BY IDOCK:   -5.97 KCAL/MOL
REMARK 922        TOTAL FREE ENERGY PREDICTED BY IDOCK:   -9.02 KCAL/MOL
REMARK 923 INTER-LIGAND FREE ENERGY PREDICTED BY IDOCK:   -8.37 KCAL/MOL
REMARK 924 INTRA-LIGAND FREE ENERGY PREDICTED BY IDOCK:   -0.66 KCAL/MOL
REMARK 927      BINDING AFFINITY PREDICTED BY RF-SCORE:    0.00 PKD
ROOT
HETATM    1  C   UNL     1     -10.373   7.193  70.746  1.00  0.00    -0.206 C  
HETATM    2  C   UNL     1      -9.724   7.359  72.108  1.00  0.00    -0.182 C  
HETATM    3  O   UNL     1     -11.839   8.365  72.244  1.00  0.00    -0.348 OA 
HETATM    4  C   UNL     1     -10.903   7.604  73.012  1.00  0.00    -0.400 C  
HETATM    5  C   UNL     1     -11.539   8.172  70.848  1.00  0.00    -0.267 C  
ENDROOT
BRANCH   1   6
HETATM    6  O   UNL     1      -9.408   7.549  69.762  1.00  0.00    -0.151 OA 
BRANCH   6   7
HETATM    7  C   UNL     1      -9.613   8.674  69.018  1.00  0.00    -0.163 A  
HETATM    8  C   UNL     1     -10.659  10.041  67.316  1.00  0.00    -0.319 A  
HETATM    9  C   UNL     1     -10.466   8.789  67.925  1.00  0.00    -0.275 A  
HETATM   10  C   UNL     1     -10.003  11.189  67.792  1.00  0.00    -0.193 A  
HETATM   11  C   UNL     1      -8.946   9.807  69.485  1.00  0.00    -0.215 A  
HETATM   12  C   UNL     1      -9.129  11.051  68.876  1.00  0.00    -0.132 A  
BRANCH  10  13
HETATM   13  C   UNL     1     -10.291  12.563  67.209  1.00  0.00    -0.228 C  
BRANCH  13  14
HETATM   14  C   UNL     1     -10.397  13.636  68.275  1.00  0.00    -0.251 A  
HETATM   15  C   UNL     1     -11.332  13.611  69.318  1.00  0.00    -0.269 A  
HETATM   16 CL   UNL     1     -12.398  12.277  69.576  1.00  0.00    -0.106 Cl 
HETATM   17  C   UNL     1     -11.460  14.705  70.180  1.00  0.00    -0.310 A  
HETATM   18  C   UNL     1     -10.713  15.865  69.963  1.00  0.00    -0.343 A  
HETATM   19  C   UNL     1      -9.808  15.939  68.898  1.00  0.00    -0.226 A  
HETATM   20  C   UNL     1      -9.600  14.786  68.123  1.00  0.00    -0.209 A  
BRANCH  19  21
HETATM   21  C   UNL     1      -9.246  17.288  68.467  1.00  0.00    -0.273 C  
HETATM   22  O   UNL     1     -10.030  17.766  67.356  1.00  0.00    -0.301 OA 
HETATM   23  C   UNL     1      -9.774  19.138  67.039  1.00  0.00    -0.325 C  
HETATM   24  H   UNL     1      -6.021  16.995  69.074  1.00  0.00     0.000 HD 
HETATM   25  C   UNL     1      -8.320  19.298  66.597  1.00  0.00    -0.306 C  
HETATM   26  O   UNL     1      -6.949  16.961  69.276  1.00  0.00    -0.234 OA 
HETATM   27  C   UNL     1      -7.386  18.785  67.704  1.00  0.00    -0.224 C  
HETATM   28  O   UNL     1      -7.986  20.658  66.301  1.00  0.00    -0.515 OA 
HETATM   29  H   UNL     1      -5.451  18.558  67.940  1.00  0.00     0.000 HD 
HETATM   30  C   UNL     1      -7.736  17.343  68.138  1.00  0.00    -0.221 C  
HETATM   31  H   UNL     1      -7.082  20.757  66.027  1.00  0.00     0.000 HD 
HETATM   32  O   UNL     1      -6.028  18.875  67.256  1.00  0.00    -0.161 OA 
BRANCH  23  33
HETATM   33  C   UNL     1     -10.754  19.555  65.936  1.00  0.00    -0.420 C  
HETATM   34  O   UNL     1     -10.866  18.495  64.975  1.00  0.00    -0.596 OA 
HETATM   35  H   UNL     1     -11.474  18.753  64.292  1.00  0.00     0.000 HD 
ENDBRANCH  23  33
ENDBRANCH  19  21
ENDBRANCH  13  14
ENDBRANCH  10  13
ENDBRANCH   6   7
ENDBRANCH   1   6
TORSDOF 6
ENDMDL
MODEL      130
REMARK 921   NORMALIZED FREE ENERGY PREDICTED BY IDOCK:   -5.97 KCAL/MOL
REMARK 922        TOTAL FREE ENERGY PREDICTED BY IDOCK:   -9.02 KCAL/MOL
REMARK 923 INTER-LIGAND FREE ENERGY PREDICTED BY IDOCK:   -7.79 KCAL/MOL
REMARK 924 INTRA-LIGAND FREE ENERGY PREDICTED BY IDOCK:   -1.23 KCAL/MOL
REMARK 927      BINDING AFFINITY PREDICTED BY RF-SCORE:    0.00 PKD
ROOT
HETATM    1  C   UNL     1     -10.036   9.824  64.894  1.00  0.00     0.009 C  
HETATM    2  C   UNL     1      -8.553   9.504  64.943  1.00  0.00    -0.191 C  
HETATM    3  O   UNL     1      -9.217   9.951  67.148  1.00  0.00    -0.137 OA 
HETATM    4  C   UNL     1      -8.341   9.118  66.383  1.00  0.00    -0.122 C  
HETATM    5  C   UNL     1     -10.255  10.435  66.276  1.00  0.00    -0.222 C  
ENDROOT
BRANCH   1   6
HETATM    6  O   UNL     1     -10.246  10.737  63.822  1.00  0.00    -0.339 OA 
BRANCH   6   7
HETATM    7  C   UNL     1     -10.591  12.024  64.114  1.00  0.00    -0.355 A  
HETATM    8  C   UNL     1     -12.093  13.901  64.399  1.00  0.00    -0.477 A  
HETATM    9  C   UNL     1     -11.853  12.589  63.957  1.00  0.00    -0.510 A  
HETATM   10  C   UNL     1     -11.076  14.663  65.000  1.00  0.00    -0.401 A  
HETATM   11  C   UNL     1      -9.573  12.781  64.695  1.00  0.00     0.239 A  
HETATM   12  C   UNL     1      -9.806  14.090  65.126  1.00  0.00    -0.138 A  
BRANCH  10  13
HETATM   13  C   UNL     1     -11.358  16.040  65.577  1.00  0.00     0.140 C  
BRANCH  13  14
HETATM   14  C   UNL     1     -10.775  16.218  66.966  1.00  0.00    -0.233 A  
HETATM   15  C   UNL     1      -9.557  16.862  67.225  1.00  0.00    -0.246 A  
HETATM   16 CL   UNL     1      -8.637  17.638  65.986  1.00  0.00    -0.143 Cl 
HETATM   17  C   UNL     1      -9.019  16.864  68.516  1.00  0.00    -0.254 A  
HETATM   18  C   UNL     1      -9.648  16.158  69.544  1.00  0.00    -0.150 A  
HETATM   19  C   UNL     1     -10.839  15.462  69.304  1.00  0.00    -0.253 A  
HETATM   20  C   UNL     1     -11.430  15.580  68.035  1.00  0.00    -0.313 A  
BRANCH  19  21
HETATM   21  C   UNL     1     -11.343  14.441  70.315  1.00  0.00    -0.132 C  
HETATM   22  O   UNL     1     -11.482  13.175  69.642  1.00  0.00    -0.256 OA 
HETATM   23  C   UNL     1     -11.687  12.081  70.543  1.00  0.00     0.040 C  
HETATM   24  H   UNL     1     -13.259  16.232  72.309  1.00  0.00     0.000 HD 
HETATM   25  C   UNL     1     -13.002  12.279  71.295  1.00  0.00    -0.204 C  
HETATM   26  O   UNL     1     -12.466  16.012  71.836  1.00  0.00    -0.451 OA 
HETATM   27  C   UNL     1     -12.978  13.626  72.032  1.00  0.00    -0.334 C  
HETATM   28  O   UNL     1     -13.250  11.236  72.244  1.00  0.00    -0.597 OA 
HETATM   29  H   UNL     1     -14.223  14.669  73.134  1.00  0.00     0.000 HD 
HETATM   30  C   UNL     1     -12.636  14.800  71.086  1.00  0.00    -0.337 C  
HETATM   31  H   UNL     1     -14.068  11.359  72.712  1.00  0.00     0.000 HD 
HETATM   32  O   UNL     1     -14.239  13.836  72.679  1.00  0.00    -0.710 OA 
BRANCH  23  33
HETATM   33  C   UNL     1     -11.690  10.789  69.718  1.00  0.00    -0.324 C  
HETATM   34  O   UNL     1     -13.007  10.564  69.194  1.00  0.00    -0.391 OA 
HETATM   35  H   UNL     1     -13.009   9.763  68.682  1.00  0.00     0.000 HD 
ENDBRANCH  23  33
ENDBRANCH  19  21
ENDBRANCH  13  14
ENDBRANCH  10  13
ENDBRANCH   6   7
ENDBRANCH   1   6
TORSDOF 6
ENDMDL
MODEL      131
REMARK 921   NORMALIZED FREE ENERGY PREDICTED BY IDOCK:   -5.96 KCAL/MOL
REMARK 922        TOTAL FREE ENERGY PREDICTED BY IDOCK:   -9.02 KCAL/MOL
REMARK 923 INTER-LIGAND FREE ENERGY PREDICTED BY IDOCK:   -7.67 KCAL/MOL
REMARK 924 INTRA-LIGAND FREE ENERGY PREDICTED BY IDOCK:   -1.35 KCAL/MOL
REMARK 927      BINDING AFFINITY PREDICTED BY RF-SCORE:    0.00 PKD
ROOT
HETATM    1  C   UNL     1      -9.973   7.156  68.995  1.00  0.00    -0.174 C  
HETATM    2  C   UNL     1      -8.845   6.457  69.732  1.00  0.00    -0.142 C  
HETATM    3  O   UNL     1     -10.022   4.794  68.568  1.00  0.00    -0.148 OA 
HETATM    4  C   UNL     1      -8.701   5.165  68.972  1.00  0.00    -0.092 C  
HETATM    5  C   UNL     1     -10.850   5.972  68.595  1.00  0.00    -0.307 C  
ENDROOT
BRANCH   1   6
HETATM    6  O   UNL     1     -10.598   8.050  69.911  1.00  0.00    -0.236 OA 
BRANCH   6   7
HETATM    7  C   UNL     1     -10.891   9.316  69.497  1.00  0.00    -0.195 A  
HETATM    8  C   UNL     1     -11.132  11.123  67.904  1.00  0.00    -0.331 A  
HETATM    9  C   UNL     1     -10.683   9.829  68.220  1.00  0.00    -0.277 A  
HETATM   10  C   UNL     1     -11.791  11.917  68.858  1.00  0.00    -0.366 A  
HETATM   11  C   UNL     1     -11.531  10.105  70.454  1.00  0.00    -0.400 A  
HETATM   12  C   UNL     1     -11.969  11.396  70.144  1.00  0.00    -0.460 A  
BRANCH  10  13
HETATM   13  C   UNL     1     -12.375  13.271  68.491  1.00  0.00     0.099 C  
BRANCH  13  14
HETATM   14  C   UNL     1     -11.751  14.405  69.282  1.00  0.00    -0.358 A  
HETATM   15  C   UNL     1     -12.310  14.942  70.450  1.00  0.00    -0.345 A  
HETATM   16 CL   UNL     1     -13.723  14.281  71.190  1.00  0.00    -0.323 Cl 
HETATM   17  C   UNL     1     -11.750  16.078  71.045  1.00  0.00    -0.458 A  
HETATM   18  C   UNL     1     -10.676  16.735  70.438  1.00  0.00     0.220 A  
HETATM   19  C   UNL     1     -10.130  16.252  69.243  1.00  0.00    -0.267 A  
HETATM   20  C   UNL     1     -10.621  15.040  68.732  1.00  0.00    -0.240 A  
BRANCH  19  21
HETATM   21  C   UNL     1      -9.197  17.131  68.422  1.00  0.00    -0.266 C  
HETATM   22  O   UNL     1      -7.898  17.112  69.045  1.00  0.00    -0.234 OA 
HETATM   23  C   UNL     1      -6.872  17.678  68.222  1.00  0.00    -0.213 C  
HETATM   24  H   UNL     1     -11.190  19.495  67.283  1.00  0.00     0.000 HD 
HETATM   25  C   UNL     1      -7.174  19.156  67.974  1.00  0.00    -0.256 C  
HETATM   26  O   UNL     1     -10.906  18.603  67.446  1.00  0.00    -0.439 OA 
HETATM   27  C   UNL     1      -8.562  19.298  67.333  1.00  0.00    -0.292 C  
HETATM   28  O   UNL     1      -6.204  19.775  67.122  1.00  0.00    -0.184 OA 
HETATM   29  H   UNL     1      -9.725  20.776  66.769  1.00  0.00     0.000 HD 
HETATM   30  C   UNL     1      -9.659  18.583  68.156  1.00  0.00    -0.327 C  
HETATM   31  H   UNL     1      -6.392  20.693  66.968  1.00  0.00     0.000 HD 
HETATM   32  O   UNL     1      -8.866  20.688  67.165  1.00  0.00    -0.321 OA 
BRANCH  23  33
HETATM   33  C   UNL     1      -5.533  17.482  68.941  1.00  0.00    -0.161 C  
HETATM   34  O   UNL     1      -5.165  18.702  69.602  1.00  0.00    -0.179 OA 
HETATM   35  H   UNL     1      -4.335  18.580  70.048  1.00  0.00     0.000 HD 
ENDBRANCH  23  33
ENDBRANCH  19  21
ENDBRANCH  13  14
ENDBRANCH  10  13
ENDBRANCH   6   7
ENDBRANCH   1   6
TORSDOF 6
ENDMDL
MODEL      132
REMARK 921   NORMALIZED FREE ENERGY PREDICTED BY IDOCK:   -5.96 KCAL/MOL
REMARK 922        TOTAL FREE ENERGY PREDICTED BY IDOCK:   -9.02 KCAL/MOL
REMARK 923 INTER-LIGAND FREE ENERGY PREDICTED BY IDOCK:   -9.13 KCAL/MOL
REMARK 924 INTRA-LIGAND FREE ENERGY PREDICTED BY IDOCK:    0.12 KCAL/MOL
REMARK 927      BINDING AFFINITY PREDICTED BY RF-SCORE:    0.00 PKD
ROOT
HETATM    1  C   UNL     1     -12.854   9.313  71.518  1.00  0.00    -0.354 C  
HETATM    2  C   UNL     1     -11.592   8.692  72.092  1.00  0.00    -0.440 C  
HETATM    3  O   UNL     1     -13.113   6.937  71.756  1.00  0.00    -0.356 OA 
HETATM    4  C   UNL     1     -11.718   7.247  71.688  1.00  0.00    -0.284 C  
HETATM    5  C   UNL     1     -13.853   8.171  71.688  1.00  0.00    -0.375 C  
ENDROOT
BRANCH   1   6
HETATM    6  O   UNL     1     -13.161  10.465  72.297  1.00  0.00    -0.397 OA 
BRANCH   6   7
HETATM    7  C   UNL     1     -13.056  11.695  71.719  1.00  0.00    -0.382 A  
HETATM    8  C   UNL     1     -13.089  14.115  71.644  1.00  0.00    -0.425 A  
HETATM    9  C   UNL     1     -13.344  12.913  72.327  1.00  0.00    -0.597 A  
HETATM   10  C   UNL     1     -12.544  14.113  70.349  1.00  0.00    -0.397 A  
HETATM   11  C   UNL     1     -12.530  11.686  70.426  1.00  0.00    -0.304 A  
HETATM   12  C   UNL     1     -12.284  12.880  69.742  1.00  0.00    -0.227 A  
BRANCH  10  13
HETATM   13  C   UNL     1     -12.164  15.408  69.650  1.00  0.00    -0.312 C  
BRANCH  13  14
HETATM   14  C   UNL     1     -10.982  15.238  68.715  1.00  0.00    -0.260 A  
HETATM   15  C   UNL     1     -10.176  16.297  68.277  1.00  0.00    -0.253 A  
HETATM   16 CL   UNL     1     -10.369  17.912  68.856  1.00  0.00    -0.340 Cl 
HETATM   17  C   UNL     1      -9.191  16.081  67.306  1.00  0.00    -0.215 A  
HETATM   18  C   UNL     1      -9.054  14.827  66.707  1.00  0.00    -0.291 A  
HETATM   19  C   UNL     1      -9.880  13.762  67.088  1.00  0.00    -0.242 A  
HETATM   20  C   UNL     1     -10.773  13.965  68.153  1.00  0.00    -0.260 A  
BRANCH  19  21
HETATM   21  C   UNL     1      -9.956  12.510  66.225  1.00  0.00    -0.252 C  
HETATM   22  O   UNL     1      -8.951  11.586  66.685  1.00  0.00    -0.174 OA 
HETATM   23  C   UNL     1      -9.101  10.274  66.135  1.00  0.00    -0.155 C  
HETATM   24  H   UNL     1     -10.865  13.674  63.280  1.00  0.00     0.000 HD 
HETATM   25  C   UNL     1      -8.924  10.332  64.618  1.00  0.00    -0.211 C  
HETATM   26  O   UNL     1     -10.923  13.551  64.220  1.00  0.00    -0.383 OA 
HETATM   27  C   UNL     1      -9.936  11.321  64.018  1.00  0.00    -0.312 C  
HETATM   28  O   UNL     1      -9.101   9.054  63.998  1.00  0.00    -0.424 OA 
HETATM   29  H   UNL     1     -10.345  12.033  62.236  1.00  0.00     0.000 HD 
HETATM   30  C   UNL     1      -9.862  12.710  64.694  1.00  0.00    -0.038 C  
HETATM   31  H   UNL     1      -8.992   9.091  63.055  1.00  0.00     0.000 HD 
HETATM   32  O   UNL     1      -9.719  11.422  62.606  1.00  0.00    -0.285 OA 
BRANCH  23  33
HETATM   33  C   UNL     1      -8.058   9.366  66.796  1.00  0.00    -0.109 C  
HETATM   34  O   UNL     1      -6.900  10.142  67.137  1.00  0.00    -0.080 OA 
HETATM   35  H   UNL     1      -6.254   9.580  67.547  1.00  0.00     0.000 HD 
ENDBRANCH  23  33
ENDBRANCH  19  21
ENDBRANCH  13  14
ENDBRANCH  10  13
ENDBRANCH   6   7
ENDBRANCH   1   6
TORSDOF 6
ENDMDL
MODEL      133
REMARK 921   NORMALIZED FREE ENERGY PREDICTED BY IDOCK:   -5.96 KCAL/MOL
REMARK 922        TOTAL FREE ENERGY PREDICTED BY IDOCK:   -9.01 KCAL/MOL
REMARK 923 INTER-LIGAND FREE ENERGY PREDICTED BY IDOCK:   -7.48 KCAL/MOL
REMARK 924 INTRA-LIGAND FREE ENERGY PREDICTED BY IDOCK:   -1.53 KCAL/MOL
REMARK 927      BINDING AFFINITY PREDICTED BY RF-SCORE:    0.00 PKD
ROOT
HETATM    1  C   UNL     1      -8.242   4.968  65.790  1.00  0.00    -0.115 C  
HETATM    2  C   UNL     1      -7.434   3.760  65.352  1.00  0.00    -0.077 C  
HETATM    3  O   UNL     1      -8.693   4.436  63.492  1.00  0.00    -0.118 OA 
HETATM    4  C   UNL     1      -7.420   3.893  63.853  1.00  0.00    -0.055 C  
HETATM    5  C   UNL     1      -9.254   5.079  64.652  1.00  0.00     0.034 C  
ENDROOT
BRANCH   1   6
HETATM    6  O   UNL     1      -8.827   4.663  67.051  1.00  0.00    -0.110 OA 
BRANCH   6   7
HETATM    7  C   UNL     1      -8.776   5.597  68.043  1.00  0.00    -0.099 A  
HETATM    8  C   UNL     1      -7.897   7.512  69.235  1.00  0.00    -0.118 A  
HETATM    9  C   UNL     1      -7.768   6.538  68.230  1.00  0.00    -0.105 A  
HETATM   10  C   UNL     1      -9.033   7.556  70.062  1.00  0.00    -0.144 A  
HETATM   11  C   UNL     1      -9.898   5.625  68.872  1.00  0.00    -0.197 A  
HETATM   12  C   UNL     1     -10.024   6.587  69.878  1.00  0.00    -0.191 A  
BRANCH  10  13
HETATM   13  C   UNL     1      -9.228   8.672  71.075  1.00  0.00    -0.253 C  
BRANCH  13  14
HETATM   14  C   UNL     1     -10.440   9.530  70.769  1.00  0.00    -0.384 A  
HETATM   15  C   UNL     1     -11.683   9.379  71.399  1.00  0.00    -0.378 A  
HETATM   16 CL   UNL     1     -11.936   8.266  72.695  1.00  0.00    -0.430 Cl 
HETATM   17  C   UNL     1     -12.791  10.114  70.963  1.00  0.00    -0.474 A  
HETATM   18  C   UNL     1     -12.690  10.948  69.847  1.00  0.00    -0.110 A  
HETATM   19  C   UNL     1     -11.474  11.080  69.165  1.00  0.00    -0.370 A  
HETATM   20  C   UNL     1     -10.344  10.435  69.695  1.00  0.00    -0.261 A  
BRANCH  19  21
HETATM   21  C   UNL     1     -11.440  11.714  67.781  1.00  0.00    -0.302 C  
HETATM   22  O   UNL     1     -10.531  10.956  66.961  1.00  0.00    -0.221 OA 
HETATM   23  C   UNL     1     -10.618  11.287  65.572  1.00  0.00    -0.246 C  
HETATM   24  H   UNL     1     -11.878  14.920  68.408  1.00  0.00     0.000 HD 
HETATM   25  C   UNL     1     -10.215  12.747  65.368  1.00  0.00    -0.283 C  
HETATM   26  O   UNL     1     -12.078  13.992  68.449  1.00  0.00    -0.354 OA 
HETATM   27  C   UNL     1     -11.108  13.654  66.228  1.00  0.00    -0.301 C  
HETATM   28  O   UNL     1     -10.318  13.156  64.001  1.00  0.00    -0.527 OA 
HETATM   29  H   UNL     1     -11.233  15.574  66.616  1.00  0.00     0.000 HD 
HETATM   30  C   UNL     1     -11.114  13.225  67.713  1.00  0.00    -0.265 C  
HETATM   31  H   UNL     1     -10.067  14.064  63.874  1.00  0.00     0.000 HD 
HETATM   32  O   UNL     1     -10.681  15.014  66.084  1.00  0.00    -0.310 OA 
BRANCH  23  33
HETATM   33  C   UNL     1      -9.702  10.329  64.803  1.00  0.00    -0.332 C  
HETATM   34  O   UNL     1      -9.587   9.096  65.528  1.00  0.00    -0.388 OA 
HETATM   35  H   UNL     1      -9.019   8.502  65.052  1.00  0.00     0.000 HD 
ENDBRANCH  23  33
ENDBRANCH  19  21
ENDBRANCH  13  14
ENDBRANCH  10  13
ENDBRANCH   6   7
ENDBRANCH   1   6
TORSDOF 6
ENDMDL
MODEL      134
REMARK 921   NORMALIZED FREE ENERGY PREDICTED BY IDOCK:   -5.96 KCAL/MOL
REMARK 922        TOTAL FREE ENERGY PREDICTED BY IDOCK:   -9.01 KCAL/MOL
REMARK 923 INTER-LIGAND FREE ENERGY PREDICTED BY IDOCK:   -7.59 KCAL/MOL
REMARK 924 INTRA-LIGAND FREE ENERGY PREDICTED BY IDOCK:   -1.43 KCAL/MOL
REMARK 927      BINDING AFFINITY PREDICTED BY RF-SCORE:    0.00 PKD
ROOT
HETATM    1  C   UNL     1      -8.360  18.432  67.979  1.00  0.00    -0.272 C  
HETATM    2  C   UNL     1      -7.279  19.291  68.607  1.00  0.00    -0.367 C  
HETATM    3  O   UNL     1      -7.658  20.153  66.458  1.00  0.00    -0.277 OA 
HETATM    4  C   UNL     1      -7.343  20.556  67.794  1.00  0.00    -0.265 C  
HETATM    5  C   UNL     1      -8.256  18.843  66.512  1.00  0.00    -0.297 C  
ENDROOT
BRANCH   1   6
HETATM    6  O   UNL     1      -8.023  17.069  68.218  1.00  0.00    -0.204 OA 
BRANCH   6   7
HETATM    7  C   UNL     1      -9.014  16.133  68.191  1.00  0.00    -0.185 A  
HETATM    8  C   UNL     1     -11.296  15.324  68.227  1.00  0.00    -0.344 A  
HETATM    9  C   UNL     1     -10.371  16.370  68.388  1.00  0.00    -0.282 A  
HETATM   10  C   UNL     1     -10.876  14.032  67.868  1.00  0.00    -0.255 A  
HETATM   11  C   UNL     1      -8.589  14.848  67.851  1.00  0.00    -0.160 A  
HETATM   12  C   UNL     1      -9.506  13.804  67.700  1.00  0.00    -0.217 A  
BRANCH  10  13
HETATM   13  C   UNL     1     -11.879  12.925  67.586  1.00  0.00    -0.400 C  
BRANCH  13  14
HETATM   14  C   UNL     1     -11.626  11.686  68.422  1.00  0.00    -0.376 A  
HETATM   15  C   UNL     1     -11.733  11.651  69.819  1.00  0.00    -0.352 A  
HETATM   16 CL   UNL     1     -12.288  13.002  70.740  1.00  0.00    -0.441 Cl 
HETATM   17  C   UNL     1     -11.349  10.508  70.530  1.00  0.00    -0.400 A  
HETATM   18  C   UNL     1     -10.782   9.420  69.862  1.00  0.00    -0.258 A  
HETATM   19  C   UNL     1     -10.616   9.446  68.472  1.00  0.00    -0.234 A  
HETATM   20  C   UNL     1     -11.125  10.547  67.764  1.00  0.00    -0.382 A  
BRANCH  19  21
HETATM   21  C   UNL     1      -9.716   8.422  67.793  1.00  0.00    -0.162 C  
HETATM   22  O   UNL     1      -8.938   9.104  66.790  1.00  0.00    -0.124 OA 
HETATM   23  C   UNL     1      -7.867   8.307  66.272  1.00  0.00    -0.098 C  
HETATM   24  H   UNL     1     -11.522   5.667  67.853  1.00  0.00     0.000 HD 
HETATM   25  C   UNL     1      -8.440   7.079  65.566  1.00  0.00    -0.114 C  
HETATM   26  O   UNL     1     -11.099   6.435  68.218  1.00  0.00    -0.308 OA 
HETATM   27  C   UNL     1      -9.321   6.285  66.543  1.00  0.00    -0.151 C  
HETATM   28  O   UNL     1      -7.418   6.216  65.057  1.00  0.00    -0.073 OA 
HETATM   29  H   UNL     1     -10.452   4.683  66.460  1.00  0.00     0.000 HD 
HETATM   30  C   UNL     1     -10.405   7.171  67.199  1.00  0.00    -0.289 C  
HETATM   31  H   UNL     1      -7.774   5.452  64.618  1.00  0.00     0.000 HD 
HETATM   32  O   UNL     1      -9.908   5.174  65.856  1.00  0.00    -0.164 OA 
BRANCH  23  33
HETATM   33  C   UNL     1      -7.049   9.184  65.319  1.00  0.00    -0.088 C  
HETATM   34  O   UNL     1      -5.719   8.656  65.212  1.00  0.00    -0.046 OA 
HETATM   35  H   UNL     1      -5.211   9.200  64.620  1.00  0.00     0.000 HD 
ENDBRANCH  23  33
ENDBRANCH  19  21
ENDBRANCH  13  14
ENDBRANCH  10  13
ENDBRANCH   6   7
ENDBRANCH   1   6
TORSDOF 6
ENDMDL
MODEL      135
REMARK 921   NORMALIZED FREE ENERGY PREDICTED BY IDOCK:   -5.92 KCAL/MOL
REMARK 922        TOTAL FREE ENERGY PREDICTED BY IDOCK:   -8.97 KCAL/MOL
REMARK 923 INTER-LIGAND FREE ENERGY PREDICTED BY IDOCK:   -7.30 KCAL/MOL
REMARK 924 INTRA-LIGAND FREE ENERGY PREDICTED BY IDOCK:   -1.67 KCAL/MOL
REMARK 927      BINDING AFFINITY PREDICTED BY RF-SCORE:    0.00 PKD
ROOT
HETATM    1  C   UNL     1      -6.511  11.275  69.399  1.00  0.00    -0.105 C  
HETATM    2  C   UNL     1      -6.815  10.211  70.439  1.00  0.00    -0.129 C  
HETATM    3  O   UNL     1      -8.675  10.308  69.011  1.00  0.00    -0.143 OA 
HETATM    4  C   UNL     1      -7.885   9.389  69.772  1.00  0.00    -0.115 C  
HETATM    5  C   UNL     1      -7.890  11.494  68.782  1.00  0.00    -0.117 C  
ENDROOT
BRANCH   1   6
HETATM    6  O   UNL     1      -6.001  12.414  70.083  1.00  0.00    -0.148 OA 
BRANCH   6   7
HETATM    7  C   UNL     1      -6.069  13.632  69.473  1.00  0.00    -0.114 A  
HETATM    8  C   UNL     1      -5.654  15.260  67.730  1.00  0.00    -0.114 A  
HETATM    9  C   UNL     1      -5.408  14.001  68.306  1.00  0.00    -0.112 A  
HETATM   10  C   UNL     1      -6.561  16.161  68.314  1.00  0.00    -0.127 A  
HETATM   11  C   UNL     1      -6.958  14.529  70.067  1.00  0.00    -0.019 A  
HETATM   12  C   UNL     1      -7.197  15.784  69.501  1.00  0.00    -0.186 A  
BRANCH  10  13
HETATM   13  C   UNL     1      -6.913  17.476  67.637  1.00  0.00    -0.179 C  
BRANCH  13  14
HETATM   14  C   UNL     1      -8.251  17.423  66.926  1.00  0.00    -0.258 A  
HETATM   15  C   UNL     1      -9.009  18.556  66.603  1.00  0.00    -0.295 A  
HETATM   16 CL   UNL     1      -8.437  20.163  66.875  1.00  0.00    -0.373 Cl 
HETATM   17  C   UNL     1     -10.296  18.419  66.072  1.00  0.00    -0.397 A  
HETATM   18  C   UNL     1     -10.870  17.153  65.932  1.00  0.00    -0.017 A  
HETATM   19  C   UNL     1     -10.157  16.005  66.294  1.00  0.00    -0.329 A  
HETATM   20  C   UNL     1      -8.821  16.155  66.702  1.00  0.00    -0.298 A  
BRANCH  19  21
HETATM   21  C   UNL     1     -10.882  14.675  66.451  1.00  0.00    -0.315 C  
HETATM   22  O   UNL     1     -10.987  14.385  67.859  1.00  0.00    -0.252 OA 
HETATM   23  C   UNL     1     -11.881  13.304  68.144  1.00  0.00    -0.353 C  
HETATM   24  H   UNL     1      -9.927  12.973  63.796  1.00  0.00     0.000 HD 
HETATM   25  C   UNL     1     -11.347  12.019  67.511  1.00  0.00    -0.319 C  
HETATM   26  O   UNL     1     -10.285  13.715  64.269  1.00  0.00    -0.350 OA 
HETATM   27  C   UNL     1     -11.165  12.225  66.000  1.00  0.00    -0.332 C  
HETATM   28  O   UNL     1     -12.217  10.903  67.726  1.00  0.00    -0.445 OA 
HETATM   29  H   UNL     1     -10.489  11.168  64.490  1.00  0.00     0.000 HD 
HETATM   30  C   UNL     1     -10.299  13.466  65.682  1.00  0.00    -0.290 C  
HETATM   31  H   UNL     1     -11.885  10.104  67.332  1.00  0.00     0.000 HD 
HETATM   32  O   UNL     1     -10.601  11.040  65.425  1.00  0.00    -0.258 OA 
BRANCH  23  33
HETATM   33  C   UNL     1     -12.000  13.183  69.667  1.00  0.00    -0.306 C  
HETATM   34  O   UNL     1     -11.340  11.985  70.101  1.00  0.00    -0.507 OA 
HETATM   35  H   UNL     1     -11.414  11.910  71.046  1.00  0.00     0.000 HD 
ENDBRANCH  23  33
ENDBRANCH  19  21
ENDBRANCH  13  14
ENDBRANCH  10  13
ENDBRANCH   6   7
ENDBRANCH   1   6
TORSDOF 6
ENDMDL
MODEL      136
REMARK 921   NORMALIZED FREE ENERGY PREDICTED BY IDOCK:   -5.89 KCAL/MOL
REMARK 922        TOTAL FREE ENERGY PREDICTED BY IDOCK:   -8.92 KCAL/MOL
REMARK 923 INTER-LIGAND FREE ENERGY PREDICTED BY IDOCK:   -8.29 KCAL/MOL
REMARK 924 INTRA-LIGAND FREE ENERGY PREDICTED BY IDOCK:   -0.63 KCAL/MOL
REMARK 927      BINDING AFFINITY PREDICTED BY RF-SCORE:    0.00 PKD
ROOT
HETATM    1  C   UNL     1      -8.950  16.653  67.709  1.00  0.00    -0.211 C  
HETATM    2  C   UNL     1      -8.697  17.072  66.272  1.00  0.00    -0.285 C  
HETATM    3  O   UNL     1      -7.081  18.156  67.584  1.00  0.00    -0.196 OA 
HETATM    4  C   UNL     1      -7.265  17.537  66.307  1.00  0.00    -0.316 C  
HETATM    5  C   UNL     1      -8.107  17.672  68.471  1.00  0.00    -0.283 C  
ENDROOT
BRANCH   1   6
HETATM    6  O   UNL     1     -10.348  16.767  67.952  1.00  0.00    -0.293 OA 
BRANCH   6   7
HETATM    7  C   UNL     1     -10.996  15.732  68.559  1.00  0.00    -0.312 A  
HETATM    8  C   UNL     1     -12.021  13.544  68.705  1.00  0.00    -0.378 A  
HETATM    9  C   UNL     1     -11.463  14.579  67.935  1.00  0.00    -0.348 A  
HETATM   10  C   UNL     1     -12.118  13.649  70.103  1.00  0.00    -0.431 A  
HETATM   11  C   UNL     1     -11.105  15.849  69.946  1.00  0.00    -0.343 A  
HETATM   12  C   UNL     1     -11.668  14.825  70.712  1.00  0.00    -0.355 A  
BRANCH  10  13
HETATM   13  C   UNL     1     -12.618  12.489  70.949  1.00  0.00    -0.331 C  
BRANCH  13  14
HETATM   14  C   UNL     1     -12.080  11.152  70.477  1.00  0.00    -0.474 A  
HETATM   15  C   UNL     1     -12.341   9.935  71.120  1.00  0.00    -0.370 A  
HETATM   16 CL   UNL     1     -13.416   9.809  72.466  1.00  0.00    -0.360 Cl 
HETATM   17  C   UNL     1     -11.697   8.764  70.706  1.00  0.00    -0.253 A  
HETATM   18  C   UNL     1     -10.728   8.809  69.700  1.00  0.00    -0.212 A  
HETATM   19  C   UNL     1     -10.409  10.020  69.074  1.00  0.00    -0.223 A  
HETATM   20  C   UNL     1     -11.158  11.159  69.413  1.00  0.00    -0.314 A  
BRANCH  19  21
HETATM   21  C   UNL     1      -9.148  10.131  68.228  1.00  0.00    -0.122 C  
HETATM   22  O   UNL     1      -8.329  11.182  68.778  1.00  0.00    -0.150 OA 
HETATM   23  C   UNL     1      -7.004  11.201  68.238  1.00  0.00    -0.070 C  
HETATM   24  H   UNL     1     -10.194   9.348  65.203  1.00  0.00     0.000 HD 
HETATM   25  C   UNL     1      -7.067  11.489  66.739  1.00  0.00    -0.112 C  
HETATM   26  O   UNL     1     -10.074   9.229  66.138  1.00  0.00    -0.288 OA 
HETATM   27  C   UNL     1      -7.948  10.438  66.048  1.00  0.00    -0.144 C  
HETATM   28  O   UNL     1      -5.773  11.484  66.128  1.00  0.00    -0.384 OA 
HETATM   29  H   UNL     1      -8.603  10.103  64.228  1.00  0.00     0.000 HD 
HETATM   30  C   UNL     1      -9.343  10.326  66.706  1.00  0.00    -0.160 C  
HETATM   31  H   UNL     1      -5.812  11.663  65.195  1.00  0.00     0.000 HD 
HETATM   32  O   UNL     1      -8.058  10.753  64.655  1.00  0.00    -0.044 OA 
BRANCH  23  33
HETATM   33  C   UNL     1      -6.207  12.271  68.992  1.00  0.00    -0.082 C  
HETATM   34  O   UNL     1      -6.321  12.042  70.404  1.00  0.00    -0.449 OA 
HETATM   35  H   UNL     1      -5.827  12.705  70.872  1.00  0.00     0.000 HD 
ENDBRANCH  23  33
ENDBRANCH  19  21
ENDBRANCH  13  14
ENDBRANCH  10  13
ENDBRANCH   6   7
ENDBRANCH   1   6
TORSDOF 6
ENDMDL
MODEL      137
REMARK 921   NORMALIZED FREE ENERGY PREDICTED BY IDOCK:   -5.89 KCAL/MOL
REMARK 922        TOTAL FREE ENERGY PREDICTED BY IDOCK:   -8.92 KCAL/MOL
REMARK 923 INTER-LIGAND FREE ENERGY PREDICTED BY IDOCK:   -7.67 KCAL/MOL
REMARK 924 INTRA-LIGAND FREE ENERGY PREDICTED BY IDOCK:   -1.25 KCAL/MOL
REMARK 927      BINDING AFFINITY PREDICTED BY RF-SCORE:    0.00 PKD
ROOT
HETATM    1  C   UNL     1     -10.714   4.985  72.517  1.00  0.00    -0.212 C  
HETATM    2  C   UNL     1      -9.983   3.706  72.150  1.00  0.00    -0.238 C  
HETATM    3  O   UNL     1     -10.539   3.535  74.423  1.00  0.00    -0.198 OA 
HETATM    4  C   UNL     1     -10.415   2.752  73.231  1.00  0.00    -0.156 C  
HETATM    5  C   UNL     1     -10.693   4.915  74.042  1.00  0.00    -0.294 C  
ENDROOT
BRANCH   1   6
HETATM    6  O   UNL     1      -9.972   6.076  71.982  1.00  0.00    -0.169 OA 
BRANCH   6   7
HETATM    7  C   UNL     1     -10.137   6.401  70.668  1.00  0.00    -0.187 A  
HETATM    8  C   UNL     1     -11.350   6.672  68.591  1.00  0.00    -0.148 A  
HETATM    9  C   UNL     1     -11.284   6.189  69.909  1.00  0.00    -0.484 A  
HETATM   10  C   UNL     1     -10.274   7.371  68.018  1.00  0.00    -0.234 A  
HETATM   11  C   UNL     1      -9.058   7.080  70.099  1.00  0.00    -0.149 A  
HETATM   12  C   UNL     1      -9.119   7.553  68.785  1.00  0.00    -0.135 A  
BRANCH  10  13
HETATM   13  C   UNL     1     -10.382   7.989  66.634  1.00  0.00    -0.273 C  
BRANCH  13  14
HETATM   14  C   UNL     1      -9.979   9.451  66.618  1.00  0.00    -0.326 A  
HETATM   15  C   UNL     1      -8.685   9.901  66.322  1.00  0.00    -0.139 A  
HETATM   16 CL   UNL     1      -7.425   8.833  65.818  1.00  0.00    -0.085 Cl 
HETATM   17  C   UNL     1      -8.356  11.254  66.464  1.00  0.00    -0.168 A  
HETATM   18  C   UNL     1      -9.291  12.157  66.977  1.00  0.00    -0.201 A  
HETATM   19  C   UNL     1     -10.576  11.727  67.330  1.00  0.00    -0.258 A  
HETATM   20  C   UNL     1     -10.926  10.394  67.059  1.00  0.00    -0.222 A  
BRANCH  19  21
HETATM   21  C   UNL     1     -11.471  12.618  68.181  1.00  0.00    -0.313 C  
HETATM   22  O   UNL     1     -10.940  13.957  68.140  1.00  0.00    -0.238 OA 
HETATM   23  C   UNL     1     -11.839  14.934  68.675  1.00  0.00    -0.300 C  
HETATM   24  H   UNL     1     -12.495  10.600  70.575  1.00  0.00     0.000 HD 
HETATM   25  C   UNL     1     -12.083  14.647  70.156  1.00  0.00    -0.327 C  
HETATM   26  O   UNL     1     -12.341  10.876  69.679  1.00  0.00    -0.328 OA 
HETATM   27  C   UNL     1     -12.627  13.220  70.322  1.00  0.00    -0.090 C  
HETATM   28  O   UNL     1     -13.007  15.567  70.745  1.00  0.00    -0.488 OA 
HETATM   29  H   UNL     1     -13.125  12.052  71.819  1.00  0.00     0.000 HD 
HETATM   30  C   UNL     1     -11.721  12.169  69.640  1.00  0.00    -0.325 C  
HETATM   31  H   UNL     1     -13.159  15.389  71.666  1.00  0.00     0.000 HD 
HETATM   32  O   UNL     1     -12.789  12.934  71.717  1.00  0.00    -0.305 OA 
BRANCH  23  33
HETATM   33  C   UNL     1     -11.213  16.315  68.457  1.00  0.00    -0.359 C  
HETATM   34  O   UNL     1     -10.557  16.735  69.662  1.00  0.00    -0.319 OA 
HETATM   35  H   UNL     1     -10.169  17.592  69.527  1.00  0.00     0.000 HD 
ENDBRANCH  23  33
ENDBRANCH  19  21
ENDBRANCH  13  14
ENDBRANCH  10  13
ENDBRANCH   6   7
ENDBRANCH   1   6
TORSDOF 6
ENDMDL
MODEL      138
REMARK 921   NORMALIZED FREE ENERGY PREDICTED BY IDOCK:   -5.88 KCAL/MOL
REMARK 922        TOTAL FREE ENERGY PREDICTED BY IDOCK:   -8.90 KCAL/MOL
REMARK 923 INTER-LIGAND FREE ENERGY PREDICTED BY IDOCK:   -8.86 KCAL/MOL
REMARK 924 INTRA-LIGAND FREE ENERGY PREDICTED BY IDOCK:   -0.04 KCAL/MOL
REMARK 927      BINDING AFFINITY PREDICTED BY RF-SCORE:    0.00 PKD
ROOT
HETATM    1  C   UNL     1      -7.686   4.142  71.126  1.00  0.00    -0.066 C  
HETATM    2  C   UNL     1      -7.511   4.067  69.620  1.00  0.00    -0.053 C  
HETATM    3  O   UNL     1      -5.537   3.227  70.569  1.00  0.00    -0.012 OA 
HETATM    4  C   UNL     1      -6.422   3.040  69.461  1.00  0.00    -0.029 C  
HETATM    5  C   UNL     1      -6.253   3.926  71.605  1.00  0.00    -0.014 C  
ENDROOT
BRANCH   1   6
HETATM    6  O   UNL     1      -8.207   5.430  71.436  1.00  0.00    -0.113 OA 
BRANCH   6   7
HETATM    7  C   UNL     1      -8.867   6.124  70.465  1.00  0.00    -0.146 A  
HETATM    8  C   UNL     1     -10.664   6.587  68.910  1.00  0.00    -0.318 A  
HETATM    9  C   UNL     1     -10.032   5.721  69.819  1.00  0.00    -0.250 A  
HETATM   10  C   UNL     1     -10.141   7.863  68.639  1.00  0.00    -0.210 A  
HETATM   11  C   UNL     1      -8.334   7.383  70.187  1.00  0.00    -0.136 A  
HETATM   12  C   UNL     1      -8.956   8.242  69.277  1.00  0.00    -0.147 A  
BRANCH  10  13
HETATM   13  C   UNL     1     -10.879   8.844  67.742  1.00  0.00    -0.106 C  
BRANCH  13  14
HETATM   14  C   UNL     1     -11.125  10.178  68.421  1.00  0.00    -0.273 A  
HETATM   15  C   UNL     1     -11.645  10.311  69.716  1.00  0.00    -0.227 A  
HETATM   16 CL   UNL     1     -11.950   8.952  70.736  1.00  0.00    -0.235 Cl 
HETATM   17  C   UNL     1     -11.974  11.574  70.219  1.00  0.00    -0.455 A  
HETATM   18  C   UNL     1     -11.863  12.707  69.410  1.00  0.00    -0.356 A  
HETATM   19  C   UNL     1     -11.395  12.599  68.095  1.00  0.00    -0.334 A  
HETATM   20  C   UNL     1     -10.949  11.343  67.652  1.00  0.00    -0.303 A  
BRANCH  19  21
HETATM   21  C   UNL     1     -11.581  13.755  67.122  1.00  0.00    -0.364 C  
HETATM   22  O   UNL     1     -11.831  13.206  65.813  1.00  0.00    -0.356 OA 
HETATM   23  C   UNL     1     -12.287  14.183  64.872  1.00  0.00    -0.430 C  
HETATM   24  H   UNL     1      -9.576  16.081  68.318  1.00  0.00     0.000 HD 
HETATM   25  C   UNL     1     -11.200  15.236  64.661  1.00  0.00    -0.356 C  
HETATM   26  O   UNL     1     -10.269  15.432  68.350  1.00  0.00    -0.217 OA 
HETATM   27  C   UNL     1     -10.830  15.873  66.009  1.00  0.00    -0.225 C  
HETATM   28  O   UNL     1     -11.609  16.267  63.757  1.00  0.00    -1.539 OA 
HETATM   29  H   UNL     1      -9.535  17.203  66.647  1.00  0.00     0.000 HD 
HETATM   30  C   UNL     1     -10.452  14.812  67.069  1.00  0.00    -0.270 C  
HETATM   31  H   UNL     1     -10.933  16.922  63.626  1.00  0.00     0.000 HD 
HETATM   32  O   UNL     1      -9.764  16.809  65.813  1.00  0.00    -0.504 OA 
BRANCH  23  33
HETATM   33  C   UNL     1     -12.635  13.453  63.571  1.00  0.00    -0.045 C  
HETATM   34  O   UNL     1     -11.438  12.910  62.995  1.00  0.00    -0.770 OA 
HETATM   35  H   UNL     1     -11.653  12.458  62.188  1.00  0.00     0.000 HD 
ENDBRANCH  23  33
ENDBRANCH  19  21
ENDBRANCH  13  14
ENDBRANCH  10  13
ENDBRANCH   6   7
ENDBRANCH   1   6
TORSDOF 6
ENDMDL
MODEL      139
REMARK 921   NORMALIZED FREE ENERGY PREDICTED BY IDOCK:   -5.83 KCAL/MOL
REMARK 922        TOTAL FREE ENERGY PREDICTED BY IDOCK:   -8.84 KCAL/MOL
REMARK 923 INTER-LIGAND FREE ENERGY PREDICTED BY IDOCK:   -7.57 KCAL/MOL
REMARK 924 INTRA-LIGAND FREE ENERGY PREDICTED BY IDOCK:   -1.27 KCAL/MOL
REMARK 927      BINDING AFFINITY PREDICTED BY RF-SCORE:    0.00 PKD
ROOT
HETATM    1  C   UNL     1      -7.962  18.991  68.301  1.00  0.00    -0.315 C  
HETATM    2  C   UNL     1      -6.601  19.654  68.416  1.00  0.00    -0.307 C  
HETATM    3  O   UNL     1      -7.189  19.713  66.145  1.00  0.00    -0.245 OA 
HETATM    4  C   UNL     1      -6.523  20.475  67.156  1.00  0.00    -0.246 C  
HETATM    5  C   UNL     1      -8.060  18.768  66.795  1.00  0.00    -0.265 C  
ENDROOT
BRANCH   1   6
HETATM    6  O   UNL     1      -7.921  17.787  69.059  1.00  0.00    -0.205 OA 
BRANCH   6   7
HETATM    7  C   UNL     1      -8.941  16.891  68.926  1.00  0.00    -0.215 A  
HETATM    8  C   UNL     1     -11.243  16.179  68.694  1.00  0.00    -0.369 A  
HETATM    9  C   UNL     1     -10.300  17.189  68.950  1.00  0.00    -0.348 A  
HETATM   10  C   UNL     1     -10.838  14.862  68.411  1.00  0.00    -0.252 A  
HETATM   11  C   UNL     1      -8.534  15.583  68.663  1.00  0.00    -0.174 A  
HETATM   12  C   UNL     1      -9.469  14.575  68.417  1.00  0.00    -0.209 A  
BRANCH  10  13
HETATM   13  C   UNL     1     -11.846  13.793  68.026  1.00  0.00    -0.408 C  
BRANCH  13  14
HETATM   14  C   UNL     1     -11.955  12.695  69.067  1.00  0.00    -0.282 A  
HETATM   15  C   UNL     1     -12.523  12.875  70.335  1.00  0.00    -0.173 A  
HETATM   16 CL   UNL     1     -13.281  14.353  70.810  1.00  0.00    -0.361 Cl 
HETATM   17  C   UNL     1     -12.461  11.854  71.290  1.00  0.00    -0.319 A  
HETATM   18  C   UNL     1     -11.764  10.675  71.017  1.00  0.00    -0.329 A  
HETATM   19  C   UNL     1     -11.142  10.487  69.777  1.00  0.00    -0.354 A  
HETATM   20  C   UNL     1     -11.325  11.467  68.788  1.00  0.00    -0.327 A  
BRANCH  19  21
HETATM   21  C   UNL     1     -10.123   9.369  69.597  1.00  0.00    -0.206 C  
HETATM   22  O   UNL     1     -10.614   8.201  70.282  1.00  0.00    -0.219 OA 
HETATM   23  C   UNL     1      -9.882   7.013  69.961  1.00  0.00    -0.177 C  
HETATM   24  H   UNL     1      -7.246  10.972  69.511  1.00  0.00     0.000 HD 
HETATM   25  C   UNL     1      -8.433   7.166  70.421  1.00  0.00    -0.140 C  
HETATM   26  O   UNL     1      -8.141  10.782  69.257  1.00  0.00    -0.150 OA 
HETATM   27  C   UNL     1      -7.813   8.412  69.770  1.00  0.00    -0.099 C  
HETATM   28  O   UNL     1      -7.633   6.025  70.094  1.00  0.00    -0.090 OA 
HETATM   29  H   UNL     1      -6.095   9.357  69.855  1.00  0.00     0.000 HD 
HETATM   30  C   UNL     1      -8.665   9.679  70.011  1.00  0.00    -0.231 C  
HETATM   31  H   UNL     1      -6.732   6.120  70.380  1.00  0.00     0.000 HD 
HETATM   32  O   UNL     1      -6.477   8.587  70.258  1.00  0.00    -0.037 OA 
BRANCH  23  33
HETATM   33  C   UNL     1     -10.577   5.833  70.648  1.00  0.00    -0.277 C  
HETATM   34  O   UNL     1     -10.269   4.623  69.942  1.00  0.00    -0.237 OA 
HETATM   35  H   UNL     1     -10.700   3.891  70.368  1.00  0.00     0.000 HD 
ENDBRANCH  23  33
ENDBRANCH  19  21
ENDBRANCH  13  14
ENDBRANCH  10  13
ENDBRANCH   6   7
ENDBRANCH   1   6
TORSDOF 6
ENDMDL
MODEL      140
REMARK 921   NORMALIZED FREE ENERGY PREDICTED BY IDOCK:   -5.80 KCAL/MOL
REMARK 922        TOTAL FREE ENERGY PREDICTED BY IDOCK:   -8.81 KCAL/MOL
REMARK 923 INTER-LIGAND FREE ENERGY PREDICTED BY IDOCK:   -7.75 KCAL/MOL
REMARK 924 INTRA-LIGAND FREE ENERGY PREDICTED BY IDOCK:   -1.06 KCAL/MOL
REMARK 927      BINDING AFFINITY PREDICTED BY RF-SCORE:    0.00 PKD
ROOT
HETATM    1  C   UNL     1      -8.933   4.363  66.542  1.00  0.00    -0.117 C  
HETATM    2  C   UNL     1      -8.668   3.226  65.571  1.00  0.00    -0.123 C  
HETATM    3  O   UNL     1     -10.551   4.373  64.768  1.00  0.00    -0.164 OA 
HETATM    4  C   UNL     1      -9.381   3.678  64.325  1.00  0.00    -0.144 C  
HETATM    5  C   UNL     1     -10.341   4.786  66.132  1.00  0.00    -0.300 C  
ENDROOT
BRANCH   1   6
HETATM    6  O   UNL     1      -8.854   3.833  67.861  1.00  0.00    -0.099 OA 
BRANCH   6   7
HETATM    7  C   UNL     1      -8.950   4.687  68.920  1.00  0.00    -0.108 A  
HETATM    8  C   UNL     1      -8.791   6.811  70.071  1.00  0.00    -0.142 A  
HETATM    9  C   UNL     1      -8.532   6.014  68.942  1.00  0.00    -0.116 A  
HETATM   10  C   UNL     1      -9.469   6.291  71.187  1.00  0.00    -0.183 A  
HETATM   11  C   UNL     1      -9.609   4.160  70.032  1.00  0.00    -0.274 A  
HETATM   12  C   UNL     1      -9.859   4.948  71.158  1.00  0.00    -0.261 A  
BRANCH  10  13
HETATM   13  C   UNL     1      -9.847   7.176  72.363  1.00  0.00    -0.174 C  
BRANCH  13  14
HETATM   14  C   UNL     1     -11.112   7.973  72.106  1.00  0.00    -0.372 A  
HETATM   15  C   UNL     1     -12.391   7.406  72.030  1.00  0.00    -0.266 A  
HETATM   16 CL   UNL     1     -12.683   5.733  72.344  1.00  0.00     0.193 Cl 
HETATM   17  C   UNL     1     -13.489   8.186  71.652  1.00  0.00    -0.363 A  
HETATM   18  C   UNL     1     -13.311   9.518  71.271  1.00  0.00    -0.385 A  
HETATM   19  C   UNL     1     -12.037  10.098  71.288  1.00  0.00    -0.489 A  
HETATM   20  C   UNL     1     -10.970   9.338  71.793  1.00  0.00    -0.383 A  
BRANCH  19  21
HETATM   21  C   UNL     1     -11.793  11.421  70.573  1.00  0.00    -0.297 C  
HETATM   22  O   UNL     1     -12.713  12.394  71.104  1.00  0.00    -0.351 OA 
HETATM   23  C   UNL     1     -12.402  13.734  70.709  1.00  0.00    -0.379 C  
HETATM   24  H   UNL     1     -10.889  10.491  67.544  1.00  0.00     0.000 HD 
HETATM   25  C   UNL     1     -12.520  13.860  69.191  1.00  0.00     0.071 C  
HETATM   26  O   UNL     1     -10.858  10.504  68.494  1.00  0.00    -0.203 OA 
HETATM   27  C   UNL     1     -11.595  12.837  68.514  1.00  0.00    -0.321 C  
HETATM   28  O   UNL     1     -12.184  15.170  68.724  1.00  0.00    -0.573 OA 
HETATM   29  H   UNL     1     -11.189  12.282  66.676  1.00  0.00     0.000 HD 
HETATM   30  C   UNL     1     -11.844  11.400  69.027  1.00  0.00    -0.348 C  
HETATM   31  H   UNL     1     -12.257  15.248  67.780  1.00  0.00     0.000 HD 
HETATM   32  O   UNL     1     -11.762  12.915  67.094  1.00  0.00    -0.344 OA 
BRANCH  23  33
HETATM   33  C   UNL     1     -13.370  14.674  71.437  1.00  0.00    -0.372 C  
HETATM   34  O   UNL     1     -12.620  15.663  72.157  1.00  0.00    -0.363 OA 
HETATM   35  H   UNL     1     -13.220  16.246  72.608  1.00  0.00     0.000 HD 
ENDBRANCH  23  33
ENDBRANCH  19  21
ENDBRANCH  13  14
ENDBRANCH  10  13
ENDBRANCH   6   7
ENDBRANCH   1   6
TORSDOF 6
ENDMDL
MODEL      141
REMARK 921   NORMALIZED FREE ENERGY PREDICTED BY IDOCK:   -5.79 KCAL/MOL
REMARK 922        TOTAL FREE ENERGY PREDICTED BY IDOCK:   -8.79 KCAL/MOL
REMARK 923 INTER-LIGAND FREE ENERGY PREDICTED BY IDOCK:   -7.76 KCAL/MOL
REMARK 924 INTRA-LIGAND FREE ENERGY PREDICTED BY IDOCK:   -1.03 KCAL/MOL
REMARK 927      BINDING AFFINITY PREDICTED BY RF-SCORE:    0.00 PKD
ROOT
HETATM    1  C   UNL     1      -7.935   7.265  68.332  1.00  0.00    -0.124 C  
HETATM    2  C   UNL     1      -7.421   7.360  66.907  1.00  0.00    -0.097 C  
HETATM    3  O   UNL     1      -6.338   5.526  67.890  1.00  0.00    -0.039 OA 
HETATM    4  C   UNL     1      -6.890   5.976  66.649  1.00  0.00    -0.062 C  
HETATM    5  C   UNL     1      -6.922   6.305  68.952  1.00  0.00    -0.076 C  
ENDROOT
BRANCH   1   6
HETATM    6  O   UNL     1      -7.904   8.573  68.891  1.00  0.00    -0.105 OA 
BRANCH   6   7
HETATM    7  C   UNL     1      -9.084   9.214  69.131  1.00  0.00    -0.144 A  
HETATM    8  C   UNL     1     -10.830  10.201  70.486  1.00  0.00    -0.340 A  
HETATM    9  C   UNL     1      -9.659   9.431  70.379  1.00  0.00    -0.319 A  
HETATM   10  C   UNL     1     -11.436  10.763  69.350  1.00  0.00    -0.366 A  
HETATM   11  C   UNL     1      -9.690   9.756  67.997  1.00  0.00    -0.165 A  
HETATM   12  C   UNL     1     -10.859  10.515  68.100  1.00  0.00    -0.300 A  
BRANCH  10  13
HETATM   13  C   UNL     1     -12.637  11.687  69.471  1.00  0.00     0.168 C  
BRANCH  13  14
HETATM   14  C   UNL     1     -12.279  13.027  70.084  1.00  0.00    -0.342 A  
HETATM   15  C   UNL     1     -12.670  13.428  71.368  1.00  0.00    -0.322 A  
HETATM   16 CL   UNL     1     -13.511  12.379  72.452  1.00  0.00    -0.491 Cl 
HETATM   17  C   UNL     1     -12.420  14.732  71.809  1.00  0.00    -0.410 A  
HETATM   18  C   UNL     1     -11.848  15.671  70.947  1.00  0.00    -0.428 A  
HETATM   19  C   UNL     1     -11.494  15.314  69.641  1.00  0.00    -0.321 A  
HETATM   20  C   UNL     1     -11.634  13.969  69.261  1.00  0.00    -0.356 A  
BRANCH  19  21
HETATM   21  C   UNL     1     -11.183  16.393  68.612  1.00  0.00    -0.332 C  
HETATM   22  O   UNL     1     -10.949  15.751  67.344  1.00  0.00    -0.320 OA 
HETATM   23  C   UNL     1     -10.914  16.670  66.247  1.00  0.00     0.123 C  
HETATM   24  H   UNL     1      -9.610  18.689  70.376  1.00  0.00     0.000 HD 
HETATM   25  C   UNL     1      -9.744  17.636  66.427  1.00  0.00    -0.294 C  
HETATM   26  O   UNL     1     -10.314  18.087  70.167  1.00  0.00     0.605 OA 
HETATM   27  C   UNL     1      -9.875  18.361  67.775  1.00  0.00    -0.319 C  
HETATM   28  O   UNL     1      -9.675  18.610  65.381  1.00  0.00     0.003 OA 
HETATM   29  H   UNL     1      -8.822  19.662  68.800  1.00  0.00     0.000 HD 
HETATM   30  C   UNL     1     -10.036  17.374  68.953  1.00  0.00    -0.308 C  
HETATM   31  H   UNL     1      -8.947  19.211  65.493  1.00  0.00     0.000 HD 
HETATM   32  O   UNL     1      -8.740  19.214  67.967  1.00  0.00    -0.292 OA 
BRANCH  23  33
HETATM   33  C   UNL     1     -10.789  15.855  64.956  1.00  0.00    -0.426 C  
HETATM   34  O   UNL     1     -11.405  16.574  63.878  1.00  0.00    -1.557 OA 
HETATM   35  H   UNL     1     -11.327  16.069  63.077  1.00  0.00     0.000 HD 
ENDBRANCH  23  33
ENDBRANCH  19  21
ENDBRANCH  13  14
ENDBRANCH  10  13
ENDBRANCH   6   7
ENDBRANCH   1   6
TORSDOF 6
ENDMDL
MODEL      142
REMARK 921   NORMALIZED FREE ENERGY PREDICTED BY IDOCK:   -5.78 KCAL/MOL
REMARK 922        TOTAL FREE ENERGY PREDICTED BY IDOCK:   -8.77 KCAL/MOL
REMARK 923 INTER-LIGAND FREE ENERGY PREDICTED BY IDOCK:   -7.87 KCAL/MOL
REMARK 924 INTRA-LIGAND FREE ENERGY PREDICTED BY IDOCK:   -0.90 KCAL/MOL
REMARK 927      BINDING AFFINITY PREDICTED BY RF-SCORE:    0.00 PKD
ROOT
HETATM    1  C   UNL     1      -8.324  18.623  67.328  1.00  0.00    -0.261 C  
HETATM    2  C   UNL     1      -9.192  19.159  66.205  1.00  0.00    -0.335 C  
HETATM    3  O   UNL     1      -9.798  20.334  68.144  1.00  0.00    -0.353 OA 
HETATM    4  C   UNL     1      -9.630  20.500  66.732  1.00  0.00    -0.310 C  
HETATM    5  C   UNL     1      -9.042  19.179  68.555  1.00  0.00    -0.371 C  
ENDROOT
BRANCH   1   6
HETATM    6  O   UNL     1      -8.342  17.202  67.247  1.00  0.00    -0.186 OA 
BRANCH   6   7
HETATM    7  C   UNL     1      -9.244  16.512  68.003  1.00  0.00    -0.214 A  
HETATM    8  C   UNL     1     -10.114  15.473  70.008  1.00  0.00    -0.241 A  
HETATM    9  C   UNL     1      -9.056  16.082  69.313  1.00  0.00    -0.235 A  
HETATM   10  C   UNL     1     -11.369  15.286  69.403  1.00  0.00    -0.304 A  
HETATM   11  C   UNL     1     -10.482  16.314  67.391  1.00  0.00    -0.304 A  
HETATM   12  C   UNL     1     -11.533  15.700  68.077  1.00  0.00    -0.294 A  
BRANCH  10  13
HETATM   13  C   UNL     1     -12.547  14.728  70.185  1.00  0.00    -0.319 C  
BRANCH  13  14
HETATM   14  C   UNL     1     -12.484  13.220  70.332  1.00  0.00    -0.295 A  
HETATM   15  C   UNL     1     -12.997  12.520  71.432  1.00  0.00    -0.251 A  
HETATM   16 CL   UNL     1     -13.876  13.300  72.698  1.00  0.00    -0.558 Cl 
HETATM   17  C   UNL     1     -12.778  11.145  71.561  1.00  0.00    -0.499 A  
HETATM   18  C   UNL     1     -11.979  10.468  70.636  1.00  0.00    -0.455 A  
HETATM   19  C   UNL     1     -11.409  11.150  69.555  1.00  0.00    -0.359 A  
HETATM   20  C   UNL     1     -11.747  12.501  69.371  1.00  0.00    -0.383 A  
BRANCH  19  21
HETATM   21  C   UNL     1     -10.293  10.502  68.747  1.00  0.00    -0.191 C  
HETATM   22  O   UNL     1      -9.051  10.716  69.446  1.00  0.00    -0.152 OA 
HETATM   23  C   UNL     1      -7.974   9.928  68.931  1.00  0.00    -0.096 C  
HETATM   24  H   UNL     1     -11.296  10.876  65.631  1.00  0.00     0.000 HD 
HETATM   25  C   UNL     1      -7.691  10.332  67.484  1.00  0.00    -0.094 C  
HETATM   26  O   UNL     1     -11.371  10.618  66.542  1.00  0.00    -0.075 OA 
HETATM   27  C   UNL     1      -8.968  10.171  66.645  1.00  0.00    -0.140 C  
HETATM   28  O   UNL     1      -6.646   9.551  66.894  1.00  0.00    -0.066 OA 
HETATM   29  H   UNL     1      -9.503  10.515  64.788  1.00  0.00     0.000 HD 
HETATM   30  C   UNL     1     -10.169  10.922  67.263  1.00  0.00    -0.205 C  
HETATM   31  H   UNL     1      -6.471   9.803  65.995  1.00  0.00     0.000 HD 
HETATM   32  O   UNL     1      -8.714  10.615  65.307  1.00  0.00    -0.183 OA 
BRANCH  23  33
HETATM   33  C   UNL     1      -6.756  10.151  69.834  1.00  0.00    -0.110 C  
HETATM   34  O   UNL     1      -5.889   9.010  69.753  1.00  0.00    -0.032 OA 
HETATM   35  H   UNL     1      -5.134   9.148  70.312  1.00  0.00     0.000 HD 
ENDBRANCH  23  33
ENDBRANCH  19  21
ENDBRANCH  13  14
ENDBRANCH  10  13
ENDBRANCH   6   7
ENDBRANCH   1   6
TORSDOF 6
ENDMDL
MODEL      143
REMARK 921   NORMALIZED FREE ENERGY PREDICTED BY IDOCK:   -5.78 KCAL/MOL
REMARK 922        TOTAL FREE ENERGY PREDICTED BY IDOCK:   -8.77 KCAL/MOL
REMARK 923 INTER-LIGAND FREE ENERGY PREDICTED BY IDOCK:   -8.01 KCAL/MOL
REMARK 924 INTRA-LIGAND FREE ENERGY PREDICTED BY IDOCK:   -0.76 KCAL/MOL
REMARK 927      BINDING AFFINITY PREDICTED BY RF-SCORE:    0.00 PKD
ROOT
HETATM    1  C   UNL     1      -8.015   9.992  65.610  1.00  0.00    -0.140 C  
HETATM    2  C   UNL     1      -7.641  11.268  66.341  1.00  0.00    -0.072 C  
HETATM    3  O   UNL     1      -6.303   9.562  67.238  1.00  0.00    -0.066 OA 
HETATM    4  C   UNL     1      -6.276  10.950  66.891  1.00  0.00    -0.087 C  
HETATM    5  C   UNL     1      -7.371   8.935  66.504  1.00  0.00    -0.085 C  
ENDROOT
BRANCH   1   6
HETATM    6  O   UNL     1      -9.436   9.919  65.568  1.00  0.00    -0.210 OA 
BRANCH   6   7
HETATM    7  C   UNL     1     -10.160  10.676  66.442  1.00  0.00    -0.225 A  
HETATM    8  C   UNL     1     -11.707  12.414  67.108  1.00  0.00    -0.415 A  
HETATM    9  C   UNL     1     -10.927  11.791  66.119  1.00  0.00    -0.355 A  
HETATM   10  C   UNL     1     -11.730  11.931  68.428  1.00  0.00    -0.387 A  
HETATM   11  C   UNL     1     -10.165  10.201  67.754  1.00  0.00    -0.232 A  
HETATM   12  C   UNL     1     -10.933  10.824  68.741  1.00  0.00    -0.295 A  
BRANCH  10  13
HETATM   13  C   UNL     1     -12.655  12.532  69.473  1.00  0.00     0.408 C  
BRANCH  13  14
HETATM   14  C   UNL     1     -12.071  13.774  70.118  1.00  0.00    -0.429 A  
HETATM   15  C   UNL     1     -12.670  14.452  71.189  1.00  0.00    -0.352 A  
HETATM   16 CL   UNL     1     -14.092  13.870  71.977  1.00  0.00    -0.573 Cl 
HETATM   17  C   UNL     1     -12.144  15.668  71.638  1.00  0.00    -0.496 A  
HETATM   18  C   UNL     1     -11.065  16.259  70.975  1.00  0.00    -0.105 A  
HETATM   19  C   UNL     1     -10.479  15.630  69.871  1.00  0.00    -0.327 A  
HETATM   20  C   UNL     1     -10.937  14.351  69.516  1.00  0.00    -0.230 A  
BRANCH  19  21
HETATM   21  C   UNL     1      -9.538  16.408  68.961  1.00  0.00    -0.264 C  
HETATM   22  O   UNL     1     -10.335  17.121  67.995  1.00  0.00    -0.318 OA 
HETATM   23  C   UNL     1      -9.588  18.096  67.260  1.00  0.00    -0.281 C  
HETATM   24  H   UNL     1      -6.872  14.479  68.798  1.00  0.00     0.000 HD 
HETATM   25  C   UNL     1      -8.502  17.398  66.443  1.00  0.00    -0.257 C  
HETATM   26  O   UNL     1      -7.561  14.973  69.226  1.00  0.00    -0.163 OA 
HETATM   27  C   UNL     1      -7.602  16.575  67.377  1.00  0.00    -0.149 C  
HETATM   28  O   UNL     1      -7.691  18.323  65.712  1.00  0.00    -0.517 OA 
HETATM   29  H   UNL     1      -6.073  15.361  67.174  1.00  0.00     0.000 HD 
HETATM   30  C   UNL     1      -8.417  15.604  68.262  1.00  0.00    -0.156 C  
HETATM   31  H   UNL     1      -7.015  17.888  65.204  1.00  0.00     0.000 HD 
HETATM   32  O   UNL     1      -6.629  15.870  66.597  1.00  0.00    -0.189 OA 
BRANCH  23  33
HETATM   33  C   UNL     1     -10.569  18.864  66.368  1.00  0.00    -0.387 C  
HETATM   34  O   UNL     1     -10.833  18.098  65.183  1.00  0.00    -0.658 OA 
HETATM   35  H   UNL     1     -11.441  18.574  64.630  1.00  0.00     0.000 HD 
ENDBRANCH  23  33
ENDBRANCH  19  21
ENDBRANCH  13  14
ENDBRANCH  10  13
ENDBRANCH   6   7
ENDBRANCH   1   6
TORSDOF 6
ENDMDL
MODEL      144
REMARK 921   NORMALIZED FREE ENERGY PREDICTED BY IDOCK:   -5.77 KCAL/MOL
REMARK 922        TOTAL FREE ENERGY PREDICTED BY IDOCK:   -8.76 KCAL/MOL
REMARK 923 INTER-LIGAND FREE ENERGY PREDICTED BY IDOCK:   -7.67 KCAL/MOL
REMARK 924 INTRA-LIGAND FREE ENERGY PREDICTED BY IDOCK:   -1.09 KCAL/MOL
REMARK 927      BINDING AFFINITY PREDICTED BY RF-SCORE:    0.00 PKD
ROOT
HETATM    1  C   UNL     1     -10.752  13.488  63.861  1.00  0.00     0.145 C  
HETATM    2  C   UNL     1     -10.212  12.270  64.589  1.00  0.00    -0.311 C  
HETATM    3  O   UNL     1     -12.062  11.542  63.343  1.00  0.00    -0.348 OA 
HETATM    4  C   UNL     1     -10.766  11.126  63.783  1.00  0.00    -0.329 C  
HETATM    5  C   UNL     1     -12.117  12.981  63.401  1.00  0.00    -0.515 C  
ENDROOT
BRANCH   1   6
HETATM    6  O   UNL     1     -10.823  14.556  64.799  1.00  0.00    -0.399 OA 
BRANCH   6   7
HETATM    7  C   UNL     1     -10.888  14.260  66.129  1.00  0.00    -0.310 A  
HETATM    8  C   UNL     1     -10.036  13.986  68.378  1.00  0.00    -0.236 A  
HETATM    9  C   UNL     1      -9.811  14.199  67.008  1.00  0.00    -0.258 A  
HETATM   10  C   UNL     1     -11.338  13.832  68.885  1.00  0.00    -0.328 A  
HETATM   11  C   UNL     1     -12.182  14.091  66.623  1.00  0.00    -0.463 A  
HETATM   12  C   UNL     1     -12.408  13.870  67.984  1.00  0.00     0.004 A  
BRANCH  10  13
HETATM   13  C   UNL     1     -11.595  13.711  70.378  1.00  0.00    -0.112 C  
BRANCH  13  14
HETATM   14  C   UNL     1     -12.090  12.332  70.772  1.00  0.00    -0.259 A  
HETATM   15  C   UNL     1     -13.141  12.108  71.670  1.00  0.00    -0.310 A  
HETATM   16 CL   UNL     1     -14.079  13.393  72.341  1.00  0.00    -0.609 Cl 
HETATM   17  C   UNL     1     -13.447  10.809  72.090  1.00  0.00    -0.227 A  
HETATM   18  C   UNL     1     -12.659   9.730  71.680  1.00  0.00    -0.509 A  
HETATM   19  C   UNL     1     -11.571   9.931  70.823  1.00  0.00    -0.430 A  
HETATM   20  C   UNL     1     -11.359  11.221  70.311  1.00  0.00    -0.179 A  
BRANCH  19  21
HETATM   21  C   UNL     1     -10.532   8.832  70.642  1.00  0.00    -0.210 C  
HETATM   22  O   UNL     1      -9.524   8.994  71.659  1.00  0.00    -0.282 OA 
HETATM   23  C   UNL     1      -8.644   7.871  71.762  1.00  0.00    -0.119 C  
HETATM   24  H   UNL     1     -10.482   8.368  67.380  1.00  0.00     0.000 HD 
HETATM   25  C   UNL     1      -7.868   7.708  70.455  1.00  0.00    -0.092 C  
HETATM   26  O   UNL     1     -10.879   8.445  68.240  1.00  0.00    -0.077 OA 
HETATM   27  C   UNL     1      -8.853   7.556  69.286  1.00  0.00    -0.136 C  
HETATM   28  O   UNL     1      -6.995   6.575  70.477  1.00  0.00    -0.060 OA 
HETATM   29  H   UNL     1      -8.729   7.379  67.335  1.00  0.00     0.000 HD 
HETATM   30  C   UNL     1      -9.885   8.706  69.242  1.00  0.00    -0.188 C  
HETATM   31  H   UNL     1      -6.513   6.473  69.664  1.00  0.00     0.000 HD 
HETATM   32  O   UNL     1      -8.120   7.472  68.057  1.00  0.00    -0.120 OA 
BRANCH  23  33
HETATM   33  C   UNL     1      -7.711   8.113  72.953  1.00  0.00    -0.140 C  
HETATM   34  O   UNL     1      -6.613   8.938  72.536  1.00  0.00    -0.264 OA 
HETATM   35  H   UNL     1      -6.034   9.089  73.274  1.00  0.00     0.000 HD 
ENDBRANCH  23  33
ENDBRANCH  19  21
ENDBRANCH  13  14
ENDBRANCH  10  13
ENDBRANCH   6   7
ENDBRANCH   1   6
TORSDOF 6
ENDMDL
MODEL      145
REMARK 921   NORMALIZED FREE ENERGY PREDICTED BY IDOCK:   -5.75 KCAL/MOL
REMARK 922        TOTAL FREE ENERGY PREDICTED BY IDOCK:   -8.74 KCAL/MOL
REMARK 923 INTER-LIGAND FREE ENERGY PREDICTED BY IDOCK:   -8.26 KCAL/MOL
REMARK 924 INTRA-LIGAND FREE ENERGY PREDICTED BY IDOCK:   -0.47 KCAL/MOL
REMARK 927      BINDING AFFINITY PREDICTED BY RF-SCORE:    0.00 PKD
ROOT
HETATM    1  C   UNL     1      -7.407   6.201  70.868  1.00  0.00    -0.080 C  
HETATM    2  C   UNL     1      -7.629   6.969  69.578  1.00  0.00    -0.098 C  
HETATM    3  O   UNL     1      -6.077   8.200  70.835  1.00  0.00    -0.033 OA 
HETATM    4  C   UNL     1      -6.402   7.836  69.490  1.00  0.00    -0.034 C  
HETATM    5  C   UNL     1      -6.695   7.247  71.721  1.00  0.00    -0.051 C  
ENDROOT
BRANCH   1   6
HETATM    6  O   UNL     1      -8.684   5.823  71.371  1.00  0.00    -0.131 OA 
BRANCH   6   7
HETATM    7  C   UNL     1      -9.632   6.787  71.552  1.00  0.00    -0.163 A  
HETATM    8  C   UNL     1     -10.546   8.856  72.415  1.00  0.00    -0.077 A  
HETATM    9  C   UNL     1      -9.535   7.880  72.409  1.00  0.00    -0.252 A  
HETATM   10  C   UNL     1     -11.662   8.751  71.568  1.00  0.00    -0.377 A  
HETATM   11  C   UNL     1     -10.746   6.670  70.720  1.00  0.00    -0.282 A  
HETATM   12  C   UNL     1     -11.757   7.634  70.731  1.00  0.00    -0.260 A  
BRANCH  10  13
HETATM   13  C   UNL     1     -12.702   9.857  71.492  1.00  0.00    -0.515 C  
BRANCH  13  14
HETATM   14  C   UNL     1     -12.281  10.988  70.573  1.00  0.00    -0.472 A  
HETATM   15  C   UNL     1     -12.529  12.341  70.836  1.00  0.00    -0.276 A  
HETATM   16 CL   UNL     1     -13.243  12.883  72.312  1.00  0.00    -0.566 Cl 
HETATM   17  C   UNL     1     -12.235  13.315  69.875  1.00  0.00    -0.313 A  
HETATM   18  C   UNL     1     -11.764  12.941  68.614  1.00  0.00    -0.359 A  
HETATM   19  C   UNL     1     -11.555  11.592  68.304  1.00  0.00    -0.378 A  
HETATM   20  C   UNL     1     -11.733  10.642  69.323  1.00  0.00    -0.336 A  
BRANCH  19  21
HETATM   21  C   UNL     1     -11.362  11.164  66.855  1.00  0.00    -0.090 C  
HETATM   22  O   UNL     1     -10.082  10.511  66.747  1.00  0.00    -0.202 OA 
HETATM   23  C   UNL     1      -9.903   9.828  65.502  1.00  0.00    -0.308 C  
HETATM   24  H   UNL     1     -12.917  13.519  65.155  1.00  0.00     0.000 HD 
HETATM   25  C   UNL     1      -9.934  10.838  64.356  1.00  0.00    -0.338 C  
HETATM   26  O   UNL     1     -12.824  12.845  65.818  1.00  0.00    -0.403 OA 
HETATM   27  C   UNL     1     -11.255  11.621  64.393  1.00  0.00    -0.291 C  
HETATM   28  O   UNL     1      -9.800  10.214  63.075  1.00  0.00    -0.479 OA 
HETATM   29  H   UNL     1     -12.065  13.095  63.381  1.00  0.00     0.000 HD 
HETATM   30  C   UNL     1     -11.513  12.261  65.776  1.00  0.00    -0.367 C  
HETATM   31  H   UNL     1      -9.819  10.842  62.362  1.00  0.00     0.000 HD 
HETATM   32  O   UNL     1     -11.248  12.611  63.358  1.00  0.00    -0.467 OA 
BRANCH  23  33
HETATM   33  C   UNL     1      -8.569   9.078  65.566  1.00  0.00    -0.168 C  
HETATM   34  O   UNL     1      -7.568   9.935  66.134  1.00  0.00    -0.099 OA 
HETATM   35  H   UNL     1      -6.741   9.471  66.174  1.00  0.00     0.000 HD 
ENDBRANCH  23  33
ENDBRANCH  19  21
ENDBRANCH  13  14
ENDBRANCH  10  13
ENDBRANCH   6   7
ENDBRANCH   1   6
TORSDOF 6
ENDMDL
MODEL      146
REMARK 921   NORMALIZED FREE ENERGY PREDICTED BY IDOCK:   -5.74 KCAL/MOL
REMARK 922        TOTAL FREE ENERGY PREDICTED BY IDOCK:   -8.72 KCAL/MOL
REMARK 923 INTER-LIGAND FREE ENERGY PREDICTED BY IDOCK:   -7.84 KCAL/MOL
REMARK 924 INTRA-LIGAND FREE ENERGY PREDICTED BY IDOCK:   -0.88 KCAL/MOL
REMARK 927      BINDING AFFINITY PREDICTED BY RF-SCORE:    0.00 PKD
ROOT
HETATM    1  C   UNL     1     -11.808  13.411  70.107  1.00  0.00    -0.272 C  
HETATM    2  C   UNL     1     -11.883  14.312  68.889  1.00  0.00    -0.372 C  
HETATM    3  O   UNL     1     -12.590  15.597  70.720  1.00  0.00    -0.434 OA 
HETATM    4  C   UNL     1     -11.863  15.692  69.492  1.00  0.00    -0.372 C  
HETATM    5  C   UNL     1     -12.613  14.215  71.125  1.00  0.00    -0.367 C  
ENDROOT
BRANCH   1   6
HETATM    6  O   UNL     1     -12.403  12.165  69.760  1.00  0.00    -0.158 OA 
BRANCH   6   7
HETATM    7  C   UNL     1     -12.216  11.094  70.585  1.00  0.00    -0.397 A  
HETATM    8  C   UNL     1     -12.881   9.311  72.080  1.00  0.00    -0.495 A  
HETATM    9  C   UNL     1     -13.194  10.473  71.355  1.00  0.00    -0.441 A  
HETATM   10  C   UNL     1     -11.590   8.757  72.043  1.00  0.00    -0.436 A  
HETATM   11  C   UNL     1     -10.927  10.559  70.557  1.00  0.00    -0.173 A  
HETATM   12  C   UNL     1     -10.612   9.408  71.284  1.00  0.00    -0.400 A  
BRANCH  10  13
HETATM   13  C   UNL     1     -11.275   7.441  72.735  1.00  0.00    -0.380 C  
BRANCH  13  14
HETATM   14  C   UNL     1     -10.801   6.374  71.767  1.00  0.00    -0.283 A  
HETATM   15  C   UNL     1     -10.472   5.066  72.146  1.00  0.00    -0.210 A  
HETATM   16 CL   UNL     1     -10.690   4.486  73.758  1.00  0.00    -0.312 Cl 
HETATM   17  C   UNL     1      -9.911   4.181  71.220  1.00  0.00    -0.249 A  
HETATM   18  C   UNL     1      -9.599   4.615  69.929  1.00  0.00    -0.261 A  
HETATM   19  C   UNL     1      -9.869   5.931  69.536  1.00  0.00    -0.216 A  
HETATM   20  C   UNL     1     -10.550   6.765  70.438  1.00  0.00    -0.262 A  
BRANCH  19  21
HETATM   21  C   UNL     1      -9.242   6.492  68.266  1.00  0.00    -0.116 C  
HETATM   22  O   UNL     1      -7.907   6.931  68.581  1.00  0.00    -0.114 OA 
HETATM   23  C   UNL     1      -7.125   7.226  67.419  1.00  0.00    -0.088 C  
HETATM   24  H   UNL     1     -11.807   7.815  66.677  1.00  0.00     0.000 HD 
HETATM   25  C   UNL     1      -7.758   8.390  66.658  1.00  0.00    -0.090 C  
HETATM   26  O   UNL     1     -11.324   7.133  67.129  1.00  0.00    -0.160 OA 
HETATM   27  C   UNL     1      -9.209   8.040  66.295  1.00  0.00    -0.184 C  
HETATM   28  O   UNL     1      -7.044   8.711  65.460  1.00  0.00    -0.080 OA 
HETATM   29  H   UNL     1     -10.715   8.944  65.417  1.00  0.00     0.000 HD 
HETATM   30  C   UNL     1     -10.029   7.602  67.531  1.00  0.00    -0.178 C  
HETATM   31  H   UNL     1      -7.439   9.434  64.986  1.00  0.00     0.000 HD 
HETATM   32  O   UNL     1      -9.818   9.160  65.642  1.00  0.00    -0.264 OA 
BRANCH  23  33
HETATM   33  C   UNL     1      -5.702   7.555  67.883  1.00  0.00    -0.035 C  
HETATM   34  O   UNL     1      -5.583   8.970  68.085  1.00  0.00    -0.038 OA 
HETATM   35  H   UNL     1      -4.701   9.175  68.373  1.00  0.00     0.000 HD 
ENDBRANCH  23  33
ENDBRANCH  19  21
ENDBRANCH  13  14
ENDBRANCH  10  13
ENDBRANCH   6   7
ENDBRANCH   1   6
TORSDOF 6
ENDMDL
MODEL      147
REMARK 921   NORMALIZED FREE ENERGY PREDICTED BY IDOCK:   -5.73 KCAL/MOL
REMARK 922        TOTAL FREE ENERGY PREDICTED BY IDOCK:   -8.70 KCAL/MOL
REMARK 923 INTER-LIGAND FREE ENERGY PREDICTED BY IDOCK:   -8.17 KCAL/MOL
REMARK 924 INTRA-LIGAND FREE ENERGY PREDICTED BY IDOCK:   -0.54 KCAL/MOL
REMARK 927      BINDING AFFINITY PREDICTED BY RF-SCORE:    0.00 PKD
ROOT
HETATM    1  C   UNL     1     -12.029  15.420  71.680  1.00  0.00    -0.387 C  
HETATM    2  C   UNL     1     -11.913  16.218  72.966  1.00  0.00    -0.598 C  
HETATM    3  O   UNL     1     -13.819  14.866  73.182  1.00  0.00    -0.458 OA 
HETATM    4  C   UNL     1     -12.730  15.408  73.936  1.00  0.00    -0.554 C  
HETATM    5  C   UNL     1     -13.453  14.880  71.789  1.00  0.00    -0.388 C  
ENDROOT
BRANCH   1   6
HETATM    6  O   UNL     1     -11.839  16.321  70.594  1.00  0.00    -0.283 OA 
BRANCH   6   7
HETATM    7  C   UNL     1     -11.534  15.814  69.365  1.00  0.00    -0.355 A  
HETATM    8  C   UNL     1     -11.776  14.345  67.456  1.00  0.00    -0.416 A  
HETATM    9  C   UNL     1     -12.112  14.694  68.775  1.00  0.00    -0.237 A  
HETATM   10  C   UNL     1     -10.862  15.111  66.712  1.00  0.00    -0.322 A  
HETATM   11  C   UNL     1     -10.613  16.568  68.638  1.00  0.00    -0.316 A  
HETATM   12  C   UNL     1     -10.270  16.219  67.329  1.00  0.00    -0.279 A  
BRANCH  10  13
HETATM   13  C   UNL     1     -10.579  14.803  65.251  1.00  0.00    -0.414 C  
BRANCH  13  14
HETATM   14  C   UNL     1     -10.309  13.330  65.010  1.00  0.00    -0.355 A  
HETATM   15  C   UNL     1     -11.043  12.538  64.118  1.00  0.00    -0.376 A  
HETATM   16 CL   UNL     1     -12.273  13.189  63.095  1.00  0.00    -0.489 Cl 
HETATM   17  C   UNL     1     -10.825  11.157  64.053  1.00  0.00    -0.351 A  
HETATM   18  C   UNL     1      -9.929  10.543  64.932  1.00  0.00    -0.401 A  
HETATM   19  C   UNL     1      -9.218  11.302  65.869  1.00  0.00    -0.229 A  
HETATM   20  C   UNL     1      -9.355  12.699  65.830  1.00  0.00    -0.014 A  
BRANCH  19  21
HETATM   21  C   UNL     1      -8.504  10.613  67.024  1.00  0.00    -0.129 C  
HETATM   22  O   UNL     1      -7.264  11.306  67.262  1.00  0.00    -0.099 OA 
HETATM   23  C   UNL     1      -6.634  10.925  68.490  1.00  0.00    -0.055 C  
HETATM   24  H   UNL     1      -9.364   7.452  66.669  1.00  0.00     0.000 HD 
HETATM   25  C   UNL     1      -6.259   9.444  68.432  1.00  0.00    -0.052 C  
HETATM   26  O   UNL     1      -9.510   8.387  66.751  1.00  0.00    -0.167 OA 
HETATM   27  C   UNL     1      -7.513   8.604  68.149  1.00  0.00    -0.096 C  
HETATM   28  O   UNL     1      -5.658   8.987  69.648  1.00  0.00    -0.033 OA 
HETATM   29  H   UNL     1      -7.918   6.706  67.855  1.00  0.00     0.000 HD 
HETATM   30  C   UNL     1      -8.266   9.090  66.890  1.00  0.00    -0.116 C  
HETATM   31  H   UNL     1      -5.424   8.066  69.612  1.00  0.00     0.000 HD 
HETATM   32  O   UNL     1      -7.143   7.225  68.030  1.00  0.00    -0.076 OA 
BRANCH  23  33
HETATM   33  C   UNL     1      -5.405  11.818  68.684  1.00  0.00    -0.049 C  
HETATM   34  O   UNL     1      -5.782  13.191  68.506  1.00  0.00    -0.070 OA 
HETATM   35  H   UNL     1      -5.020  13.746  68.626  1.00  0.00     0.000 HD 
ENDBRANCH  23  33
ENDBRANCH  19  21
ENDBRANCH  13  14
ENDBRANCH  10  13
ENDBRANCH   6   7
ENDBRANCH   1   6
TORSDOF 6
ENDMDL
MODEL      148
REMARK 921   NORMALIZED FREE ENERGY PREDICTED BY IDOCK:   -5.69 KCAL/MOL
REMARK 922        TOTAL FREE ENERGY PREDICTED BY IDOCK:   -8.65 KCAL/MOL
REMARK 923 INTER-LIGAND FREE ENERGY PREDICTED BY IDOCK:   -7.92 KCAL/MOL
REMARK 924 INTRA-LIGAND FREE ENERGY PREDICTED BY IDOCK:   -0.73 KCAL/MOL
REMARK 927      BINDING AFFINITY PREDICTED BY RF-SCORE:    0.00 PKD
ROOT
HETATM    1  C   UNL     1     -10.388   9.062  69.120  1.00  0.00    -0.219 C  
HETATM    2  C   UNL     1     -10.555   8.503  70.521  1.00  0.00    -0.238 C  
HETATM    3  O   UNL     1     -11.472  10.662  70.544  1.00  0.00    -0.311 OA 
HETATM    4  C   UNL     1     -11.659   9.353  71.090  1.00  0.00    -0.345 C  
HETATM    5  C   UNL     1     -10.673  10.543  69.352  1.00  0.00    -0.241 C  
ENDROOT
BRANCH   1   6
HETATM    6  O   UNL     1      -9.053   8.792  68.703  1.00  0.00    -0.141 OA 
BRANCH   6   7
HETATM    7  C   UNL     1      -8.186   9.835  68.558  1.00  0.00    -0.106 A  
HETATM    8  C   UNL     1      -7.087  11.653  67.399  1.00  0.00    -0.124 A  
HETATM    9  C   UNL     1      -7.928  10.528  67.380  1.00  0.00    -0.110 A  
HETATM   10  C   UNL     1      -6.496  12.098  68.595  1.00  0.00    -0.072 A  
HETATM   11  C   UNL     1      -7.590  10.262  69.746  1.00  0.00    -0.168 A  
HETATM   12  C   UNL     1      -6.746  11.375  69.766  1.00  0.00    -0.076 A  
BRANCH  10  13
HETATM   13  C   UNL     1      -5.676  13.377  68.641  1.00  0.00    -0.084 C  
BRANCH  13  14
HETATM   14  C   UNL     1      -6.533  14.622  68.516  1.00  0.00    -0.089 A  
HETATM   15  C   UNL     1      -6.447  15.719  69.383  1.00  0.00    -0.165 A  
HETATM   16 CL   UNL     1      -5.257  15.825  70.630  1.00  0.00    -0.164 Cl 
HETATM   17  C   UNL     1      -7.366  16.770  69.287  1.00  0.00    -0.164 A  
HETATM   18  C   UNL     1      -8.426  16.700  68.379  1.00  0.00    -0.216 A  
HETATM   19  C   UNL     1      -8.567  15.592  67.535  1.00  0.00    -0.184 A  
HETATM   20  C   UNL     1      -7.563  14.610  67.557  1.00  0.00    -0.215 A  
BRANCH  19  21
HETATM   21  C   UNL     1      -9.877  15.361  66.793  1.00  0.00    -0.245 C  
HETATM   22  O   UNL     1      -9.962  13.963  66.457  1.00  0.00    -0.269 OA 
HETATM   23  C   UNL     1     -11.261  13.574  65.999  1.00  0.00    -0.295 C  
HETATM   24  H   UNL     1     -10.316  18.177  65.139  1.00  0.00     0.000 HD 
HETATM   25  C   UNL     1     -11.591  14.316  64.705  1.00  0.00    -0.408 C  
HETATM   26  O   UNL     1     -10.154  17.635  65.902  1.00  0.00    -0.519 OA 
HETATM   27  C   UNL     1     -11.500  15.831  64.941  1.00  0.00    -0.193 C  
HETATM   28  O   UNL     1     -12.897  14.000  64.213  1.00  0.00    -0.612 OA 
HETATM   29  H   UNL     1     -11.687  17.455  63.854  1.00  0.00     0.000 HD 
HETATM   30  C   UNL     1     -10.140  16.244  65.550  1.00  0.00    -0.245 C  
HETATM   31  H   UNL     1     -13.103  14.462  63.408  1.00  0.00     0.000 HD 
HETATM   32  O   UNL     1     -11.744  16.518  63.708  1.00  0.00    -1.086 OA 
BRANCH  23  33
HETATM   33  C   UNL     1     -11.252  12.055  65.800  1.00  0.00    -0.334 C  
HETATM   34  O   UNL     1     -10.689  11.747  64.516  1.00  0.00    -0.283 OA 
HETATM   35  H   UNL     1     -10.683  10.805  64.392  1.00  0.00     0.000 HD 
ENDBRANCH  23  33
ENDBRANCH  19  21
ENDBRANCH  13  14
ENDBRANCH  10  13
ENDBRANCH   6   7
ENDBRANCH   1   6
TORSDOF 6
ENDMDL
MODEL      149
REMARK 921   NORMALIZED FREE ENERGY PREDICTED BY IDOCK:   -5.68 KCAL/MOL
REMARK 922        TOTAL FREE ENERGY PREDICTED BY IDOCK:   -8.64 KCAL/MOL
REMARK 923 INTER-LIGAND FREE ENERGY PREDICTED BY IDOCK:   -7.92 KCAL/MOL
REMARK 924 INTRA-LIGAND FREE ENERGY PREDICTED BY IDOCK:   -0.72 KCAL/MOL
REMARK 927      BINDING AFFINITY PREDICTED BY RF-SCORE:    0.00 PKD
ROOT
HETATM    1  C   UNL     1     -10.390  17.599  67.040  1.00  0.00    -0.330 C  
HETATM    2  C   UNL     1     -10.607  19.000  67.583  1.00  0.00    -0.526 C  
HETATM    3  O   UNL     1      -8.802  19.130  66.090  1.00  0.00    -0.399 OA 
HETATM    4  C   UNL     1      -9.940  19.866  66.549  1.00  0.00    -0.474 C  
HETATM    5  C   UNL     1      -9.013  17.738  66.395  1.00  0.00    -0.229 C  
ENDROOT
BRANCH   1   6
HETATM    6  O   UNL     1     -10.418  16.699  68.143  1.00  0.00    -0.290 OA 
BRANCH   6   7
HETATM    7  C   UNL     1     -10.512  15.361  67.897  1.00  0.00    -0.256 A  
HETATM    8  C   UNL     1      -9.883  13.030  68.071  1.00  0.00    -0.224 A  
HETATM    9  C   UNL     1      -9.605  14.388  68.304  1.00  0.00    -0.211 A  
HETATM   10  C   UNL     1     -11.068  12.630  67.430  1.00  0.00    -0.315 A  
HETATM   11  C   UNL     1     -11.683  14.972  67.244  1.00  0.00    -0.238 A  
HETATM   12  C   UNL     1     -11.957  13.623  67.003  1.00  0.00    -0.448 A  
BRANCH  10  13
HETATM   13  C   UNL     1     -11.424  11.161  67.273  1.00  0.00    -0.218 C  
BRANCH  13  14
HETATM   14  C   UNL     1     -10.356  10.381  66.532  1.00  0.00    -0.287 A  
HETATM   15  C   UNL     1      -9.890  10.715  65.254  1.00  0.00    -0.275 A  
HETATM   16 CL   UNL     1     -10.402  12.140  64.424  1.00  0.00    -0.327 Cl 
HETATM   17  C   UNL     1      -9.005   9.867  64.579  1.00  0.00    -0.272 A  
HETATM   18  C   UNL     1      -8.637   8.641  65.139  1.00  0.00    -0.200 A  
HETATM   19  C   UNL     1      -9.127   8.256  66.393  1.00  0.00    -0.226 A  
HETATM   20  C   UNL     1      -9.910   9.177  67.109  1.00  0.00    -0.253 A  
BRANCH  19  21
HETATM   21  C   UNL     1      -8.997   6.810  66.851  1.00  0.00    -0.128 C  
HETATM   22  O   UNL     1      -9.653   5.971  65.880  1.00  0.00    -0.061 OA 
HETATM   23  C   UNL     1      -9.368   4.580  66.056  1.00  0.00    -0.157 C  
HETATM   24  H   UNL     1      -9.065   7.046  70.137  1.00  0.00     0.000 HD 
HETATM   25  C   UNL     1      -9.903   4.116  67.410  1.00  0.00    -0.101 C  
HETATM   26  O   UNL     1      -8.765   7.247  69.258  1.00  0.00    -0.136 OA 
HETATM   27  C   UNL     1      -9.288   4.970  68.529  1.00  0.00    -0.127 C  
HETATM   28  O   UNL     1      -9.616   2.737  67.667  1.00  0.00    -0.348 OA 
HETATM   29  H   UNL     1      -9.465   5.103  70.479  1.00  0.00     0.000 HD 
HETATM   30  C   UNL     1      -9.487   6.483  68.281  1.00  0.00    -0.118 C  
HETATM   31  H   UNL     1      -9.948   2.449  68.509  1.00  0.00     0.000 HD 
HETATM   32  O   UNL     1      -9.845   4.575  69.788  1.00  0.00    -0.204 OA 
BRANCH  23  33
HETATM   33  C   UNL     1     -10.015   3.818  64.895  1.00  0.00    -0.171 C  
HETATM   34  O   UNL     1     -10.042   4.658  63.732  1.00  0.00    -0.369 OA 
HETATM   35  H   UNL     1     -10.443   4.185  63.012  1.00  0.00     0.000 HD 
ENDBRANCH  23  33
ENDBRANCH  19  21
ENDBRANCH  13  14
ENDBRANCH  10  13
ENDBRANCH   6   7
ENDBRANCH   1   6
TORSDOF 6
ENDMDL
MODEL      150
REMARK 921   NORMALIZED FREE ENERGY PREDICTED BY IDOCK:   -5.67 KCAL/MOL
REMARK 922        TOTAL FREE ENERGY PREDICTED BY IDOCK:   -8.63 KCAL/MOL
REMARK 923 INTER-LIGAND FREE ENERGY PREDICTED BY IDOCK:   -8.28 KCAL/MOL
REMARK 924 INTRA-LIGAND FREE ENERGY PREDICTED BY IDOCK:   -0.34 KCAL/MOL
REMARK 927      BINDING AFFINITY PREDICTED BY RF-SCORE:    0.00 PKD
ROOT
HETATM    1  C   UNL     1     -12.922  13.335  71.718  1.00  0.00    -0.335 C  
HETATM    2  C   UNL     1     -12.805  14.405  70.648  1.00  0.00    -0.390 C  
HETATM    3  O   UNL     1     -13.888  15.399  72.477  1.00  0.00    -0.493 OA 
HETATM    4  C   UNL     1     -12.950  15.681  71.434  1.00  0.00    -0.487 C  
HETATM    5  C   UNL     1     -13.932  13.972  72.669  1.00  0.00    -0.316 C  
ENDROOT
BRANCH   1   6
HETATM    6  O   UNL     1     -13.395  12.147  71.091  1.00  0.00    -0.004 OA 
BRANCH   6   7
HETATM    7  C   UNL     1     -12.714  10.983  71.293  1.00  0.00    -0.432 A  
HETATM    8  C   UNL     1     -12.405   8.704  72.050  1.00  0.00    -0.435 A  
HETATM    9  C   UNL     1     -13.170   9.882  72.012  1.00  0.00    -0.555 A  
HETATM   10  C   UNL     1     -11.177   8.614  71.372  1.00  0.00    -0.345 A  
HETATM   11  C   UNL     1     -11.488  10.904  70.631  1.00  0.00    -0.227 A  
HETATM   12  C   UNL     1     -10.721   9.738  70.675  1.00  0.00    -0.394 A  
BRANCH  10  13
HETATM   13  C   UNL     1     -10.399   7.309  71.319  1.00  0.00    -0.204 C  
BRANCH  13  14
HETATM   14  C   UNL     1     -10.342   6.724  69.921  1.00  0.00    -0.229 A  
HETATM   15  C   UNL     1     -10.016   5.389  69.646  1.00  0.00    -0.227 A  
HETATM   16 CL   UNL     1      -9.760   4.221  70.893  1.00  0.00    -0.255 Cl 
HETATM   17  C   UNL     1      -9.848   4.959  68.325  1.00  0.00    -0.198 A  
HETATM   18  C   UNL     1      -9.925   5.872  67.271  1.00  0.00    -0.179 A  
HETATM   19  C   UNL     1     -10.198   7.223  67.518  1.00  0.00    -0.284 A  
HETATM   20  C   UNL     1     -10.491   7.609  68.836  1.00  0.00    -0.211 A  
BRANCH  19  21
HETATM   21  C   UNL     1      -9.961   8.260  66.429  1.00  0.00    -0.194 C  
HETATM   22  O   UNL     1      -8.676   7.998  65.832  1.00  0.00    -0.148 OA 
HETATM   23  C   UNL     1      -8.459   8.733  64.623  1.00  0.00    -0.151 C  
HETATM   24  H   UNL     1     -11.473  10.945  67.598  1.00  0.00     0.000 HD 
HETATM   25  C   UNL     1      -8.459  10.230  64.928  1.00  0.00    -0.177 C  
HETATM   26  O   UNL     1     -11.397  10.032  67.345  1.00  0.00    -0.187 OA 
HETATM   27  C   UNL     1      -9.783  10.620  65.601  1.00  0.00    -0.230 C  
HETATM   28  O   UNL     1      -8.285  11.026  63.751  1.00  0.00    -0.366 OA 
HETATM   29  H   UNL     1     -10.568  12.251  66.362  1.00  0.00     0.000 HD 
HETATM   30  C   UNL     1     -10.084   9.746  66.841  1.00  0.00    -0.226 C  
HETATM   31  H   UNL     1      -8.285  11.957  63.941  1.00  0.00     0.000 HD 
HETATM   32  O   UNL     1      -9.749  12.010  65.945  1.00  0.00    -0.235 OA 
BRANCH  23  33
HETATM   33  C   UNL     1      -7.125   8.271  64.027  1.00  0.00    -0.084 C  
HETATM   34  O   UNL     1      -7.357   7.681  62.740  1.00  0.00    -0.084 OA 
HETATM   35  H   UNL     1      -6.530   7.395  62.371  1.00  0.00     0.000 HD 
ENDBRANCH  23  33
ENDBRANCH  19  21
ENDBRANCH  13  14
ENDBRANCH  10  13
ENDBRANCH   6   7
ENDBRANCH   1   6
TORSDOF 6
ENDMDL
MODEL      151
REMARK 921   NORMALIZED FREE ENERGY PREDICTED BY IDOCK:   -5.66 KCAL/MOL
REMARK 922        TOTAL FREE ENERGY PREDICTED BY IDOCK:   -8.61 KCAL/MOL
REMARK 923 INTER-LIGAND FREE ENERGY PREDICTED BY IDOCK:   -7.51 KCAL/MOL
REMARK 924 INTRA-LIGAND FREE ENERGY PREDICTED BY IDOCK:   -1.10 KCAL/MOL
REMARK 927      BINDING AFFINITY PREDICTED BY RF-SCORE:    0.00 PKD
ROOT
HETATM    1  C   UNL     1      -7.755   8.260  63.751  1.00  0.00    -0.145 C  
HETATM    2  C   UNL     1      -6.355   8.745  63.420  1.00  0.00    -0.089 C  
HETATM    3  O   UNL     1      -6.159   6.487  64.026  1.00  0.00    -0.032 OA 
HETATM    4  C   UNL     1      -5.617   7.465  63.133  1.00  0.00    -0.045 C  
HETATM    5  C   UNL     1      -7.456   6.941  64.458  1.00  0.00    -0.099 C  
ENDROOT
BRANCH   1   6
HETATM    6  O   UNL     1      -8.363   9.236  64.590  1.00  0.00    -0.142 OA 
BRANCH   6   7
HETATM    7  C   UNL     1      -8.591   8.927  65.899  1.00  0.00    -0.158 A  
HETATM    8  C   UNL     1      -8.092   8.815  68.265  1.00  0.00    -0.114 A  
HETATM    9  C   UNL     1      -7.685   9.074  66.945  1.00  0.00    -0.098 A  
HETATM   10  C   UNL     1      -9.406   8.408  68.554  1.00  0.00    -0.139 A  
HETATM   11  C   UNL     1      -9.893   8.507  66.178  1.00  0.00    -0.227 A  
HETATM   12  C   UNL     1     -10.296   8.240  67.488  1.00  0.00    -0.333 A  
BRANCH  10  13
HETATM   13  C   UNL     1      -9.881   8.233  69.987  1.00  0.00    -0.182 C  
BRANCH  13  14
HETATM   14  C   UNL     1     -10.921   9.262  70.383  1.00  0.00    -0.302 A  
HETATM   15  C   UNL     1     -12.031   8.980  71.192  1.00  0.00    -0.298 A  
HETATM   16 CL   UNL     1     -12.270   7.438  71.931  1.00  0.00    -0.332 Cl 
HETATM   17  C   UNL     1     -13.020   9.947  71.399  1.00  0.00    -0.504 A  
HETATM   18  C   UNL     1     -12.952  11.178  70.740  1.00  0.00    -0.223 A  
HETATM   19  C   UNL     1     -11.882  11.469  69.886  1.00  0.00    -0.430 A  
HETATM   20  C   UNL     1     -10.836  10.537  69.793  1.00  0.00    -0.335 A  
BRANCH  19  21
HETATM   21  C   UNL     1     -11.970  12.651  68.929  1.00  0.00    -0.242 C  
HETATM   22  O   UNL     1     -11.264  12.304  67.722  1.00  0.00    -0.242 OA 
HETATM   23  C   UNL     1     -11.504  13.221  66.649  1.00  0.00    -0.347 C  
HETATM   24  H   UNL     1     -11.980  15.258  70.944  1.00  0.00     0.000 HD 
HETATM   25  C   UNL     1     -10.982  14.604  67.032  1.00  0.00    -0.317 C  
HETATM   26  O   UNL     1     -12.269  14.416  70.613  1.00  0.00    -0.298 OA 
HETATM   27  C   UNL     1     -11.650  15.065  68.336  1.00  0.00    -0.331 C  
HETATM   28  O   UNL     1     -11.226  15.581  66.015  1.00  0.00    -0.247 OA 
HETATM   29  H   UNL     1     -11.520  16.617  69.531  1.00  0.00     0.000 HD 
HETATM   30  C   UNL     1     -11.499  14.023  69.467  1.00  0.00    -0.275 C  
HETATM   31  H   UNL     1     -10.901  16.441  66.254  1.00  0.00     0.000 HD 
HETATM   32  O   UNL     1     -11.106  16.332  68.725  1.00  0.00    -0.323 OA 
BRANCH  23  33
HETATM   33  C   UNL     1     -10.805  12.673  65.400  1.00  0.00    -0.287 C  
HETATM   34  O   UNL     1     -11.175  13.466  64.262  1.00  0.00    -0.373 OA 
HETATM   35  H   UNL     1     -10.742  13.127  63.488  1.00  0.00     0.000 HD 
ENDBRANCH  23  33
ENDBRANCH  19  21
ENDBRANCH  13  14
ENDBRANCH  10  13
ENDBRANCH   6   7
ENDBRANCH   1   6
TORSDOF 6
ENDMDL
MODEL      152
REMARK 921   NORMALIZED FREE ENERGY PREDICTED BY IDOCK:   -5.66 KCAL/MOL
REMARK 922        TOTAL FREE ENERGY PREDICTED BY IDOCK:   -8.61 KCAL/MOL
REMARK 923 INTER-LIGAND FREE ENERGY PREDICTED BY IDOCK:   -7.27 KCAL/MOL
REMARK 924 INTRA-LIGAND FREE ENERGY PREDICTED BY IDOCK:   -1.34 KCAL/MOL
REMARK 927      BINDING AFFINITY PREDICTED BY RF-SCORE:    0.00 PKD
ROOT
HETATM    1  C   UNL     1      -8.114  19.104  68.104  1.00  0.00    -0.316 C  
HETATM    2  C   UNL     1      -6.826  19.875  68.330  1.00  0.00    -0.330 C  
HETATM    3  O   UNL     1      -7.359  20.106  66.057  1.00  0.00    -0.289 OA 
HETATM    4  C   UNL     1      -6.794  20.821  67.160  1.00  0.00    -0.335 C  
HETATM    5  C   UNL     1      -8.152  19.024  66.580  1.00  0.00    -0.274 C  
ENDROOT
BRANCH   1   6
HETATM    6  O   UNL     1      -7.977  17.838  68.742  1.00  0.00    -0.285 OA 
BRANCH   6   7
HETATM    7  C   UNL     1      -8.986  16.929  68.620  1.00  0.00    -0.266 A  
HETATM    8  C   UNL     1     -11.270  16.185  68.319  1.00  0.00    -0.343 A  
HETATM    9  C   UNL     1     -10.346  17.218  68.552  1.00  0.00    -0.371 A  
HETATM   10  C   UNL     1     -10.847  14.855  68.153  1.00  0.00    -0.256 A  
HETATM   11  C   UNL     1      -8.561  15.608  68.472  1.00  0.00    -0.180 A  
HETATM   12  C   UNL     1      -9.480  14.578  68.250  1.00  0.00    -0.207 A  
BRANCH  10  13
HETATM   13  C   UNL     1     -11.831  13.754  67.793  1.00  0.00    -0.404 C  
BRANCH  13  14
HETATM   14  C   UNL     1     -11.868  12.647  68.829  1.00  0.00    -0.341 A  
HETATM   15  C   UNL     1     -12.432  12.790  70.104  1.00  0.00    -0.056 A  
HETATM   16 CL   UNL     1     -13.263  14.223  70.595  1.00  0.00    -0.275 Cl 
HETATM   17  C   UNL     1     -12.304  11.770  71.053  1.00  0.00    -0.386 A  
HETATM   18  C   UNL     1     -11.547  10.632  70.767  1.00  0.00    -0.388 A  
HETATM   19  C   UNL     1     -10.929  10.483  69.519  1.00  0.00    -0.312 A  
HETATM   20  C   UNL     1     -11.176  11.457  68.538  1.00  0.00    -0.309 A  
BRANCH  19  21
HETATM   21  C   UNL     1      -9.853   9.423  69.323  1.00  0.00    -0.174 C  
HETATM   22  O   UNL     1      -8.642   9.891  69.947  1.00  0.00    -0.194 OA 
HETATM   23  C   UNL     1      -7.642   8.874  70.065  1.00  0.00    -0.066 C  
HETATM   24  H   UNL     1     -10.599   8.123  66.388  1.00  0.00     0.000 HD 
HETATM   25  C   UNL     1      -7.219   8.410  68.672  1.00  0.00    -0.080 C  
HETATM   26  O   UNL     1     -10.765   8.405  67.280  1.00  0.00    -0.285 OA 
HETATM   27  C   UNL     1      -8.449   7.913  67.898  1.00  0.00    -0.126 C  
HETATM   28  O   UNL     1      -6.245   7.362  68.719  1.00  0.00    -0.029 OA 
HETATM   29  H   UNL     1      -8.816   7.236  66.092  1.00  0.00     0.000 HD 
HETATM   30  C   UNL     1      -9.582   8.964  67.871  1.00  0.00    -0.148 C  
HETATM   31  H   UNL     1      -5.982   7.073  67.853  1.00  0.00     0.000 HD 
HETATM   32  O   UNL     1      -8.055   7.543  66.571  1.00  0.00    -0.113 OA 
BRANCH  23  33
HETATM   33  C   UNL     1      -6.466   9.462  70.853  1.00  0.00    -0.096 C  
HETATM   34  O   UNL     1      -5.721   8.397  71.459  1.00  0.00    -0.034 OA 
HETATM   35  H   UNL     1      -4.991   8.761  71.947  1.00  0.00     0.000 HD 
ENDBRANCH  23  33
ENDBRANCH  19  21
ENDBRANCH  13  14
ENDBRANCH  10  13
ENDBRANCH   6   7
ENDBRANCH   1   6
TORSDOF 6
ENDMDL
MODEL      153
REMARK 921   NORMALIZED FREE ENERGY PREDICTED BY IDOCK:   -5.62 KCAL/MOL
REMARK 922        TOTAL FREE ENERGY PREDICTED BY IDOCK:   -8.55 KCAL/MOL
REMARK 923 INTER-LIGAND FREE ENERGY PREDICTED BY IDOCK:   -7.78 KCAL/MOL
REMARK 924 INTRA-LIGAND FREE ENERGY PREDICTED BY IDOCK:   -0.77 KCAL/MOL
REMARK 927      BINDING AFFINITY PREDICTED BY RF-SCORE:    0.00 PKD
ROOT
HETATM    1  C   UNL     1     -11.993  15.011  71.846  1.00  0.00    -0.382 C  
HETATM    2  C   UNL     1     -12.258  16.183  72.774  1.00  0.00    -0.628 C  
HETATM    3  O   UNL     1     -13.387  14.337  73.681  1.00  0.00    -0.164 OA 
HETATM    4  C   UNL     1     -12.656  15.507  74.059  1.00  0.00    -0.625 C  
HETATM    5  C   UNL     1     -13.041  14.009  72.322  1.00  0.00    -0.423 C  
ENDROOT
BRANCH   1   6
HETATM    6  O   UNL     1     -12.196  15.464  70.511  1.00  0.00    -0.338 OA 
BRANCH   6   7
HETATM    7  C   UNL     1     -11.557  14.817  69.494  1.00  0.00    -0.304 A  
HETATM    8  C   UNL     1     -11.303  13.183  67.726  1.00  0.00    -0.326 A  
HETATM    9  C   UNL     1     -12.015  13.683  68.830  1.00  0.00    -0.394 A  
HETATM   10  C   UNL     1     -10.129  13.809  67.275  1.00  0.00    -0.239 A  
HETATM   11  C   UNL     1     -10.383  15.434  69.061  1.00  0.00    -0.243 A  
HETATM   12  C   UNL     1      -9.668  14.933  67.969  1.00  0.00    -0.212 A  
BRANCH  10  13
HETATM   13  C   UNL     1      -9.416  13.339  66.017  1.00  0.00    -0.098 C  
BRANCH  13  14
HETATM   14  C   UNL     1      -9.422  11.829  65.878  1.00  0.00    -0.239 A  
HETATM   15  C   UNL     1      -9.737  11.156  64.690  1.00  0.00    -0.262 A  
HETATM   16 CL   UNL     1     -10.039  11.986  63.206  1.00  0.00    -0.435 Cl 
HETATM   17  C   UNL     1      -9.856   9.762  64.677  1.00  0.00    -0.061 A  
HETATM   18  C   UNL     1      -9.740   9.032  65.863  1.00  0.00    -0.306 A  
HETATM   19  C   UNL     1      -9.476   9.682  67.074  1.00  0.00    -0.195 A  
HETATM   20  C   UNL     1      -9.232  11.065  67.045  1.00  0.00    -0.164 A  
BRANCH  19  21
HETATM   21  C   UNL     1      -9.673   8.946  68.393  1.00  0.00    -0.161 C  
HETATM   22  O   UNL     1      -8.468   9.089  69.170  1.00  0.00    -0.123 OA 
HETATM   23  C   UNL     1      -8.626   8.674  70.531  1.00  0.00    -0.156 C  
HETATM   24  H   UNL     1     -11.614   6.416  67.566  1.00  0.00     0.000 HD 
HETATM   25  C   UNL     1      -8.955   7.183  70.576  1.00  0.00    -0.155 C  
HETATM   26  O   UNL     1     -11.352   7.327  67.618  1.00  0.00     0.066 OA 
HETATM   27  C   UNL     1     -10.217   6.907  69.746  1.00  0.00    -0.196 C  
HETATM   28  O   UNL     1      -9.164   6.710  71.911  1.00  0.00    -0.148 OA 
HETATM   29  H   UNL     1     -11.261   5.329  69.223  1.00  0.00     0.000 HD 
HETATM   30  C   UNL     1     -10.100   7.462  68.307  1.00  0.00    -0.177 C  
HETATM   31  H   UNL     1      -9.369   5.783  71.938  1.00  0.00     0.000 HD 
HETATM   32  O   UNL     1     -10.480   5.499  69.737  1.00  0.00    -0.270 OA 
BRANCH  23  33
HETATM   33  C   UNL     1      -7.324   8.995  71.273  1.00  0.00    -0.069 C  
HETATM   34  O   UNL     1      -7.563   8.962  72.688  1.00  0.00    -0.359 OA 
HETATM   35  H   UNL     1      -6.756   9.161  73.148  1.00  0.00     0.000 HD 
ENDBRANCH  23  33
ENDBRANCH  19  21
ENDBRANCH  13  14
ENDBRANCH  10  13
ENDBRANCH   6   7
ENDBRANCH   1   6
TORSDOF 6
ENDMDL
MODEL      154
REMARK 921   NORMALIZED FREE ENERGY PREDICTED BY IDOCK:   -5.59 KCAL/MOL
REMARK 922        TOTAL FREE ENERGY PREDICTED BY IDOCK:   -8.52 KCAL/MOL
REMARK 923 INTER-LIGAND FREE ENERGY PREDICTED BY IDOCK:   -7.72 KCAL/MOL
REMARK 924 INTRA-LIGAND FREE ENERGY PREDICTED BY IDOCK:   -0.80 KCAL/MOL
REMARK 927      BINDING AFFINITY PREDICTED BY RF-SCORE:    0.00 PKD
ROOT
HETATM    1  C   UNL     1      -9.031  11.303  63.919  1.00  0.00     0.092 C  
HETATM    2  C   UNL     1      -9.357  10.004  64.634  1.00  0.00    -0.338 C  
HETATM    3  O   UNL     1      -9.026   9.464  62.375  1.00  0.00    -0.251 OA 
HETATM    4  C   UNL     1      -8.811   8.960  63.697  1.00  0.00     0.095 C  
HETATM    5  C   UNL     1      -9.198  10.891  62.459  1.00  0.00    -0.304 C  
ENDROOT
BRANCH   1   6
HETATM    6  O   UNL     1      -9.970  12.281  64.351  1.00  0.00    -0.270 OA 
BRANCH   6   7
HETATM    7  C   UNL     1     -10.232  12.397  65.685  1.00  0.00    -0.262 A  
HETATM    8  C   UNL     1      -9.765  12.970  67.990  1.00  0.00    -0.224 A  
HETATM    9  C   UNL     1      -9.328  12.792  66.666  1.00  0.00    -0.242 A  
HETATM   10  C   UNL     1     -11.108  12.757  68.346  1.00  0.00    -0.293 A  
HETATM   11  C   UNL     1     -11.563  12.168  66.036  1.00  0.00    -0.420 A  
HETATM   12  C   UNL     1     -11.998  12.335  67.353  1.00  0.00    -0.204 A  
BRANCH  10  13
HETATM   13  C   UNL     1     -11.608  13.053  69.751  1.00  0.00    -0.286 C  
BRANCH  13  14
HETATM   14  C   UNL     1     -12.213  11.835  70.421  1.00  0.00    -0.416 A  
HETATM   15  C   UNL     1     -13.173  11.900  71.440  1.00  0.00    -0.085 A  
HETATM   16 CL   UNL     1     -13.868  13.391  71.965  1.00  0.00    -0.520 Cl 
HETATM   17  C   UNL     1     -13.580  10.738  72.104  1.00  0.00    -0.100 A  
HETATM   18  C   UNL     1     -12.978   9.511  71.813  1.00  0.00    -0.502 A  
HETATM   19  C   UNL     1     -11.979   9.423  70.835  1.00  0.00    -0.351 A  
HETATM   20  C   UNL     1     -11.677  10.576  70.091  1.00  0.00    -0.410 A  
BRANCH  19  21
HETATM   21  C   UNL     1     -11.105   8.179  70.748  1.00  0.00    -0.259 C  
HETATM   22  O   UNL     1     -11.368   7.534  69.487  1.00  0.00    -0.034 OA 
HETATM   23  C   UNL     1     -10.418   6.511  69.171  1.00  0.00    -0.221 C  
HETATM   24  H   UNL     1     -10.914   7.166  73.877  1.00  0.00     0.000 HD 
HETATM   25  C   UNL     1     -10.502   5.397  70.214  1.00  0.00    -0.285 C  
HETATM   26  O   UNL     1     -10.851   7.786  73.160  1.00  0.00    -0.389 OA 
HETATM   27  C   UNL     1     -10.265   5.982  71.614  1.00  0.00    -0.201 C  
HETATM   28  O   UNL     1      -9.548   4.357  69.978  1.00  0.00    -0.166 OA 
HETATM   29  H   UNL     1     -10.266   5.307  73.457  1.00  0.00     0.000 HD 
HETATM   30  C   UNL     1     -11.209   7.169  71.915  1.00  0.00    -0.249 C  
HETATM   31  H   UNL     1      -9.600   3.664  70.626  1.00  0.00     0.000 HD 
HETATM   32  O   UNL     1     -10.412   4.945  72.592  1.00  0.00    -0.192 OA 
BRANCH  23  33
HETATM   33  C   UNL     1     -10.732   5.998  67.761  1.00  0.00    -0.289 C  
HETATM   34  O   UNL     1      -9.674   6.379  66.870  1.00  0.00    -0.141 OA 
HETATM   35  H   UNL     1      -9.868   6.061  65.996  1.00  0.00     0.000 HD 
ENDBRANCH  23  33
ENDBRANCH  19  21
ENDBRANCH  13  14
ENDBRANCH  10  13
ENDBRANCH   6   7
ENDBRANCH   1   6
TORSDOF 6
ENDMDL
MODEL      155
REMARK 921   NORMALIZED FREE ENERGY PREDICTED BY IDOCK:   -5.59 KCAL/MOL
REMARK 922        TOTAL FREE ENERGY PREDICTED BY IDOCK:   -8.51 KCAL/MOL
REMARK 923 INTER-LIGAND FREE ENERGY PREDICTED BY IDOCK:   -7.09 KCAL/MOL
REMARK 924 INTRA-LIGAND FREE ENERGY PREDICTED BY IDOCK:   -1.42 KCAL/MOL
REMARK 927      BINDING AFFINITY PREDICTED BY RF-SCORE:    0.00 PKD
ROOT
HETATM    1  C   UNL     1     -11.514   9.305  71.077  1.00  0.00    -0.319 C  
HETATM    2  C   UNL     1     -10.438   8.962  72.091  1.00  0.00    -0.320 C  
HETATM    3  O   UNL     1     -11.774   7.047  71.853  1.00  0.00    -0.273 OA 
HETATM    4  C   UNL     1     -10.419   7.457  72.061  1.00  0.00    -0.199 C  
HETATM    5  C   UNL     1     -12.496   8.154  71.280  1.00  0.00    -0.252 C  
ENDROOT
BRANCH   1   6
HETATM    6  O   UNL     1     -12.044  10.580  71.424  1.00  0.00    -0.344 OA 
BRANCH   6   7
HETATM    7  C   UNL     1     -12.130  11.540  70.459  1.00  0.00    -0.378 A  
HETATM    8  C   UNL     1     -12.323  13.791  69.589  1.00  0.00    -0.284 A  
HETATM    9  C   UNL     1     -12.366  12.895  70.671  1.00  0.00    -0.385 A  
HETATM   10  C   UNL     1     -12.044  13.344  68.286  1.00  0.00    -0.271 A  
HETATM   11  C   UNL     1     -11.868  11.088  69.165  1.00  0.00    -0.407 A  
HETATM   12  C   UNL     1     -11.835  11.976  68.086  1.00  0.00    -0.352 A  
BRANCH  10  13
HETATM   13  C   UNL     1     -11.889  14.322  67.133  1.00  0.00    -0.454 C  
BRANCH  13  14
HETATM   14  C   UNL     1     -10.497  14.921  67.063  1.00  0.00    -0.272 A  
HETATM   15  C   UNL     1     -10.059  15.760  66.030  1.00  0.00    -0.337 A  
HETATM   16 CL   UNL     1     -11.108  16.307  64.772  1.00  0.00    -0.391 Cl 
HETATM   17  C   UNL     1      -8.720  16.160  65.963  1.00  0.00    -0.282 A  
HETATM   18  C   UNL     1      -7.789  15.664  66.879  1.00  0.00    -0.258 A  
HETATM   19  C   UNL     1      -8.187  14.783  67.892  1.00  0.00    -0.154 A  
HETATM   20  C   UNL     1      -9.556  14.497  68.021  1.00  0.00    -0.217 A  
BRANCH  19  21
HETATM   21  C   UNL     1      -7.143  13.998  68.673  1.00  0.00    -0.108 C  
HETATM   22  O   UNL     1      -7.643  12.661  68.874  1.00  0.00    -0.062 OA 
HETATM   23  C   UNL     1      -6.646  11.755  69.355  1.00  0.00    -0.113 C  
HETATM   24  H   UNL     1      -5.775  16.279  70.618  1.00  0.00     0.000 HD 
HETATM   25  C   UNL     1      -6.163  12.210  70.731  1.00  0.00     0.564 C  
HETATM   26  O   UNL     1      -6.071  15.902  69.798  1.00  0.00    -0.153 OA 
HETATM   27  C   UNL     1      -5.631  13.648  70.642  1.00  0.00    -0.165 C  
HETATM   28  O   UNL     1      -5.133  11.365  71.255  1.00  0.00    -0.112 OA 
HETATM   29  H   UNL     1      -4.914  14.981  71.892  1.00  0.00     0.000 HD 
HETATM   30  C   UNL     1      -6.661  14.611  70.009  1.00  0.00    -0.135 C  
HETATM   31  H   UNL     1      -4.833  11.649  72.111  1.00  0.00     0.000 HD 
HETATM   32  O   UNL     1      -5.243  14.092  71.948  1.00  0.00    -0.158 OA 
BRANCH  23  33
HETATM   33  C   UNL     1      -7.269  10.355  69.403  1.00  0.00    -0.109 C  
HETATM   34  O   UNL     1      -7.551  10.007  70.766  1.00  0.00    -0.390 OA 
HETATM   35  H   UNL     1      -7.937   9.140  70.796  1.00  0.00     0.000 HD 
ENDBRANCH  23  33
ENDBRANCH  19  21
ENDBRANCH  13  14
ENDBRANCH  10  13
ENDBRANCH   6   7
ENDBRANCH   1   6
TORSDOF 6
ENDMDL
MODEL      156
REMARK 921   NORMALIZED FREE ENERGY PREDICTED BY IDOCK:   -5.57 KCAL/MOL
REMARK 922        TOTAL FREE ENERGY PREDICTED BY IDOCK:   -8.49 KCAL/MOL
REMARK 923 INTER-LIGAND FREE ENERGY PREDICTED BY IDOCK:   -7.17 KCAL/MOL
REMARK 924 INTRA-LIGAND FREE ENERGY PREDICTED BY IDOCK:   -1.32 KCAL/MOL
REMARK 927      BINDING AFFINITY PREDICTED BY RF-SCORE:    0.00 PKD
ROOT
HETATM    1  C   UNL     1     -12.247  14.588  71.011  1.00  0.00    -0.339 C  
HETATM    2  C   UNL     1     -12.907  15.774  71.690  1.00  0.00    -0.514 C  
HETATM    3  O   UNL     1     -13.809  13.847  72.677  1.00  0.00    -0.666 OA 
HETATM    4  C   UNL     1     -13.405  15.185  72.982  1.00  0.00    -0.484 C  
HETATM    5  C   UNL     1     -13.152  13.444  71.460  1.00  0.00    -0.342 C  
ENDROOT
BRANCH   1   6
HETATM    6  O   UNL     1     -12.274  14.824  69.607  1.00  0.00    -0.306 OA 
BRANCH   6   7
HETATM    7  C   UNL     1     -11.391  14.155  68.811  1.00  0.00    -0.278 A  
HETATM    8  C   UNL     1      -9.211  13.460  68.022  1.00  0.00    -0.209 A  
HETATM    9  C   UNL     1     -10.007  14.293  68.826  1.00  0.00    -0.205 A  
HETATM   10  C   UNL     1      -9.788  12.481  67.195  1.00  0.00    -0.210 A  
HETATM   11  C   UNL     1     -11.971  13.195  67.980  1.00  0.00    -0.345 A  
HETATM   12  C   UNL     1     -11.182  12.372  67.172  1.00  0.00    -0.353 A  
BRANCH  10  13
HETATM   13  C   UNL     1      -8.928  11.507  66.408  1.00  0.00    -0.200 C  
BRANCH  13  14
HETATM   14  C   UNL     1      -8.139  10.573  67.305  1.00  0.00    -0.115 A  
HETATM   15  C   UNL     1      -6.778  10.289  67.132  1.00  0.00    -0.078 A  
HETATM   16 CL   UNL     1      -5.811  11.076  65.937  1.00  0.00    -0.131 Cl 
HETATM   17  C   UNL     1      -6.154   9.311  67.915  1.00  0.00    -0.050 A  
HETATM   18  C   UNL     1      -6.898   8.552  68.822  1.00  0.00    -0.062 A  
HETATM   19  C   UNL     1      -8.271   8.778  68.979  1.00  0.00    -0.117 A  
HETATM   20  C   UNL     1      -8.851   9.849  68.280  1.00  0.00    -0.119 A  
BRANCH  19  21
HETATM   21  C   UNL     1      -9.133   7.755  69.707  1.00  0.00    -0.147 C  
HETATM   22  O   UNL     1      -8.812   7.815  71.111  1.00  0.00    -0.133 OA 
HETATM   23  C   UNL     1      -9.741   7.099  71.930  1.00  0.00    -0.156 C  
HETATM   24  H   UNL     1      -9.454   5.328  67.502  1.00  0.00     0.000 HD 
HETATM   25  C   UNL     1      -9.696   5.613  71.575  1.00  0.00    -0.161 C  
HETATM   26  O   UNL     1      -9.490   6.223  67.820  1.00  0.00    -0.120 OA 
HETATM   27  C   UNL     1      -9.997   5.431  70.079  1.00  0.00    -0.233 C  
HETATM   28  O   UNL     1     -10.633   4.843  72.334  1.00  0.00    -0.209 OA 
HETATM   29  H   UNL     1     -10.072   3.932  68.815  1.00  0.00     0.000 HD 
HETATM   30  C   UNL     1      -9.075   6.298  69.191  1.00  0.00    -0.130 C  
HETATM   31  H   UNL     1     -10.605   3.919  72.112  1.00  0.00     0.000 HD 
HETATM   32  O   UNL     1      -9.887   4.044  69.739  1.00  0.00    -0.211 OA 
BRANCH  23  33
HETATM   33  C   UNL     1      -9.363   7.347  73.394  1.00  0.00    -0.212 C  
HETATM   34  O   UNL     1      -8.604   8.561  73.490  1.00  0.00    -0.341 OA 
HETATM   35  H   UNL     1      -8.369   8.715  74.397  1.00  0.00     0.000 HD 
ENDBRANCH  23  33
ENDBRANCH  19  21
ENDBRANCH  13  14
ENDBRANCH  10  13
ENDBRANCH   6   7
ENDBRANCH   1   6
TORSDOF 6
ENDMDL
MODEL      157
REMARK 921   NORMALIZED FREE ENERGY PREDICTED BY IDOCK:   -5.56 KCAL/MOL
REMARK 922        TOTAL FREE ENERGY PREDICTED BY IDOCK:   -8.47 KCAL/MOL
REMARK 923 INTER-LIGAND FREE ENERGY PREDICTED BY IDOCK:   -7.35 KCAL/MOL
REMARK 924 INTRA-LIGAND FREE ENERGY PREDICTED BY IDOCK:   -1.12 KCAL/MOL
REMARK 927      BINDING AFFINITY PREDICTED BY RF-SCORE:    0.00 PKD
ROOT
HETATM    1  C   UNL     1     -11.618  11.970  64.617  1.00  0.00    -0.297 C  
HETATM    2  C   UNL     1     -10.819  13.261  64.640  1.00  0.00    -0.396 C  
HETATM    3  O   UNL     1     -12.699  13.657  63.293  1.00  0.00    -0.765 OA 
HETATM    4  C   UNL     1     -11.841  14.293  64.245  1.00  0.00    -0.379 C  
HETATM    5  C   UNL     1     -12.576  12.232  63.458  1.00  0.00    -0.476 C  
ENDROOT
BRANCH   1   6
HETATM    6  O   UNL     1     -10.707  10.902  64.379  1.00  0.00    -0.340 OA 
BRANCH   6   7
HETATM    7  C   UNL     1      -9.700  10.685  65.272  1.00  0.00    -0.259 A  
HETATM    8  C   UNL     1      -7.404  10.459  66.007  1.00  0.00    -0.134 A  
HETATM    9  C   UNL     1      -8.346  10.576  64.970  1.00  0.00    -0.140 A  
HETATM   10  C   UNL     1      -7.804  10.449  67.354  1.00  0.00    -0.103 A  
HETATM   11  C   UNL     1     -10.105  10.660  66.608  1.00  0.00    -0.270 A  
HETATM   12  C   UNL     1      -9.171  10.533  67.640  1.00  0.00    -0.153 A  
BRANCH  10  13
HETATM   13  C   UNL     1      -6.784  10.432  68.480  1.00  0.00    -0.056 C  
BRANCH  13  14
HETATM   14  C   UNL     1      -6.512  11.816  69.038  1.00  0.00    -0.084 A  
HETATM   15  C   UNL     1      -5.870  12.053  70.260  1.00  0.00    -0.164 A  
HETATM   16 CL   UNL     1      -5.204  10.781  71.220  1.00  0.00    -0.096 Cl 
HETATM   17  C   UNL     1      -5.779  13.352  70.772  1.00  0.00    -0.184 A  
HETATM   18  C   UNL     1      -6.396  14.416  70.109  1.00  0.00    -0.158 A  
HETATM   19  C   UNL     1      -7.088  14.202  68.911  1.00  0.00    -0.110 A  
HETATM   20  C   UNL     1      -7.057  12.915  68.348  1.00  0.00    -0.099 A  
BRANCH  19  21
HETATM   21  C   UNL     1      -8.022  15.275  68.368  1.00  0.00    -0.131 C  
HETATM   22  O   UNL     1      -7.403  16.559  68.582  1.00  0.00    -0.172 OA 
HETATM   23  C   UNL     1      -8.054  17.620  67.877  1.00  0.00    -0.233 C  
HETATM   24  H   UNL     1     -11.019  14.023  68.922  1.00  0.00     0.000 HD 
HETATM   25  C   UNL     1      -9.484  17.776  68.394  1.00  0.00    -0.297 C  
HETATM   26  O   UNL     1     -10.127  14.026  68.597  1.00  0.00    -0.230 OA 
HETATM   27  C   UNL     1     -10.236  16.445  68.241  1.00  0.00    -0.255 C  
HETATM   28  O   UNL     1     -10.206  18.799  67.701  1.00  0.00    -0.356 OA 
HETATM   29  H   UNL     1     -12.017  15.757  68.696  1.00  0.00     0.000 HD 
HETATM   30  C   UNL     1      -9.476  15.270  68.898  1.00  0.00    -0.218 C  
HETATM   31  H   UNL     1     -11.095  18.896  68.022  1.00  0.00     0.000 HD 
HETATM   32  O   UNL     1     -11.553  16.580  68.790  1.00  0.00    -0.251 OA 
BRANCH  23  33
HETATM   33  C   UNL     1      -7.230  18.895  68.084  1.00  0.00    -0.253 C  
HETATM   34  O   UNL     1      -6.757  18.940  69.438  1.00  0.00    -0.292 OA 
HETATM   35  H   UNL     1      -6.246  19.731  69.567  1.00  0.00     0.000 HD 
ENDBRANCH  23  33
ENDBRANCH  19  21
ENDBRANCH  13  14
ENDBRANCH  10  13
ENDBRANCH   6   7
ENDBRANCH   1   6
TORSDOF 6
ENDMDL
MODEL      158
REMARK 921   NORMALIZED FREE ENERGY PREDICTED BY IDOCK:   -5.53 KCAL/MOL
REMARK 922        TOTAL FREE ENERGY PREDICTED BY IDOCK:   -8.43 KCAL/MOL
REMARK 923 INTER-LIGAND FREE ENERGY PREDICTED BY IDOCK:   -7.15 KCAL/MOL
REMARK 924 INTRA-LIGAND FREE ENERGY PREDICTED BY IDOCK:   -1.28 KCAL/MOL
REMARK 927      BINDING AFFINITY PREDICTED BY RF-SCORE:    0.00 PKD
ROOT
HETATM    1  C   UNL     1      -9.668   5.167  69.693  1.00  0.00    -0.185 C  
HETATM    2  C   UNL     1     -10.459   5.958  70.720  1.00  0.00    -0.311 C  
HETATM    3  O   UNL     1      -9.850   3.939  71.748  1.00  0.00    -0.167 OA 
HETATM    4  C   UNL     1     -10.036   5.331  72.022  1.00  0.00    -0.194 C  
HETATM    5  C   UNL     1      -9.652   3.780  70.331  1.00  0.00    -0.192 C  
ENDROOT
BRANCH   1   6
HETATM    6  O   UNL     1     -10.381   5.225  68.462  1.00  0.00    -0.167 OA 
BRANCH   6   7
HETATM    7  C   UNL     1     -10.159   6.277  67.623  1.00  0.00    -0.150 A  
HETATM    8  C   UNL     1     -10.495   8.500  66.727  1.00  0.00    -0.308 A  
HETATM    9  C   UNL     1     -10.901   7.453  67.570  1.00  0.00    -0.257 A  
HETATM   10  C   UNL     1      -9.344   8.385  65.928  1.00  0.00    -0.205 A  
HETATM   11  C   UNL     1      -9.025   6.150  66.820  1.00  0.00    -0.125 A  
HETATM   12  C   UNL     1      -8.624   7.187  65.974  1.00  0.00    -0.158 A  
BRANCH  10  13
HETATM   13  C   UNL     1      -8.839   9.554  65.098  1.00  0.00    -0.223 C  
BRANCH  13  14
HETATM   14  C   UNL     1      -8.455  10.748  65.951  1.00  0.00    -0.166 A  
HETATM   15  C   UNL     1      -7.208  10.895  66.573  1.00  0.00    -0.142 A  
HETATM   16 CL   UNL     1      -5.915   9.775  66.334  1.00  0.00    -0.061 Cl 
HETATM   17  C   UNL     1      -6.978  11.956  67.455  1.00  0.00    -0.123 A  
HETATM   18  C   UNL     1      -8.012  12.835  67.787  1.00  0.00    -0.157 A  
HETATM   19  C   UNL     1      -9.284  12.683  67.220  1.00  0.00    -0.195 A  
HETATM   20  C   UNL     1      -9.458  11.692  66.240  1.00  0.00    -0.233 A  
BRANCH  19  21
HETATM   21  C   UNL     1     -10.476  13.418  67.816  1.00  0.00    -0.243 C  
HETATM   22  O   UNL     1     -10.130  14.812  67.935  1.00  0.00    -0.219 OA 
HETATM   23  C   UNL     1     -11.256  15.647  68.226  1.00  0.00    -0.353 C  
HETATM   24  H   UNL     1     -11.819  11.181  69.828  1.00  0.00     0.000 HD 
HETATM   25  C   UNL     1     -11.837  15.264  69.587  1.00  0.00    -0.339 C  
HETATM   26  O   UNL     1     -11.475  11.515  69.009  1.00  0.00    -0.236 OA 
HETATM   27  C   UNL     1     -12.217  13.775  69.585  1.00  0.00    -0.305 C  
HETATM   28  O   UNL     1     -12.993  16.037  69.923  1.00  0.00    -0.585 OA 
HETATM   29  H   UNL     1     -12.932  12.487  70.881  1.00  0.00     0.000 HD 
HETATM   30  C   UNL     1     -11.037  12.875  69.151  1.00  0.00    -0.190 C  
HETATM   31  H   UNL     1     -13.355  15.799  70.769  1.00  0.00     0.000 HD 
HETATM   32  O   UNL     1     -12.698  13.407  70.883  1.00  0.00    -0.325 OA 
BRANCH  23  33
HETATM   33  C   UNL     1     -10.779  17.103  68.200  1.00  0.00    -0.366 C  
HETATM   34  O   UNL     1      -9.465  17.183  68.772  1.00  0.00    -0.268 OA 
HETATM   35  H   UNL     1      -9.169  18.086  68.755  1.00  0.00     0.000 HD 
ENDBRANCH  23  33
ENDBRANCH  19  21
ENDBRANCH  13  14
ENDBRANCH  10  13
ENDBRANCH   6   7
ENDBRANCH   1   6
TORSDOF 6
ENDMDL
MODEL      159
REMARK 921   NORMALIZED FREE ENERGY PREDICTED BY IDOCK:   -5.52 KCAL/MOL
REMARK 922        TOTAL FREE ENERGY PREDICTED BY IDOCK:   -8.42 KCAL/MOL
REMARK 923 INTER-LIGAND FREE ENERGY PREDICTED BY IDOCK:   -7.92 KCAL/MOL
REMARK 924 INTRA-LIGAND FREE ENERGY PREDICTED BY IDOCK:   -0.49 KCAL/MOL
REMARK 927      BINDING AFFINITY PREDICTED BY RF-SCORE:    0.00 PKD
ROOT
HETATM    1  C   UNL     1     -11.230   4.890  72.645  1.00  0.00    -0.120 C  
HETATM    2  C   UNL     1      -9.896   4.695  71.947  1.00  0.00    -0.241 C  
HETATM    3  O   UNL     1      -9.465   4.633  74.252  1.00  0.00    -0.116 OA 
HETATM    4  C   UNL     1      -9.053   4.048  73.013  1.00  0.00    -0.110 C  
HETATM    5  C   UNL     1     -10.780   5.191  74.072  1.00  0.00    -0.268 C  
ENDROOT
BRANCH   1   6
HETATM    6  O   UNL     1     -11.894   5.979  72.011  1.00  0.00    -0.303 OA 
BRANCH   6   7
HETATM    7  C   UNL     1     -11.144   6.939  71.398  1.00  0.00    -0.250 A  
HETATM    8  C   UNL     1      -9.697   8.876  71.281  1.00  0.00    -0.359 A  
HETATM    9  C   UNL     1     -10.530   8.020  72.023  1.00  0.00    -0.308 A  
HETATM   10  C   UNL     1      -9.469   8.661  69.911  1.00  0.00    -0.168 A  
HETATM   11  C   UNL     1     -10.935   6.730  70.034  1.00  0.00    -0.344 A  
HETATM   12  C   UNL     1     -10.115   7.585  69.294  1.00  0.00    -0.188 A  
BRANCH  10  13
HETATM   13  C   UNL     1      -8.485   9.517  69.131  1.00  0.00    -0.131 C  
BRANCH  13  14
HETATM   14  C   UNL     1      -8.805   9.565  67.649  1.00  0.00    -0.121 A  
HETATM   15  C   UNL     1      -8.362   8.610  66.724  1.00  0.00    -0.108 A  
HETATM   16 CL   UNL     1      -7.495   7.193  67.196  1.00  0.00    -0.096 Cl 
HETATM   17  C   UNL     1      -8.581   8.798  65.355  1.00  0.00    -0.203 A  
HETATM   18  C   UNL     1      -9.173   9.975  64.890  1.00  0.00    -0.291 A  
HETATM   19  C   UNL     1      -9.579  10.970  65.787  1.00  0.00    -0.260 A  
HETATM   20  C   UNL     1      -9.468  10.706  67.162  1.00  0.00    -0.177 A  
BRANCH  19  21
HETATM   21  C   UNL     1      -9.914  12.365  65.278  1.00  0.00    -0.215 C  
HETATM   22  O   UNL     1      -9.639  13.306  66.334  1.00  0.00    -0.265 OA 
HETATM   23  C   UNL     1      -9.656  14.667  65.891  1.00  0.00    -0.268 C  
HETATM   24  H   UNL     1     -12.449  11.840  63.240  1.00  0.00     0.000 HD 
HETATM   25  C   UNL     1     -11.056  15.025  65.393  1.00  0.00    -0.374 C  
HETATM   26  O   UNL     1     -11.576  11.709  63.591  1.00  0.00    -0.424 OA 
HETATM   27  C   UNL     1     -11.469  14.056  64.275  1.00  0.00    -0.297 C  
HETATM   28  O   UNL     1     -11.132  16.366  64.898  1.00  0.00    -0.510 OA 
HETATM   29  H   UNL     1     -13.062  13.756  63.168  1.00  0.00     0.000 HD 
HETATM   30  C   UNL     1     -11.336  12.578  64.707  1.00  0.00    -0.313 C  
HETATM   31  H   UNL     1     -12.003  16.588  64.588  1.00  0.00     0.000 HD 
HETATM   32  O   UNL     1     -12.807  14.355  63.860  1.00  0.00    -0.655 OA 
BRANCH  23  33
HETATM   33  C   UNL     1      -9.227  15.549  67.069  1.00  0.00    -0.225 C  
HETATM   34  O   UNL     1      -8.885  16.856  66.585  1.00  0.00    -0.215 OA 
HETATM   35  H   UNL     1      -8.619  17.402  67.315  1.00  0.00     0.000 HD 
ENDBRANCH  23  33
ENDBRANCH  19  21
ENDBRANCH  13  14
ENDBRANCH  10  13
ENDBRANCH   6   7
ENDBRANCH   1   6
TORSDOF 6
ENDMDL
MODEL      160
REMARK 921   NORMALIZED FREE ENERGY PREDICTED BY IDOCK:   -5.51 KCAL/MOL
REMARK 922        TOTAL FREE ENERGY PREDICTED BY IDOCK:   -8.41 KCAL/MOL
REMARK 923 INTER-LIGAND FREE ENERGY PREDICTED BY IDOCK:   -7.18 KCAL/MOL
REMARK 924 INTRA-LIGAND FREE ENERGY PREDICTED BY IDOCK:   -1.23 KCAL/MOL
REMARK 927      BINDING AFFINITY PREDICTED BY RF-SCORE:    0.00 PKD
ROOT
HETATM    1  C   UNL     1     -12.871  13.479  71.875  1.00  0.00    -0.272 C  
HETATM    2  C   UNL     1     -13.534  14.264  70.757  1.00  0.00    -0.079 C  
HETATM    3  O   UNL     1     -13.095  15.792  72.483  1.00  0.00    -0.429 OA 
HETATM    4  C   UNL     1     -13.126  15.681  71.057  1.00  0.00    -0.427 C  
HETATM    5  C   UNL     1     -12.971  14.467  73.034  1.00  0.00    -0.472 C  
ENDROOT
BRANCH   1   6
HETATM    6  O   UNL     1     -13.622  12.286  72.071  1.00  0.00    -0.400 OA 
BRANCH   6   7
HETATM    7  C   UNL     1     -13.037  11.087  71.789  1.00  0.00    -0.449 A  
HETATM    8  C   UNL     1     -12.683   8.700  71.976  1.00  0.00    -0.427 A  
HETATM    9  C   UNL     1     -13.281   9.883  72.443  1.00  0.00    -0.315 A  
HETATM   10  C   UNL     1     -11.837   8.706  70.854  1.00  0.00    -0.257 A  
HETATM   11  C   UNL     1     -12.185  11.103  70.684  1.00  0.00    -0.492 A  
HETATM   12  C   UNL     1     -11.582   9.929  70.224  1.00  0.00    -0.319 A  
BRANCH  10  13
HETATM   13  C   UNL     1     -11.277   7.415  70.280  1.00  0.00    -0.268 C  
BRANCH  13  14
HETATM   14  C   UNL     1      -9.771   7.319  70.430  1.00  0.00    -0.172 A  
HETATM   15  C   UNL     1      -9.129   6.840  71.580  1.00  0.00    -0.144 A  
HETATM   16 CL   UNL     1      -9.997   6.187  72.922  1.00  0.00    -0.178 Cl 
HETATM   17  C   UNL     1      -7.737   6.913  71.695  1.00  0.00    -0.095 A  
HETATM   18  C   UNL     1      -6.978   7.534  70.700  1.00  0.00    -0.051 A  
HETATM   19  C   UNL     1      -7.596   8.067  69.563  1.00  0.00    -0.101 A  
HETATM   20  C   UNL     1      -8.977   7.870  69.406  1.00  0.00    -0.145 A  
BRANCH  19  21
HETATM   21  C   UNL     1      -6.828   9.016  68.653  1.00  0.00    -0.063 C  
HETATM   22  O   UNL     1      -6.915  10.342  69.211  1.00  0.00    -0.058 OA 
HETATM   23  C   UNL     1      -6.014  11.269  68.598  1.00  0.00    -0.042 C  
HETATM   24  H   UNL     1      -7.285   7.727  65.655  1.00  0.00     0.000 HD 
HETATM   25  C   UNL     1      -6.376  11.434  67.123  1.00  0.00    -0.109 C  
HETATM   26  O   UNL     1      -7.042   7.724  66.574  1.00  0.00    -0.075 OA 
HETATM   27  C   UNL     1      -6.345  10.065  66.428  1.00  0.00    -0.073 C  
HETATM   28  O   UNL     1      -5.486  12.322  66.439  1.00  0.00    -0.440 OA 
HETATM   29  H   UNL     1      -6.731   9.371  64.633  1.00  0.00     0.000 HD 
HETATM   30  C   UNL     1      -7.223   9.023  67.157  1.00  0.00    -0.083 C  
HETATM   31  H   UNL     1      -5.711  12.425  65.521  1.00  0.00     0.000 HD 
HETATM   32  O   UNL     1      -6.750  10.218  65.062  1.00  0.00    -0.125 OA 
BRANCH  23  33
HETATM   33  C   UNL     1      -6.114  12.594  69.362  1.00  0.00    -0.107 C  
HETATM   34  O   UNL     1      -6.328  12.325  70.755  1.00  0.00    -0.507 OA 
HETATM   35  H   UNL     1      -6.390  13.146  71.229  1.00  0.00     0.000 HD 
ENDBRANCH  23  33
ENDBRANCH  19  21
ENDBRANCH  13  14
ENDBRANCH  10  13
ENDBRANCH   6   7
ENDBRANCH   1   6
TORSDOF 6
ENDMDL
MODEL      161
REMARK 921   NORMALIZED FREE ENERGY PREDICTED BY IDOCK:   -5.51 KCAL/MOL
REMARK 922        TOTAL FREE ENERGY PREDICTED BY IDOCK:   -8.40 KCAL/MOL
REMARK 923 INTER-LIGAND FREE ENERGY PREDICTED BY IDOCK:   -7.13 KCAL/MOL
REMARK 924 INTRA-LIGAND FREE ENERGY PREDICTED BY IDOCK:   -1.27 KCAL/MOL
REMARK 927      BINDING AFFINITY PREDICTED BY RF-SCORE:    0.00 PKD
ROOT
HETATM    1  C   UNL     1      -7.936   7.251  64.379  1.00  0.00    -0.106 C  
HETATM    2  C   UNL     1      -6.773   6.278  64.318  1.00  0.00    -0.038 C  
HETATM    3  O   UNL     1      -8.215   5.496  65.994  1.00  0.00    -0.109 OA 
HETATM    4  C   UNL     1      -7.338   5.040  64.960  1.00  0.00    -0.068 C  
HETATM    5  C   UNL     1      -8.586   6.856  65.703  1.00  0.00    -0.110 C  
ENDROOT
BRANCH   1   6
HETATM    6  O   UNL     1      -7.398   8.569  64.374  1.00  0.00    -0.091 OA 
BRANCH   6   7
HETATM    7  C   UNL     1      -8.246   9.626  64.528  1.00  0.00    -0.151 A  
HETATM    8  C   UNL     1     -10.206  10.973  64.077  1.00  0.00    -0.420 A  
HETATM    9  C   UNL     1      -9.357   9.906  63.738  1.00  0.00    -0.250 A  
HETATM   10  C   UNL     1      -9.955  11.770  65.208  1.00  0.00    -0.284 A  
HETATM   11  C   UNL     1      -7.982  10.424  65.642  1.00  0.00    -0.153 A  
HETATM   12  C   UNL     1      -8.820  11.491  65.976  1.00  0.00    -0.144 A  
BRANCH  10  13
HETATM   13  C   UNL     1     -10.928  12.855  65.640  1.00  0.00    -0.297 C  
BRANCH  13  14
HETATM   14  C   UNL     1     -10.463  13.590  66.882  1.00  0.00    -0.271 A  
HETATM   15  C   UNL     1     -10.977  13.359  68.165  1.00  0.00    -0.255 A  
HETATM   16 CL   UNL     1     -12.126  12.112  68.493  1.00  0.00    -0.248 Cl 
HETATM   17  C   UNL     1     -10.597  14.174  69.237  1.00  0.00    -0.127 A  
HETATM   18  C   UNL     1      -9.762  15.274  69.025  1.00  0.00    -0.234 A  
HETATM   19  C   UNL     1      -9.273  15.560  67.745  1.00  0.00    -0.179 A  
HETATM   20  C   UNL     1      -9.561  14.657  66.709  1.00  0.00    -0.266 A  
BRANCH  19  21
HETATM   21  C   UNL     1      -8.645  16.917  67.454  1.00  0.00    -0.202 C  
HETATM   22  O   UNL     1      -9.698  17.828  67.084  1.00  0.00    -0.272 OA 
HETATM   23  C   UNL     1      -9.272  19.194  67.050  1.00  0.00    -0.296 C  
HETATM   24  H   UNL     1      -5.702  16.136  66.196  1.00  0.00     0.000 HD 
HETATM   25  C   UNL     1      -8.198  19.367  65.976  1.00  0.00    -0.237 C  
HETATM   26  O   UNL     1      -6.406  16.117  66.833  1.00  0.00    -0.301 OA 
HETATM   27  C   UNL     1      -7.028  18.412  66.257  1.00  0.00    -0.243 C  
HETATM   28  O   UNL     1      -7.699  20.708  65.916  1.00  0.00    -0.510 OA 
HETATM   29  H   UNL     1      -5.334  17.941  65.384  1.00  0.00     0.000 HD 
HETATM   30  C   UNL     1      -7.499  16.948  66.416  1.00  0.00    -0.288 C  
HETATM   31  H   UNL     1      -7.031  20.815  65.249  1.00  0.00     0.000 HD 
HETATM   32  O   UNL     1      -6.057  18.532  65.210  1.00  0.00    -0.234 OA 
BRANCH  23  33
HETATM   33  C   UNL     1     -10.503  20.062  66.771  1.00  0.00    -0.394 C  
HETATM   34  O   UNL     1     -10.511  20.446  65.388  1.00  0.00    -0.358 OA 
HETATM   35  H   UNL     1     -11.275  20.984  65.215  1.00  0.00     0.000 HD 
ENDBRANCH  23  33
ENDBRANCH  19  21
ENDBRANCH  13  14
ENDBRANCH  10  13
ENDBRANCH   6   7
ENDBRANCH   1   6
TORSDOF 6
ENDMDL
MODEL      162
REMARK 921   NORMALIZED FREE ENERGY PREDICTED BY IDOCK:   -5.48 KCAL/MOL
REMARK 922        TOTAL FREE ENERGY PREDICTED BY IDOCK:   -8.37 KCAL/MOL
REMARK 923 INTER-LIGAND FREE ENERGY PREDICTED BY IDOCK:   -6.96 KCAL/MOL
REMARK 924 INTRA-LIGAND FREE ENERGY PREDICTED BY IDOCK:   -1.41 KCAL/MOL
REMARK 927      BINDING AFFINITY PREDICTED BY RF-SCORE:    0.00 PKD
ROOT
HETATM    1  C   UNL     1     -10.473  15.450  66.359  1.00  0.00    -0.303 C  
HETATM    2  C   UNL     1     -10.558  16.555  65.322  1.00  0.00    -0.273 C  
HETATM    3  O   UNL     1     -10.622  17.598  67.422  1.00  0.00    -0.356 OA 
HETATM    4  C   UNL     1     -10.122  17.772  66.093  1.00  0.00    -0.304 C  
HETATM    5  C   UNL     1     -10.883  16.196  67.626  1.00  0.00    -0.297 C  
ENDROOT
BRANCH   1   6
HETATM    6  O   UNL     1     -11.384  14.426  65.975  1.00  0.00    -0.324 OA 
BRANCH   6   7
HETATM    7  C   UNL     1     -11.063  13.127  66.241  1.00  0.00    -0.287 A  
HETATM    8  C   UNL     1     -11.175  11.018  67.424  1.00  0.00    -0.355 A  
HETATM    9  C   UNL     1     -11.501  12.382  67.332  1.00  0.00    -0.418 A  
HETATM   10  C   UNL     1     -10.411  10.385  66.429  1.00  0.00    -0.278 A  
HETATM   11  C   UNL     1     -10.290  12.508  65.258  1.00  0.00    -0.310 A  
HETATM   12  C   UNL     1      -9.957  11.154  65.352  1.00  0.00    -0.309 A  
BRANCH  10  13
HETATM   13  C   UNL     1     -10.149   8.888  66.467  1.00  0.00    -0.356 C  
BRANCH  13  14
HETATM   14  C   UNL     1      -8.943   8.531  67.314  1.00  0.00    -0.141 A  
HETATM   15  C   UNL     1      -7.646   8.388  66.804  1.00  0.00    -0.090 A  
HETATM   16 CL   UNL     1      -7.255   8.724  65.156  1.00  0.00    -0.086 Cl 
HETATM   17  C   UNL     1      -6.611   7.921  67.622  1.00  0.00    -0.060 A  
HETATM   18  C   UNL     1      -6.876   7.520  68.934  1.00  0.00    -0.068 A  
HETATM   19  C   UNL     1      -8.172   7.603  69.455  1.00  0.00    -0.129 A  
HETATM   20  C   UNL     1      -9.169   8.194  68.662  1.00  0.00    -0.143 A  
BRANCH  19  21
HETATM   21  C   UNL     1      -8.523   6.873  70.745  1.00  0.00    -0.136 C  
HETATM   22  O   UNL     1      -9.093   5.597  70.397  1.00  0.00    -0.140 OA 
HETATM   23  C   UNL     1      -9.213   4.712  71.516  1.00  0.00    -0.139 C  
HETATM   24  H   UNL     1      -9.371   9.314  72.790  1.00  0.00     0.000 HD 
HETATM   25  C   UNL     1     -10.175   5.312  72.541  1.00  0.00    -0.191 C  
HETATM   26  O   UNL     1      -8.816   8.852  72.173  1.00  0.00    -0.381 OA 
HETATM   27  C   UNL     1      -9.677   6.702  72.964  1.00  0.00    -0.159 C  
HETATM   28  O   UNL     1     -10.310   4.493  73.707  1.00  0.00    -0.166 OA 
HETATM   29  H   UNL     1     -10.310   8.146  74.134  1.00  0.00     0.000 HD 
HETATM   30  C   UNL     1      -9.428   7.625  71.749  1.00  0.00    -0.145 C  
HETATM   31  H   UNL     1     -10.908   4.866  74.344  1.00  0.00     0.000 HD 
HETATM   32  O   UNL     1     -10.618   7.286  73.873  1.00  0.00    -0.344 OA 
BRANCH  23  33
HETATM   33  C   UNL     1      -9.708   3.359  70.993  1.00  0.00    -0.146 C  
HETATM   34  O   UNL     1      -9.721   2.410  72.069  1.00  0.00    -0.119 OA 
HETATM   35  H   UNL     1     -10.027   1.571  71.745  1.00  0.00     0.000 HD 
ENDBRANCH  23  33
ENDBRANCH  19  21
ENDBRANCH  13  14
ENDBRANCH  10  13
ENDBRANCH   6   7
ENDBRANCH   1   6
TORSDOF 6
ENDMDL
MODEL      163
REMARK 921   NORMALIZED FREE ENERGY PREDICTED BY IDOCK:   -5.48 KCAL/MOL
REMARK 922        TOTAL FREE ENERGY PREDICTED BY IDOCK:   -8.37 KCAL/MOL
REMARK 923 INTER-LIGAND FREE ENERGY PREDICTED BY IDOCK:   -8.07 KCAL/MOL
REMARK 924 INTRA-LIGAND FREE ENERGY PREDICTED BY IDOCK:   -0.30 KCAL/MOL
REMARK 927      BINDING AFFINITY PREDICTED BY RF-SCORE:    0.00 PKD
ROOT
HETATM    1  C   UNL     1     -10.392   5.281  70.578  1.00  0.00    -0.266 C  
HETATM    2  C   UNL     1      -8.962   5.775  70.450  1.00  0.00    -0.154 C  
HETATM    3  O   UNL     1      -9.482   5.806  72.738  1.00  0.00    -0.146 OA 
HETATM    4  C   UNL     1      -8.406   5.549  71.831  1.00  0.00    -0.119 C  
HETATM    5  C   UNL     1     -10.721   5.685  72.013  1.00  0.00    -0.235 C  
ENDROOT
BRANCH   1   6
HETATM    6  O   UNL     1     -11.172   5.958  69.598  1.00  0.00    -0.395 OA 
BRANCH   6   7
HETATM    7  C   UNL     1     -10.631   7.031  68.954  1.00  0.00    -0.215 A  
HETATM    8  C   UNL     1      -9.769   9.284  68.747  1.00  0.00    -0.162 A  
HETATM    9  C   UNL     1     -10.438   8.299  69.494  1.00  0.00    -0.228 A  
HETATM   10  C   UNL     1      -9.288   9.013  67.454  1.00  0.00    -0.167 A  
HETATM   11  C   UNL     1     -10.170   6.761  67.664  1.00  0.00    -0.225 A  
HETATM   12  C   UNL     1      -9.514   7.742  66.916  1.00  0.00    -0.238 A  
BRANCH  10  13
HETATM   13  C   UNL     1      -8.470  10.039  66.686  1.00  0.00    -0.126 C  
BRANCH  13  14
HETATM   14  C   UNL     1      -9.325  11.155  66.117  1.00  0.00    -0.227 A  
HETATM   15  C   UNL     1      -9.816  11.171  64.805  1.00  0.00    -0.277 A  
HETATM   16 CL   UNL     1      -9.600   9.846  63.718  1.00  0.00    -0.205 Cl 
HETATM   17  C   UNL     1     -10.480  12.299  64.312  1.00  0.00    -0.375 A  
HETATM   18  C   UNL     1     -10.590  13.451  65.095  1.00  0.00    -0.353 A  
HETATM   19  C   UNL     1     -10.064  13.483  66.391  1.00  0.00    -0.294 A  
HETATM   20  C   UNL     1      -9.517  12.299  66.914  1.00  0.00    -0.217 A  
BRANCH  19  21
HETATM   21  C   UNL     1      -9.892  14.813  67.112  1.00  0.00    -0.232 C  
HETATM   22  O   UNL     1     -10.625  14.751  68.351  1.00  0.00    -0.233 OA 
HETATM   23  C   UNL     1     -10.323  15.832  69.238  1.00  0.00    -0.245 C  
HETATM   24  H   UNL     1      -9.685  16.989  64.647  1.00  0.00     0.000 HD 
HETATM   25  C   UNL     1     -10.741  17.153  68.594  1.00  0.00    -0.306 C  
HETATM   26  O   UNL     1      -9.460  16.206  65.134  1.00  0.00    -0.191 OA 
HETATM   27  C   UNL     1     -10.036  17.313  67.238  1.00  0.00    -0.300 C  
HETATM   28  O   UNL     1     -10.430  18.283  69.415  1.00  0.00    -0.389 OA 
HETATM   29  H   UNL     1     -10.049  18.618  65.772  1.00  0.00     0.000 HD 
HETATM   30  C   UNL     1     -10.260  16.090  66.319  1.00  0.00    -0.316 C  
HETATM   31  H   UNL     1     -10.690  19.105  69.014  1.00  0.00     0.000 HD 
HETATM   32  O   UNL     1     -10.485  18.520  66.610  1.00  0.00    -0.385 OA 
BRANCH  23  33
HETATM   33  C   UNL     1     -11.063  15.580  70.555  1.00  0.00    -0.345 C  
HETATM   34  O   UNL     1     -11.415  14.191  70.644  1.00  0.00    -0.503 OA 
HETATM   35  H   UNL     1     -11.874  14.034  71.461  1.00  0.00     0.000 HD 
ENDBRANCH  23  33
ENDBRANCH  19  21
ENDBRANCH  13  14
ENDBRANCH  10  13
ENDBRANCH   6   7
ENDBRANCH   1   6
TORSDOF 6
ENDMDL
MODEL      164
REMARK 921   NORMALIZED FREE ENERGY PREDICTED BY IDOCK:   -5.46 KCAL/MOL
REMARK 922        TOTAL FREE ENERGY PREDICTED BY IDOCK:   -8.33 KCAL/MOL
REMARK 923 INTER-LIGAND FREE ENERGY PREDICTED BY IDOCK:   -7.35 KCAL/MOL
REMARK 924 INTRA-LIGAND FREE ENERGY PREDICTED BY IDOCK:   -0.98 KCAL/MOL
REMARK 927      BINDING AFFINITY PREDICTED BY RF-SCORE:    0.00 PKD
ROOT
HETATM    1  C   UNL     1     -11.687   7.474  72.318  1.00  0.00    -0.304 C  
HETATM    2  C   UNL     1     -11.447   8.915  71.905  1.00  0.00    -0.442 C  
HETATM    3  O   UNL     1     -13.646   8.393  71.276  1.00  0.00    -0.248 OA 
HETATM    4  C   UNL     1     -12.843   9.464  71.781  1.00  0.00    -0.399 C  
HETATM    5  C   UNL     1     -12.968   7.152  71.552  1.00  0.00    -0.383 C  
ENDROOT
BRANCH   1   6
HETATM    6  O   UNL     1     -10.561   6.711  71.900  1.00  0.00    -0.208 OA 
BRANCH   6   7
HETATM    7  C   UNL     1      -9.886   7.096  70.778  1.00  0.00    -0.178 A  
HETATM    8  C   UNL     1      -9.511   7.352  68.401  1.00  0.00    -0.143 A  
HETATM    9  C   UNL     1     -10.242   6.799  69.466  1.00  0.00    -0.202 A  
HETATM   10  C   UNL     1      -8.419   8.206  68.634  1.00  0.00    -0.127 A  
HETATM   11  C   UNL     1      -8.793   7.930  71.017  1.00  0.00    -0.149 A  
HETATM   12  C   UNL     1      -8.059   8.473  69.959  1.00  0.00    -0.111 A  
BRANCH  10  13
HETATM   13  C   UNL     1      -7.696   8.892  67.487  1.00  0.00    -0.100 C  
BRANCH  13  14
HETATM   14  C   UNL     1      -8.635   9.685  66.599  1.00  0.00    -0.137 A  
HETATM   15  C   UNL     1      -8.953   9.326  65.282  1.00  0.00    -0.213 A  
HETATM   16 CL   UNL     1      -8.397   7.859  64.561  1.00  0.00    -0.078 Cl 
HETATM   17  C   UNL     1      -9.717  10.181  64.481  1.00  0.00    -0.361 A  
HETATM   18  C   UNL     1     -10.104  11.436  64.958  1.00  0.00    -0.323 A  
HETATM   19  C   UNL     1      -9.757  11.843  66.251  1.00  0.00    -0.247 A  
HETATM   20  C   UNL     1      -9.103  10.921  67.083  1.00  0.00    -0.152 A  
BRANCH  19  21
HETATM   21  C   UNL     1      -9.888  13.307  66.650  1.00  0.00    -0.276 C  
HETATM   22  O   UNL     1      -8.586  13.784  67.041  1.00  0.00    -0.214 OA 
HETATM   23  C   UNL     1      -8.527  15.208  67.177  1.00  0.00    -0.212 C  
HETATM   24  H   UNL     1     -12.908  13.469  67.959  1.00  0.00     0.000 HD 
HETATM   25  C   UNL     1      -9.467  15.653  68.297  1.00  0.00    -0.200 C  
HETATM   26  O   UNL     1     -12.259  13.261  67.297  1.00  0.00    -0.321 OA 
HETATM   27  C   UNL     1     -10.893  15.168  67.997  1.00  0.00    -0.284 C  
HETATM   28  O   UNL     1      -9.486  17.075  68.460  1.00  0.00    -0.252 OA 
HETATM   29  H   UNL     1     -12.637  15.230  68.897  1.00  0.00     0.000 HD 
HETATM   30  C   UNL     1     -10.945  13.646  67.728  1.00  0.00    -0.259 C  
HETATM   31  H   UNL     1     -10.070  17.352  69.156  1.00  0.00     0.000 HD 
HETATM   32  O   UNL     1     -11.755  15.530  69.082  1.00  0.00    -0.328 OA 
BRANCH  23  33
HETATM   33  C   UNL     1      -7.072  15.591  67.467  1.00  0.00    -0.191 C  
HETATM   34  O   UNL     1      -6.237  14.433  67.319  1.00  0.00    -0.310 OA 
HETATM   35  H   UNL     1      -5.335  14.671  67.499  1.00  0.00     0.000 HD 
ENDBRANCH  23  33
ENDBRANCH  19  21
ENDBRANCH  13  14
ENDBRANCH  10  13
ENDBRANCH   6   7
ENDBRANCH   1   6
TORSDOF 6
ENDMDL
MODEL      165
REMARK 921   NORMALIZED FREE ENERGY PREDICTED BY IDOCK:   -5.43 KCAL/MOL
REMARK 922        TOTAL FREE ENERGY PREDICTED BY IDOCK:   -8.29 KCAL/MOL
REMARK 923 INTER-LIGAND FREE ENERGY PREDICTED BY IDOCK:   -7.56 KCAL/MOL
REMARK 924 INTRA-LIGAND FREE ENERGY PREDICTED BY IDOCK:   -0.74 KCAL/MOL
REMARK 927      BINDING AFFINITY PREDICTED BY RF-SCORE:    0.00 PKD
ROOT
HETATM    1  C   UNL     1     -11.227  12.663  64.254  1.00  0.00    -0.362 C  
HETATM    2  C   UNL     1     -10.603  13.971  64.706  1.00  0.00    -0.441 C  
HETATM    3  O   UNL     1     -12.640  14.518  63.679  1.00  0.00    -0.798 OA 
HETATM    4  C   UNL     1     -11.783  14.904  64.758  1.00  0.00    -0.402 C  
HETATM    5  C   UNL     1     -12.319  13.163  63.312  1.00  0.00    -0.283 C  
ENDROOT
BRANCH   1   6
HETATM    6  O   UNL     1     -10.213  11.902  63.606  1.00  0.00    -0.363 OA 
BRANCH   6   7
HETATM    7  C   UNL     1      -9.711  10.803  64.238  1.00  0.00    -0.302 A  
HETATM    8  C   UNL     1      -9.604   9.088  65.943  1.00  0.00    -0.317 A  
HETATM    9  C   UNL     1     -10.141  10.293  65.459  1.00  0.00    -0.351 A  
HETATM   10  C   UNL     1      -8.633   8.380  65.213  1.00  0.00    -0.177 A  
HETATM   11  C   UNL     1      -8.735  10.114  63.517  1.00  0.00    -0.221 A  
HETATM   12  C   UNL     1      -8.193   8.920  64.000  1.00  0.00    -0.168 A  
BRANCH  10  13
HETATM   13  C   UNL     1      -8.129   7.024  65.678  1.00  0.00    -0.129 C  
BRANCH  13  14
HETATM   14  C   UNL     1      -7.421   7.095  67.017  1.00  0.00    -0.097 A  
HETATM   15  C   UNL     1      -6.167   6.521  67.269  1.00  0.00    -0.036 A  
HETATM   16 CL   UNL     1      -5.229   5.765  66.032  1.00  0.00    -0.009 Cl 
HETATM   17  C   UNL     1      -5.642   6.509  68.565  1.00  0.00    -0.016 A  
HETATM   18  C   UNL     1      -6.395   6.999  69.636  1.00  0.00    -0.035 A  
HETATM   19  C   UNL     1      -7.672   7.532  69.422  1.00  0.00    -0.111 A  
HETATM   20  C   UNL     1      -8.127   7.653  68.099  1.00  0.00    -0.124 A  
BRANCH  19  21
HETATM   21  C   UNL     1      -8.610   7.758  70.601  1.00  0.00    -0.127 C  
HETATM   22  O   UNL     1      -9.120   6.477  71.020  1.00  0.00    -0.149 OA 
HETATM   23  C   UNL     1      -9.795   6.528  72.281  1.00  0.00    -0.156 C  
HETATM   24  H   UNL     1      -9.960  10.691  69.942  1.00  0.00     0.000 HD 
HETATM   25  C   UNL     1     -11.024   7.429  72.166  1.00  0.00    -0.245 C  
HETATM   26  O   UNL     1      -9.252  10.070  70.070  1.00  0.00    -0.208 OA 
HETATM   27  C   UNL     1     -10.599   8.826  71.691  1.00  0.00    -0.331 C  
HETATM   28  O   UNL     1     -11.726   7.554  73.408  1.00  0.00    -0.574 OA 
HETATM   29  H   UNL     1     -11.499  10.507  71.227  1.00  0.00     0.000 HD 
HETATM   30  C   UNL     1      -9.763   8.768  70.392  1.00  0.00    -0.180 C  
HETATM   31  H   UNL     1     -12.490   8.114  73.336  1.00  0.00     0.000 HD 
HETATM   32  O   UNL     1     -11.762   9.644  71.521  1.00  0.00    -0.371 OA 
BRANCH  23  33
HETATM   33  C   UNL     1     -10.172   5.095  72.669  1.00  0.00    -0.186 C  
HETATM   34  O   UNL     1     -10.886   5.111  73.914  1.00  0.00    -0.289 OA 
HETATM   35  H   UNL     1     -11.119   4.222  74.155  1.00  0.00     0.000 HD 
ENDBRANCH  23  33
ENDBRANCH  19  21
ENDBRANCH  13  14
ENDBRANCH  10  13
ENDBRANCH   6   7
ENDBRANCH   1   6
TORSDOF 6
ENDMDL
MODEL      166
REMARK 921   NORMALIZED FREE ENERGY PREDICTED BY IDOCK:   -5.42 KCAL/MOL
REMARK 922        TOTAL FREE ENERGY PREDICTED BY IDOCK:   -8.29 KCAL/MOL
REMARK 923 INTER-LIGAND FREE ENERGY PREDICTED BY IDOCK:   -6.88 KCAL/MOL
REMARK 924 INTRA-LIGAND FREE ENERGY PREDICTED BY IDOCK:   -1.41 KCAL/MOL
REMARK 927      BINDING AFFINITY PREDICTED BY RF-SCORE:    0.00 PKD
ROOT
HETATM    1  C   UNL     1      -7.067  17.325  68.150  1.00  0.00    -0.190 C  
HETATM    2  C   UNL     1      -7.407  17.845  66.765  1.00  0.00    -0.234 C  
HETATM    3  O   UNL     1      -5.733  19.249  67.619  1.00  0.00    -0.186 OA 
HETATM    4  C   UNL     1      -6.187  18.650  66.402  1.00  0.00    -0.176 C  
HETATM    5  C   UNL     1      -6.269  18.494  68.722  1.00  0.00    -0.218 C  
ENDROOT
BRANCH   1   6
HETATM    6  O   UNL     1      -8.293  17.078  68.831  1.00  0.00    -0.252 OA 
BRANCH   6   7
HETATM    7  C   UNL     1      -9.022  15.976  68.494  1.00  0.00    -0.200 A  
HETATM    8  C   UNL     1      -9.495  13.610  68.302  1.00  0.00    -0.213 A  
HETATM    9  C   UNL     1      -8.598  14.654  68.584  1.00  0.00    -0.172 A  
HETATM   10  C   UNL     1     -10.823  13.875  67.926  1.00  0.00    -0.256 A  
HETATM   11  C   UNL     1     -10.335  16.246  68.105  1.00  0.00    -0.277 A  
HETATM   12  C   UNL     1     -11.226  15.210  67.815  1.00  0.00    -0.327 A  
BRANCH  10  13
HETATM   13  C   UNL     1     -11.826  12.751  67.726  1.00  0.00    -0.387 C  
BRANCH  13  14
HETATM   14  C   UNL     1     -11.936  11.848  68.940  1.00  0.00    -0.313 A  
HETATM   15  C   UNL     1     -12.403  12.275  70.191  1.00  0.00    -0.138 A  
HETATM   16 CL   UNL     1     -13.024  13.865  70.455  1.00  0.00    -0.240 Cl 
HETATM   17  C   UNL     1     -12.344  11.421  71.297  1.00  0.00    -0.344 A  
HETATM   18  C   UNL     1     -11.749  10.162  71.185  1.00  0.00    -0.453 A  
HETATM   19  C   UNL     1     -11.228   9.728  69.961  1.00  0.00    -0.297 A  
HETATM   20  C   UNL     1     -11.412  10.546  68.835  1.00  0.00    -0.292 A  
BRANCH  19  21
HETATM   21  C   UNL     1     -10.302   8.520  69.912  1.00  0.00    -0.210 C  
HETATM   22  O   UNL     1      -9.274   8.781  68.936  1.00  0.00    -0.141 OA 
HETATM   23  C   UNL     1      -8.196   7.841  68.992  1.00  0.00    -0.126 C  
HETATM   24  H   UNL     1     -12.322   5.992  70.533  1.00  0.00     0.000 HD 
HETATM   25  C   UNL     1      -8.717   6.445  68.657  1.00  0.00    -0.122 C  
HETATM   26  O   UNL     1     -11.917   6.837  70.687  1.00  0.00    -0.386 OA 
HETATM   27  C   UNL     1      -9.850   6.070  69.625  1.00  0.00    -0.163 C  
HETATM   28  O   UNL     1      -7.693   5.448  68.733  1.00  0.00    -0.081 OA 
HETATM   29  H   UNL     1     -11.079   4.558  69.861  1.00  0.00     0.000 HD 
HETATM   30  C   UNL     1     -10.962   7.143  69.660  1.00  0.00    -0.212 C  
HETATM   31  H   UNL     1      -8.017   4.579  68.525  1.00  0.00     0.000 HD 
HETATM   32  O   UNL     1     -10.379   4.789  69.263  1.00  0.00    -0.154 OA 
BRANCH  23  33
HETATM   33  C   UNL     1      -7.121   8.302  68.002  1.00  0.00    -0.086 C  
HETATM   34  O   UNL     1      -5.887   7.629  68.292  1.00  0.00    -0.029 OA 
HETATM   35  H   UNL     1      -5.221   7.915  67.678  1.00  0.00     0.000 HD 
ENDBRANCH  23  33
ENDBRANCH  19  21
ENDBRANCH  13  14
ENDBRANCH  10  13
ENDBRANCH   6   7
ENDBRANCH   1   6
TORSDOF 6
ENDMDL
MODEL      167
REMARK 921   NORMALIZED FREE ENERGY PREDICTED BY IDOCK:   -5.42 KCAL/MOL
REMARK 922        TOTAL FREE ENERGY PREDICTED BY IDOCK:   -8.28 KCAL/MOL
REMARK 923 INTER-LIGAND FREE ENERGY PREDICTED BY IDOCK:   -8.01 KCAL/MOL
REMARK 924 INTRA-LIGAND FREE ENERGY PREDICTED BY IDOCK:   -0.27 KCAL/MOL
REMARK 927      BINDING AFFINITY PREDICTED BY RF-SCORE:    0.00 PKD
ROOT
HETATM    1  C   UNL     1     -12.885  13.103  71.663  1.00  0.00    -0.291 C  
HETATM    2  C   UNL     1     -12.409  14.170  70.693  1.00  0.00    -0.435 C  
HETATM    3  O   UNL     1     -13.848  15.234  72.210  1.00  0.00    -0.439 OA 
HETATM    4  C   UNL     1     -12.652  15.446  71.454  1.00  0.00    -0.405 C  
HETATM    5  C   UNL     1     -14.054  13.815  72.341  1.00  0.00    -0.492 C  
ENDROOT
BRANCH   1   6
HETATM    6  O   UNL     1     -13.270  11.965  70.900  1.00  0.00     0.029 OA 
BRANCH   6   7
HETATM    7  C   UNL     1     -12.844  10.732  71.297  1.00  0.00    -0.438 A  
HETATM    8  C   UNL     1     -13.081   8.474  72.135  1.00  0.00    -0.393 A  
HETATM    9  C   UNL     1     -13.632   9.739  71.871  1.00  0.00    -0.421 A  
HETATM   10  C   UNL     1     -11.740   8.187  71.828  1.00  0.00    -0.343 A  
HETATM   11  C   UNL     1     -11.507  10.459  71.005  1.00  0.00    -0.304 A  
HETATM   12  C   UNL     1     -10.955   9.204  71.275  1.00  0.00    -0.400 A  
BRANCH  10  13
HETATM   13  C   UNL     1     -11.170   6.790  72.010  1.00  0.00    -0.297 C  
BRANCH  13  14
HETATM   14  C   UNL     1     -10.544   6.248  70.739  1.00  0.00    -0.297 A  
HETATM   15  C   UNL     1     -10.071   4.937  70.598  1.00  0.00    -0.236 A  
HETATM   16 CL   UNL     1     -10.263   3.745  71.833  1.00  0.00    -0.186 Cl 
HETATM   17  C   UNL     1      -9.381   4.553  69.443  1.00  0.00    -0.217 A  
HETATM   18  C   UNL     1      -9.087   5.493  68.452  1.00  0.00    -0.117 A  
HETATM   19  C   UNL     1      -9.502   6.823  68.588  1.00  0.00    -0.132 A  
HETATM   20  C   UNL     1     -10.304   7.158  69.691  1.00  0.00    -0.224 A  
BRANCH  19  21
HETATM   21  C   UNL     1      -8.912   7.901  67.689  1.00  0.00    -0.131 C  
HETATM   22  O   UNL     1      -9.378   9.181  68.158  1.00  0.00    -0.138 OA 
HETATM   23  C   UNL     1      -8.682  10.283  67.567  1.00  0.00    -0.125 C  
HETATM   24  H   UNL     1      -8.749   6.428  64.746  1.00  0.00     0.000 HD 
HETATM   25  C   UNL     1      -8.932  10.296  66.059  1.00  0.00    -0.152 C  
HETATM   26  O   UNL     1      -8.601   6.520  65.680  1.00  0.00    -0.150 OA 
HETATM   27  C   UNL     1      -8.496   8.955  65.452  1.00  0.00    -0.160 C  
HETATM   28  O   UNL     1      -8.230  11.355  65.399  1.00  0.00    -0.363 OA 
HETATM   29  H   UNL     1      -8.527   8.119  63.676  1.00  0.00     0.000 HD 
HETATM   30  C   UNL     1      -9.153   7.752  66.168  1.00  0.00    -0.153 C  
HETATM   31  H   UNL     1      -8.386  11.362  64.462  1.00  0.00     0.000 HD 
HETATM   32  O   UNL     1      -8.796   8.949  64.051  1.00  0.00    -0.109 OA 
BRANCH  23  33
HETATM   33  C   UNL     1      -9.179  11.567  68.239  1.00  0.00    -0.186 C  
HETATM   34  O   UNL     1      -8.058  12.297  68.759  1.00  0.00    -0.306 OA 
HETATM   35  H   UNL     1      -8.366  13.093  69.176  1.00  0.00     0.000 HD 
ENDBRANCH  23  33
ENDBRANCH  19  21
ENDBRANCH  13  14
ENDBRANCH  10  13
ENDBRANCH   6   7
ENDBRANCH   1   6
TORSDOF 6
ENDMDL
MODEL      168
REMARK 921   NORMALIZED FREE ENERGY PREDICTED BY IDOCK:   -5.40 KCAL/MOL
REMARK 922        TOTAL FREE ENERGY PREDICTED BY IDOCK:   -8.25 KCAL/MOL
REMARK 923 INTER-LIGAND FREE ENERGY PREDICTED BY IDOCK:   -6.99 KCAL/MOL
REMARK 924 INTRA-LIGAND FREE ENERGY PREDICTED BY IDOCK:   -1.26 KCAL/MOL
REMARK 927      BINDING AFFINITY PREDICTED BY RF-SCORE:    0.00 PKD
ROOT
HETATM    1  C   UNL     1      -8.334   3.751  64.564  1.00  0.00    -0.097 C  
HETATM    2  C   UNL     1      -8.056   2.376  63.985  1.00  0.00    -0.081 C  
HETATM    3  O   UNL     1      -9.273   2.039  65.962  1.00  0.00    -0.081 OA 
HETATM    4  C   UNL     1      -9.107   1.519  64.640  1.00  0.00    -0.122 C  
HETATM    5  C   UNL     1      -8.786   3.394  65.978  1.00  0.00    -0.136 C  
ENDROOT
BRANCH   1   6
HETATM    6  O   UNL     1      -7.119   4.492  64.520  1.00  0.00    -0.049 OA 
BRANCH   6   7
HETATM    7  C   UNL     1      -7.062   5.698  65.153  1.00  0.00    -0.064 A  
HETATM    8  C   UNL     1      -7.732   7.971  65.647  1.00  0.00    -0.094 A  
HETATM    9  C   UNL     1      -7.818   6.824  64.841  1.00  0.00    -0.119 A  
HETATM   10  C   UNL     1      -6.890   8.007  66.773  1.00  0.00    -0.072 A  
HETATM   11  C   UNL     1      -6.212   5.733  66.260  1.00  0.00    -0.034 A  
HETATM   12  C   UNL     1      -6.117   6.877  67.057  1.00  0.00    -0.036 A  
BRANCH  10  13
HETATM   13  C   UNL     1      -6.875   9.204  67.709  1.00  0.00    -0.076 C  
BRANCH  13  14
HETATM   14  C   UNL     1      -8.237   9.860  67.834  1.00  0.00    -0.113 A  
HETATM   15  C   UNL     1      -9.347   9.248  68.431  1.00  0.00    -0.138 A  
HETATM   16 CL   UNL     1      -9.252   7.707  69.205  1.00  0.00    -0.142 Cl 
HETATM   17  C   UNL     1     -10.604   9.861  68.384  1.00  0.00    -0.258 A  
HETATM   18  C   UNL     1     -10.781  11.052  67.675  1.00  0.00    -0.281 A  
HETATM   19  C   UNL     1      -9.701  11.661  67.026  1.00  0.00    -0.201 A  
HETATM   20  C   UNL     1      -8.425  11.099  67.193  1.00  0.00    -0.137 A  
BRANCH  19  21
HETATM   21  C   UNL     1      -9.949  12.758  65.998  1.00  0.00    -0.271 C  
HETATM   22  O   UNL     1      -9.801  14.031  66.657  1.00  0.00    -0.266 OA 
HETATM   23  C   UNL     1      -9.743  15.131  65.743  1.00  0.00    -0.344 C  
HETATM   24  H   UNL     1     -12.203  11.426  63.998  1.00  0.00     0.000 HD 
HETATM   25  C   UNL     1     -11.061  15.229  64.976  1.00  0.00    -0.426 C  
HETATM   26  O   UNL     1     -11.385  11.466  64.479  1.00  0.00    -0.242 OA 
HETATM   27  C   UNL     1     -11.338  13.902  64.253  1.00  0.00    -0.294 C  
HETATM   28  O   UNL     1     -11.056  16.289  64.015  1.00  0.00    -1.204 OA 
HETATM   29  H   UNL     1     -12.777  13.158  63.146  1.00  0.00     0.000 HD 
HETATM   30  C   UNL     1     -11.281  12.694  65.215  1.00  0.00    -0.300 C  
HETATM   31  H   UNL     1     -11.875  16.350  63.538  1.00  0.00     0.000 HD 
HETATM   32  O   UNL     1     -12.607  13.978  63.593  1.00  0.00    -0.818 OA 
BRANCH  23  33
HETATM   33  C   UNL     1      -9.460  16.400  66.555  1.00  0.00    -0.272 C  
HETATM   34  O   UNL     1     -10.673  17.152  66.701  1.00  0.00    -0.221 OA 
HETATM   35  H   UNL     1     -10.498  17.938  67.205  1.00  0.00     0.000 HD 
ENDBRANCH  23  33
ENDBRANCH  19  21
ENDBRANCH  13  14
ENDBRANCH  10  13
ENDBRANCH   6   7
ENDBRANCH   1   6
TORSDOF 6
ENDMDL
MODEL      169
REMARK 921   NORMALIZED FREE ENERGY PREDICTED BY IDOCK:   -5.34 KCAL/MOL
REMARK 922        TOTAL FREE ENERGY PREDICTED BY IDOCK:   -8.18 KCAL/MOL
REMARK 923 INTER-LIGAND FREE ENERGY PREDICTED BY IDOCK:   -8.22 KCAL/MOL
REMARK 924 INTRA-LIGAND FREE ENERGY PREDICTED BY IDOCK:    0.03 KCAL/MOL
REMARK 927      BINDING AFFINITY PREDICTED BY RF-SCORE:    0.00 PKD
ROOT
HETATM    1  C   UNL     1      -7.096   3.786  64.893  1.00  0.00    -0.065 C  
HETATM    2  C   UNL     1      -6.290   4.442  65.998  1.00  0.00    -0.033 C  
HETATM    3  O   UNL     1      -7.192   2.474  66.902  1.00  0.00    -0.055 OA 
HETATM    4  C   UNL     1      -6.024   3.300  66.942  1.00  0.00    -0.024 C  
HETATM    5  C   UNL     1      -7.901   2.755  65.681  1.00  0.00    -0.081 C  
ENDROOT
BRANCH   1   6
HETATM    6  O   UNL     1      -7.895   4.794  64.283  1.00  0.00    -0.079 OA 
BRANCH   6   7
HETATM    7  C   UNL     1      -8.646   5.608  65.078  1.00  0.00    -0.108 A  
HETATM    8  C   UNL     1     -10.279   6.141  66.784  1.00  0.00    -0.264 A  
HETATM    9  C   UNL     1      -9.658   5.202  65.943  1.00  0.00    -0.163 A  
HETATM   10  C   UNL     1      -9.897   7.493  66.771  1.00  0.00    -0.295 A  
HETATM   11  C   UNL     1      -8.273   6.953  65.049  1.00  0.00    -0.096 A  
HETATM   12  C   UNL     1      -8.896   7.890  65.878  1.00  0.00    -0.183 A  
BRANCH  10  13
HETATM   13  C   UNL     1     -10.488   8.490  67.754  1.00  0.00    -0.287 C  
BRANCH  13  14
HETATM   14  C   UNL     1      -9.708   9.790  67.802  1.00  0.00    -0.167 A  
HETATM   15  C   UNL     1      -9.000  10.235  68.926  1.00  0.00    -0.164 A  
HETATM   16 CL   UNL     1      -8.836   9.281  70.356  1.00  0.00    -0.245 Cl 
HETATM   17  C   UNL     1      -8.422  11.509  68.940  1.00  0.00     0.011 A  
HETATM   18  C   UNL     1      -8.611  12.381  67.864  1.00  0.00    -0.171 A  
HETATM   19  C   UNL     1      -9.357  11.983  66.749  1.00  0.00    -0.206 A  
HETATM   20  C   UNL     1      -9.819  10.657  66.699  1.00  0.00    -0.245 A  
BRANCH  19  21
HETATM   21  C   UNL     1      -9.835  13.021  65.741  1.00  0.00    -0.209 C  
HETATM   22  O   UNL     1     -10.016  14.270  66.436  1.00  0.00    -0.272 OA 
HETATM   23  C   UNL     1     -10.201  15.381  65.553  1.00  0.00    -0.382 C  
HETATM   24  H   UNL     1     -11.649  11.252  63.634  1.00  0.00     0.000 HD 
HETATM   25  C   UNL     1     -11.483  15.184  64.746  1.00  0.00    -0.383 C  
HETATM   26  O   UNL     1     -10.877  11.472  64.143  1.00  0.00    -0.331 OA 
HETATM   27  C   UNL     1     -11.413  13.854  63.981  1.00  0.00    -0.158 C  
HETATM   28  O   UNL     1     -11.708  16.246  63.812  1.00  0.00    -1.511 OA 
HETATM   29  H   UNL     1     -12.601  12.822  62.807  1.00  0.00     0.000 HD 
HETATM   30  C   UNL     1     -11.092  12.664  64.913  1.00  0.00    -0.296 C  
HETATM   31  H   UNL     1     -12.505  16.123  63.309  1.00  0.00     0.000 HD 
HETATM   32  O   UNL     1     -12.645  13.645  63.280  1.00  0.00    -0.816 OA 
BRANCH  23  33
HETATM   33  C   UNL     1     -10.253  16.653  66.406  1.00  0.00    -0.315 C  
HETATM   34  O   UNL     1     -10.291  17.801  65.545  1.00  0.00    -0.623 OA 
HETATM   35  H   UNL     1     -10.323  18.590  66.073  1.00  0.00     0.000 HD 
ENDBRANCH  23  33
ENDBRANCH  19  21
ENDBRANCH  13  14
ENDBRANCH  10  13
ENDBRANCH   6   7
ENDBRANCH   1   6
TORSDOF 6
ENDMDL
MODEL      170
REMARK 921   NORMALIZED FREE ENERGY PREDICTED BY IDOCK:   -5.32 KCAL/MOL
REMARK 922        TOTAL FREE ENERGY PREDICTED BY IDOCK:   -8.15 KCAL/MOL
REMARK 923 INTER-LIGAND FREE ENERGY PREDICTED BY IDOCK:   -7.13 KCAL/MOL
REMARK 924 INTRA-LIGAND FREE ENERGY PREDICTED BY IDOCK:   -1.03 KCAL/MOL
REMARK 927      BINDING AFFINITY PREDICTED BY RF-SCORE:    0.00 PKD
ROOT
HETATM    1  C   UNL     1      -9.110  17.617  68.220  1.00  0.00    -0.276 C  
HETATM    2  C   UNL     1     -10.015  18.823  68.398  1.00  0.00    -0.441 C  
HETATM    3  O   UNL     1      -7.836  19.651  68.130  1.00  0.00    -0.298 OA 
HETATM    4  C   UNL     1      -9.199  19.942  67.809  1.00  0.00    -0.338 C  
HETATM    5  C   UNL     1      -7.732  18.244  68.421  1.00  0.00    -0.299 C  
ENDROOT
BRANCH   1   6
HETATM    6  O   UNL     1      -9.458  16.664  69.219  1.00  0.00    -0.231 OA 
BRANCH   6   7
HETATM    7  C   UNL     1      -9.984  15.467  68.831  1.00  0.00    -0.218 A  
HETATM    8  C   UNL     1      -9.931  13.164  68.089  1.00  0.00    -0.234 A  
HETATM    9  C   UNL     1      -9.268  14.375  68.353  1.00  0.00    -0.195 A  
HETATM   10  C   UNL     1     -11.314  13.032  68.300  1.00  0.00    -0.323 A  
HETATM   11  C   UNL     1     -11.360  15.348  69.027  1.00  0.00    -0.324 A  
HETATM   12  C   UNL     1     -12.023  14.148  68.756  1.00  0.00    -0.367 A  
BRANCH  10  13
HETATM   13  C   UNL     1     -12.016  11.696  68.121  1.00  0.00    -0.214 C  
BRANCH  13  14
HETATM   14  C   UNL     1     -11.437  10.613  69.011  1.00  0.00    -0.342 A  
HETATM   15  C   UNL     1     -11.585  10.585  70.404  1.00  0.00    -0.342 A  
HETATM   16 CL   UNL     1     -12.556  11.730  71.257  1.00  0.00    -0.449 Cl 
HETATM   17  C   UNL     1     -10.905   9.630  71.168  1.00  0.00    -0.404 A  
HETATM   18  C   UNL     1     -10.012   8.745  70.560  1.00  0.00    -0.227 A  
HETATM   19  C   UNL     1      -9.805   8.783  69.176  1.00  0.00    -0.181 A  
HETATM   20  C   UNL     1     -10.592   9.660  68.412  1.00  0.00    -0.264 A  
BRANCH  19  21
HETATM   21  C   UNL     1      -8.613   8.059  68.563  1.00  0.00    -0.128 C  
HETATM   22  O   UNL     1      -9.112   6.968  67.766  1.00  0.00    -0.127 OA 
HETATM   23  C   UNL     1      -8.111   6.382  66.928  1.00  0.00    -0.109 C  
HETATM   24  H   UNL     1      -6.273   8.375  70.861  1.00  0.00     0.000 HD 
HETATM   25  C   UNL     1      -7.010   5.772  67.795  1.00  0.00    -0.066 C  
HETATM   26  O   UNL     1      -6.947   8.674  70.263  1.00  0.00    -0.038 OA 
HETATM   27  C   UNL     1      -6.422   6.851  68.717  1.00  0.00    -0.036 C  
HETATM   28  O   UNL     1      -5.955   5.201  67.015  1.00  0.00    -0.024 OA 
HETATM   29  H   UNL     1      -5.076   6.924  70.143  1.00  0.00     0.000 HD 
HETATM   30  C   UNL     1      -7.515   7.572  69.538  1.00  0.00    -0.093 C  
HETATM   31  H   UNL     1      -5.270   4.822  67.554  1.00  0.00     0.000 HD 
HETATM   32  O   UNL     1      -5.439   6.257  69.573  1.00  0.00    -0.012 OA 
BRANCH  23  33
HETATM   33  C   UNL     1      -8.794   5.329  66.048  1.00  0.00    -0.141 C  
HETATM   34  O   UNL     1     -10.152   5.722  65.805  1.00  0.00    -0.388 OA 
HETATM   35  H   UNL     1     -10.576   5.069  65.260  1.00  0.00     0.000 HD 
ENDBRANCH  23  33
ENDBRANCH  19  21
ENDBRANCH  13  14
ENDBRANCH  10  13
ENDBRANCH   6   7
ENDBRANCH   1   6
TORSDOF 6
ENDMDL
MODEL      171
REMARK 921   NORMALIZED FREE ENERGY PREDICTED BY IDOCK:   -5.30 KCAL/MOL
REMARK 922        TOTAL FREE ENERGY PREDICTED BY IDOCK:   -8.13 KCAL/MOL
REMARK 923 INTER-LIGAND FREE ENERGY PREDICTED BY IDOCK:   -7.83 KCAL/MOL
REMARK 924 INTRA-LIGAND FREE ENERGY PREDICTED BY IDOCK:   -0.30 KCAL/MOL
REMARK 927      BINDING AFFINITY PREDICTED BY RF-SCORE:    0.00 PKD
ROOT
HETATM    1  C   UNL     1      -9.944   6.151  69.441  1.00  0.00    -0.166 C  
HETATM    2  C   UNL     1      -8.713   6.399  68.587  1.00  0.00    -0.122 C  
HETATM    3  O   UNL     1      -7.970   6.234  70.806  1.00  0.00    -0.107 OA 
HETATM    4  C   UNL     1      -7.593   5.909  69.465  1.00  0.00    -0.088 C  
HETATM    5  C   UNL     1      -9.397   6.424  70.840  1.00  0.00    -0.161 C  
ENDROOT
BRANCH   1   6
HETATM    6  O   UNL     1     -10.949   7.071  69.028  1.00  0.00    -0.200 OA 
BRANCH   6   7
HETATM    7  C   UNL     1     -10.576   8.182  68.328  1.00  0.00    -0.098 A  
HETATM    8  C   UNL     1      -9.770  10.445  68.037  1.00  0.00    -0.166 A  
HETATM    9  C   UNL     1     -10.238   9.417  68.873  1.00  0.00    -0.215 A  
HETATM   10  C   UNL     1      -9.635  10.251  66.652  1.00  0.00    -0.220 A  
HETATM   11  C   UNL     1     -10.460   7.988  66.951  1.00  0.00    -0.387 A  
HETATM   12  C   UNL     1     -10.004   9.012  66.118  1.00  0.00    -0.311 A  
BRANCH  10  13
HETATM   13  C   UNL     1      -9.026  11.321  65.761  1.00  0.00    -0.191 C  
BRANCH  13  14
HETATM   14  C   UNL     1      -9.863  12.586  65.718  1.00  0.00    -0.244 A  
HETATM   15  C   UNL     1     -10.971  12.760  64.877  1.00  0.00    -0.294 A  
HETATM   16 CL   UNL     1     -11.583  11.495  63.875  1.00  0.00    -0.391 Cl 
HETATM   17  C   UNL     1     -11.607  14.004  64.794  1.00  0.00    -0.387 A  
HETATM   18  C   UNL     1     -11.097  15.104  65.488  1.00  0.00    -0.347 A  
HETATM   19  C   UNL     1      -9.961  14.973  66.295  1.00  0.00    -0.300 A  
HETATM   20  C   UNL     1      -9.415  13.690  66.467  1.00  0.00    -0.270 A  
BRANCH  19  21
HETATM   21  C   UNL     1      -9.222  16.213  66.780  1.00  0.00    -0.231 C  
HETATM   22  O   UNL     1      -9.742  17.352  66.068  1.00  0.00    -0.459 OA 
HETATM   23  C   UNL     1      -9.322  18.602  66.624  1.00  0.00    -0.315 C  
HETATM   24  H   UNL     1      -6.203  15.080  67.457  1.00  0.00     0.000 HD 
HETATM   25  C   UNL     1      -7.803  18.724  66.516  1.00  0.00    -0.269 C  
HETATM   26  O   UNL     1      -7.151  15.102  67.500  1.00  0.00    -0.172 OA 
HETATM   27  C   UNL     1      -7.137  17.533  67.222  1.00  0.00    -0.167 C  
HETATM   28  O   UNL     1      -7.311  19.939  67.092  1.00  0.00    -0.229 OA 
HETATM   29  H   UNL     1      -5.306  16.882  67.495  1.00  0.00     0.000 HD 
HETATM   30  C   UNL     1      -7.677  16.178  66.709  1.00  0.00    -0.253 C  
HETATM   31  H   UNL     1      -6.366  20.015  67.025  1.00  0.00     0.000 HD 
HETATM   32  O   UNL     1      -5.717  17.619  67.058  1.00  0.00    -0.127 OA 
BRANCH  23  33
HETATM   33  C   UNL     1     -10.040  19.720  65.861  1.00  0.00    -0.419 C  
HETATM   34  O   UNL     1      -9.975  20.934  66.624  1.00  0.00    -0.527 OA 
HETATM   35  H   UNL     1     -10.420  21.627  66.152  1.00  0.00     0.000 HD 
ENDBRANCH  23  33
ENDBRANCH  19  21
ENDBRANCH  13  14
ENDBRANCH  10  13
ENDBRANCH   6   7
ENDBRANCH   1   6
TORSDOF 6
ENDMDL
MODEL      172
REMARK 921   NORMALIZED FREE ENERGY PREDICTED BY IDOCK:   -5.29 KCAL/MOL
REMARK 922        TOTAL FREE ENERGY PREDICTED BY IDOCK:   -8.11 KCAL/MOL
REMARK 923 INTER-LIGAND FREE ENERGY PREDICTED BY IDOCK:   -8.83 KCAL/MOL
REMARK 924 INTRA-LIGAND FREE ENERGY PREDICTED BY IDOCK:    0.72 KCAL/MOL
REMARK 927      BINDING AFFINITY PREDICTED BY RF-SCORE:    0.00 PKD
ROOT
HETATM    1  C   UNL     1     -10.109  17.037  68.947  1.00  0.00    -0.307 C  
HETATM    2  C   UNL     1      -9.394  16.631  67.670  1.00  0.00    -0.224 C  
HETATM    3  O   UNL     1      -8.903  18.898  68.026  1.00  0.00    -0.290 OA 
HETATM    4  C   UNL     1      -8.326  17.683  67.538  1.00  0.00    -0.218 C  
HETATM    5  C   UNL     1     -10.020  18.558  68.870  1.00  0.00    -0.347 C  
ENDROOT
BRANCH   1   6
HETATM    6  O   UNL     1     -11.439  16.535  68.875  1.00  0.00    -0.267 OA 
BRANCH   6   7
HETATM    7  C   UNL     1     -11.663  15.222  69.167  1.00  0.00    -0.335 A  
HETATM    8  C   UNL     1     -11.541  12.828  68.828  1.00  0.00    -0.353 A  
HETATM    9  C   UNL     1     -11.350  14.137  68.353  1.00  0.00    -0.315 A  
HETATM   10  C   UNL     1     -12.045  12.589  70.118  1.00  0.00    -0.368 A  
HETATM   11  C   UNL     1     -12.180  14.991  70.443  1.00  0.00    -0.393 A  
HETATM   12  C   UNL     1     -12.379  13.690  70.913  1.00  0.00    -0.450 A  
BRANCH  10  13
HETATM   13  C   UNL     1     -12.150  11.179  70.675  1.00  0.00    -0.477 C  
BRANCH  13  14
HETATM   14  C   UNL     1     -11.387  10.167  69.842  1.00  0.00    -0.335 A  
HETATM   15  C   UNL     1     -10.485   9.237  70.376  1.00  0.00    -0.245 A  
HETATM   16 CL   UNL     1     -10.232   9.061  72.076  1.00  0.00    -0.369 Cl 
HETATM   17  C   UNL     1      -9.716   8.431  69.530  1.00  0.00    -0.177 A  
HETATM   18  C   UNL     1      -9.782   8.598  68.145  1.00  0.00    -0.178 A  
HETATM   19  C   UNL     1     -10.637   9.554  67.583  1.00  0.00    -0.329 A  
HETATM   20  C   UNL     1     -11.493  10.262  68.442  1.00  0.00    -0.163 A  
BRANCH  19  21
HETATM   21  C   UNL     1     -10.473   9.961  66.125  1.00  0.00    -0.074 C  
HETATM   22  O   UNL     1      -9.176   9.518  65.679  1.00  0.00    -0.188 OA 
HETATM   23  C   UNL     1      -9.013   9.601  64.259  1.00  0.00    -0.229 C  
HETATM   24  H   UNL     1     -12.153  12.788  65.933  1.00  0.00     0.000 HD 
HETATM   25  C   UNL     1      -9.110  11.060  63.818  1.00  0.00    -0.128 C  
HETATM   26  O   UNL     1     -12.019  11.871  66.140  1.00  0.00    -0.537 OA 
HETATM   27  C   UNL     1     -10.454  11.649  64.272  1.00  0.00    -0.331 C  
HETATM   28  O   UNL     1      -8.993  11.209  62.399  1.00  0.00    -0.319 OA 
HETATM   29  H   UNL     1     -11.341  13.398  64.195  1.00  0.00     0.000 HD 
HETATM   30  C   UNL     1     -10.692  11.454  65.787  1.00  0.00    -0.251 C  
HETATM   31  H   UNL     1      -9.054  12.117  62.124  1.00  0.00     0.000 HD 
HETATM   32  O   UNL     1     -10.510  13.035  63.913  1.00  0.00    -0.392 OA 
BRANCH  23  33
HETATM   33  C   UNL     1      -7.653   8.987  63.908  1.00  0.00    -0.115 C  
HETATM   34  O   UNL     1      -6.678  10.032  63.785  1.00  0.00    -0.123 OA 
HETATM   35  H   UNL     1      -5.835   9.652  63.567  1.00  0.00     0.000 HD 
ENDBRANCH  23  33
ENDBRANCH  19  21
ENDBRANCH  13  14
ENDBRANCH  10  13
ENDBRANCH   6   7
ENDBRANCH   1   6
TORSDOF 6
ENDMDL
MODEL      173
REMARK 921   NORMALIZED FREE ENERGY PREDICTED BY IDOCK:   -5.28 KCAL/MOL
REMARK 922        TOTAL FREE ENERGY PREDICTED BY IDOCK:   -8.10 KCAL/MOL
REMARK 923 INTER-LIGAND FREE ENERGY PREDICTED BY IDOCK:   -6.65 KCAL/MOL
REMARK 924 INTRA-LIGAND FREE ENERGY PREDICTED BY IDOCK:   -1.45 KCAL/MOL
REMARK 927      BINDING AFFINITY PREDICTED BY RF-SCORE:    0.00 PKD
ROOT
HETATM    1  C   UNL     1     -10.687   7.015  71.462  1.00  0.00    -0.221 C  
HETATM    2  C   UNL     1     -10.608   5.529  71.762  1.00  0.00    -0.296 C  
HETATM    3  O   UNL     1     -10.488   6.638  73.826  1.00  0.00    -0.303 OA 
HETATM    4  C   UNL     1     -11.012   5.457  73.210  1.00  0.00    -0.307 C  
HETATM    5  C   UNL     1     -10.243   7.613  72.794  1.00  0.00    -0.279 C  
ENDROOT
BRANCH   1   6
HETATM    6  O   UNL     1      -9.798   7.287  70.385  1.00  0.00    -0.183 OA 
BRANCH   6   7
HETATM    7  C   UNL     1      -9.745   8.552  69.879  1.00  0.00    -0.179 A  
HETATM    8  C   UNL     1      -8.679  10.562  69.052  1.00  0.00    -0.160 A  
HETATM    9  C   UNL     1      -8.594   9.309  69.682  1.00  0.00    -0.151 A  
HETATM   10  C   UNL     1      -9.913  11.072  68.613  1.00  0.00    -0.205 A  
HETATM   11  C   UNL     1     -10.976   9.061  69.460  1.00  0.00    -0.118 A  
HETATM   12  C   UNL     1     -11.064  10.311  68.842  1.00  0.00    -0.278 A  
BRANCH  10  13
HETATM   13  C   UNL     1      -9.996  12.375  67.834  1.00  0.00    -0.204 C  
BRANCH  13  14
HETATM   14  C   UNL     1     -10.151  12.151  66.343  1.00  0.00    -0.242 A  
HETATM   15  C   UNL     1     -11.236  12.621  65.591  1.00  0.00    -0.309 A  
HETATM   16 CL   UNL     1     -12.468  13.623  66.269  1.00  0.00    -0.452 Cl 
HETATM   17  C   UNL     1     -11.378  12.255  64.248  1.00  0.00    -0.415 A  
HETATM   18  C   UNL     1     -10.484  11.355  63.664  1.00  0.00    -0.472 A  
HETATM   19  C   UNL     1      -9.419  10.828  64.404  1.00  0.00    -0.300 A  
HETATM   20  C   UNL     1      -9.219  11.307  65.710  1.00  0.00    -0.236 A  
BRANCH  19  21
HETATM   21  C   UNL     1      -8.653   9.619  63.884  1.00  0.00    -0.206 C  
HETATM   22  O   UNL     1      -8.703   8.589  64.890  1.00  0.00    -0.153 OA 
HETATM   23  C   UNL     1      -8.254   7.316  64.413  1.00  0.00     0.010 C  
HETATM   24  H   UNL     1      -6.263  10.966  62.058  1.00  0.00     0.000 HD 
HETATM   25  C   UNL     1      -6.782   7.411  64.012  1.00  0.00    -0.048 C  
HETATM   26  O   UNL     1      -7.156  10.817  62.345  1.00  0.00    -0.132 OA 
HETATM   27  C   UNL     1      -6.605   8.511  62.955  1.00  0.00    -0.090 C  
HETATM   28  O   UNL     1      -6.279   6.178  63.488  1.00  0.00    -0.022 OA 
HETATM   29  H   UNL     1      -5.105   9.321  61.980  1.00  0.00     0.000 HD 
HETATM   30  C   UNL     1      -7.198   9.862  63.416  1.00  0.00    -0.131 C  
HETATM   31  H   UNL     1      -5.364   6.237  63.238  1.00  0.00     0.000 HD 
HETATM   32  O   UNL     1      -5.215   8.641  62.634  1.00  0.00    -0.068 OA 
BRANCH  23  33
HETATM   33  C   UNL     1      -8.476   6.292  65.530  1.00  0.00    -0.144 C  
HETATM   34  O   UNL     1      -9.438   5.319  65.098  1.00  0.00    -0.353 OA 
HETATM   35  H   UNL     1      -9.576   4.683  65.791  1.00  0.00     0.000 HD 
ENDBRANCH  23  33
ENDBRANCH  19  21
ENDBRANCH  13  14
ENDBRANCH  10  13
ENDBRANCH   6   7
ENDBRANCH   1   6
TORSDOF 6
ENDMDL
MODEL      174
REMARK 921   NORMALIZED FREE ENERGY PREDICTED BY IDOCK:   -5.26 KCAL/MOL
REMARK 922        TOTAL FREE ENERGY PREDICTED BY IDOCK:   -8.07 KCAL/MOL
REMARK 923 INTER-LIGAND FREE ENERGY PREDICTED BY IDOCK:   -6.90 KCAL/MOL
REMARK 924 INTRA-LIGAND FREE ENERGY PREDICTED BY IDOCK:   -1.17 KCAL/MOL
REMARK 927      BINDING AFFINITY PREDICTED BY RF-SCORE:    0.00 PKD
ROOT
HETATM    1  C   UNL     1     -12.976  13.406  71.828  1.00  0.00    -0.342 C  
HETATM    2  C   UNL     1     -12.642  14.160  70.554  1.00  0.00    -0.410 C  
HETATM    3  O   UNL     1     -13.511  15.735  72.059  1.00  0.00    -0.466 OA 
HETATM    4  C   UNL     1     -12.531  15.584  71.028  1.00  0.00    -0.436 C  
HETATM    5  C   UNL     1     -13.841  14.426  72.562  1.00  0.00    -0.456 C  
ENDROOT
BRANCH   1   6
HETATM    6  O   UNL     1     -13.674  12.221  71.458  1.00  0.00     0.149 OA 
BRANCH   6   7
HETATM    7  C   UNL     1     -13.019  11.026  71.517  1.00  0.00    -0.448 A  
HETATM    8  C   UNL     1     -12.748   8.674  72.021  1.00  0.00    -0.427 A  
HETATM    9  C   UNL     1     -13.484   9.866  72.129  1.00  0.00    -0.454 A  
HETATM   10  C   UNL     1     -11.541   8.628  71.302  1.00  0.00    -0.340 A  
HETATM   11  C   UNL     1     -11.813  10.991  70.816  1.00  0.00    -0.383 A  
HETATM   12  C   UNL     1     -11.074   9.809  70.716  1.00  0.00    -0.415 A  
BRANCH  10  13
HETATM   13  C   UNL     1     -10.798   7.319  71.090  1.00  0.00    -0.260 C  
BRANCH  13  14
HETATM   14  C   UNL     1      -9.311   7.524  70.874  1.00  0.00    -0.154 A  
HETATM   15  C   UNL     1      -8.383   7.662  71.915  1.00  0.00    -0.109 A  
HETATM   16 CL   UNL     1      -8.821   7.491  73.577  1.00  0.00    -0.231 Cl 
HETATM   17  C   UNL     1      -7.051   7.987  71.637  1.00  0.00    -0.072 A  
HETATM   18  C   UNL     1      -6.649   8.255  70.326  1.00  0.00    -0.036 A  
HETATM   19  C   UNL     1      -7.566   8.175  69.271  1.00  0.00    -0.095 A  
HETATM   20  C   UNL     1      -8.864   7.722  69.554  1.00  0.00    -0.139 A  
BRANCH  19  21
HETATM   21  C   UNL     1      -7.220   8.774  67.914  1.00  0.00    -0.084 C  
HETATM   22  O   UNL     1      -8.150   9.842  67.645  1.00  0.00    -0.112 OA 
HETATM   23  C   UNL     1      -7.764  10.655  66.532  1.00  0.00    -0.137 C  
HETATM   24  H   UNL     1      -6.100   6.189  66.206  1.00  0.00     0.000 HD 
HETATM   25  C   UNL     1      -7.752   9.808  65.260  1.00  0.00    -0.121 C  
HETATM   26  O   UNL     1      -6.147   6.789  66.941  1.00  0.00    -0.033 OA 
HETATM   27  C   UNL     1      -6.808   8.611  65.446  1.00  0.00    -0.071 C  
HETATM   28  O   UNL     1      -7.336  10.554  64.112  1.00  0.00    -0.328 OA 
HETATM   29  H   UNL     1      -6.269   7.045  64.392  1.00  0.00     0.000 HD 
HETATM   30  C   UNL     1      -7.144   7.797  66.717  1.00  0.00    -0.080 C  
HETATM   31  H   UNL     1      -7.328  10.026  63.321  1.00  0.00     0.000 HD 
HETATM   32  O   UNL     1      -6.853   7.785  64.277  1.00  0.00    -0.055 OA 
BRANCH  23  33
HETATM   33  C   UNL     1      -8.758  11.817  66.434  1.00  0.00    -0.147 C  
HETATM   34  O   UNL     1      -9.973  11.354  65.827  1.00  0.00    -0.211 OA 
HETATM   35  H   UNL     1     -10.589  12.074  65.766  1.00  0.00     0.000 HD 
ENDBRANCH  23  33
ENDBRANCH  19  21
ENDBRANCH  13  14
ENDBRANCH  10  13
ENDBRANCH   6   7
ENDBRANCH   1   6
TORSDOF 6
ENDMDL
MODEL      175
REMARK 921   NORMALIZED FREE ENERGY PREDICTED BY IDOCK:   -5.26 KCAL/MOL
REMARK 922        TOTAL FREE ENERGY PREDICTED BY IDOCK:   -8.07 KCAL/MOL
REMARK 923 INTER-LIGAND FREE ENERGY PREDICTED BY IDOCK:   -7.36 KCAL/MOL
REMARK 924 INTRA-LIGAND FREE ENERGY PREDICTED BY IDOCK:   -0.71 KCAL/MOL
REMARK 927      BINDING AFFINITY PREDICTED BY RF-SCORE:    0.00 PKD
ROOT
HETATM    1  C   UNL     1      -7.491  18.518  67.311  1.00  0.00    -0.218 C  
HETATM    2  C   UNL     1      -8.179  18.734  65.975  1.00  0.00    -0.113 C  
HETATM    3  O   UNL     1      -9.390  19.966  67.563  1.00  0.00    -0.324 OA 
HETATM    4  C   UNL     1      -8.955  20.004  66.200  1.00  0.00    -0.266 C  
HETATM    5  C   UNL     1      -8.546  19.046  68.280  1.00  0.00    -0.331 C  
ENDROOT
BRANCH   1   6
HETATM    6  O   UNL     1      -7.234  17.124  67.445  1.00  0.00    -0.145 OA 
BRANCH   6   7
HETATM    7  C   UNL     1      -8.276  16.288  67.721  1.00  0.00    -0.149 A  
HETATM    8  C   UNL     1      -9.822  15.070  69.130  1.00  0.00    -0.223 A  
HETATM    9  C   UNL     1      -8.661  15.848  68.984  1.00  0.00    -0.239 A  
HETATM   10  C   UNL     1     -10.609  14.724  68.019  1.00  0.00    -0.244 A  
HETATM   11  C   UNL     1      -9.045  15.933  66.611  1.00  0.00    -0.290 A  
HETATM   12  C   UNL     1     -10.194  15.152  66.754  1.00  0.00    -0.265 A  
BRANCH  10  13
HETATM   13  C   UNL     1     -11.923  13.977  68.185  1.00  0.00    -0.382 C  
BRANCH  13  14
HETATM   14  C   UNL     1     -11.733  12.473  68.231  1.00  0.00    -0.390 A  
HETATM   15  C   UNL     1     -11.861  11.705  69.396  1.00  0.00    -0.342 A  
HETATM   16 CL   UNL     1     -12.373  12.381  70.900  1.00  0.00    -0.438 Cl 
HETATM   17  C   UNL     1     -11.535  10.344  69.386  1.00  0.00    -0.292 A  
HETATM   18  C   UNL     1     -11.005   9.754  68.236  1.00  0.00    -0.215 A  
HETATM   19  C   UNL     1     -10.818  10.509  67.071  1.00  0.00    -0.288 A  
HETATM   20  C   UNL     1     -11.271  11.838  67.063  1.00  0.00    -0.382 A  
BRANCH  19  21
HETATM   21  C   UNL     1      -9.951   9.966  65.943  1.00  0.00    -0.277 C  
HETATM   22  O   UNL     1      -8.653   9.654  66.484  1.00  0.00    -0.125 OA 
HETATM   23  C   UNL     1      -7.840   8.888  65.588  1.00  0.00    -0.096 C  
HETATM   24  H   UNL     1     -11.030  11.612  63.300  1.00  0.00     0.000 HD 
HETATM   25  C   UNL     1      -7.561   9.705  64.327  1.00  0.00    -0.128 C  
HETATM   26  O   UNL     1     -11.108  11.073  64.078  1.00  0.00    -0.244 OA 
HETATM   27  C   UNL     1      -8.889  10.122  63.677  1.00  0.00    -0.226 C  
HETATM   28  O   UNL     1      -6.783   8.980  63.369  1.00  0.00    -0.090 OA 
HETATM   29  H   UNL     1      -9.441  11.201  62.133  1.00  0.00     0.000 HD 
HETATM   30  C   UNL     1      -9.823  10.844  64.675  1.00  0.00    -0.294 C  
HETATM   31  H   UNL     1      -6.610   9.488  62.585  1.00  0.00     0.000 HD 
HETATM   32  O   UNL     1      -8.620  10.944  62.535  1.00  0.00    -0.241 OA 
BRANCH  23  33
HETATM   33  C   UNL     1      -6.550   8.518  66.326  1.00  0.00    -0.061 C  
HETATM   34  O   UNL     1      -5.518   9.453  65.977  1.00  0.00    -0.039 OA 
HETATM   35  H   UNL     1      -4.717   9.224  66.434  1.00  0.00     0.000 HD 
ENDBRANCH  23  33
ENDBRANCH  19  21
ENDBRANCH  13  14
ENDBRANCH  10  13
ENDBRANCH   6   7
ENDBRANCH   1   6
TORSDOF 6
ENDMDL
MODEL      176
REMARK 921   NORMALIZED FREE ENERGY PREDICTED BY IDOCK:   -5.25 KCAL/MOL
REMARK 922        TOTAL FREE ENERGY PREDICTED BY IDOCK:   -8.06 KCAL/MOL
REMARK 923 INTER-LIGAND FREE ENERGY PREDICTED BY IDOCK:   -7.24 KCAL/MOL
REMARK 924 INTRA-LIGAND FREE ENERGY PREDICTED BY IDOCK:   -0.82 KCAL/MOL
REMARK 927      BINDING AFFINITY PREDICTED BY RF-SCORE:    0.00 PKD
ROOT
HETATM    1  C   UNL     1      -7.947   4.058  73.888  1.00  0.00    -0.084 C  
HETATM    2  C   UNL     1      -7.718   3.835  72.404  1.00  0.00    -0.068 C  
HETATM    3  O   UNL     1      -6.140   2.517  73.533  1.00  0.00    -0.010 OA 
HETATM    4  C   UNL     1      -6.977   2.525  72.373  1.00  0.00    -0.027 C  
HETATM    5  C   UNL     1      -6.672   3.462  74.480  1.00  0.00    -0.040 C  
ENDROOT
BRANCH   1   6
HETATM    6  O   UNL     1      -8.077   5.460  74.099  1.00  0.00    -0.109 OA 
BRANCH   6   7
HETATM    7  C   UNL     1      -9.132   6.114  73.535  1.00  0.00    -0.127 A  
HETATM    8  C   UNL     1     -11.424   6.406  72.812  1.00  0.00    -0.174 A  
HETATM    9  C   UNL     1     -10.397   5.582  73.305  1.00  0.00    -0.233 A  
HETATM   10  C   UNL     1     -11.198   7.767  72.544  1.00  0.00    -0.419 A  
HETATM   11  C   UNL     1      -8.898   7.461  73.256  1.00  0.00    -0.201 A  
HETATM   12  C   UNL     1      -9.914   8.279  72.757  1.00  0.00    -0.333 A  
BRANCH  10  13
HETATM   13  C   UNL     1     -12.331   8.685  72.116  1.00  0.00    -0.452 C  
BRANCH  13  14
HETATM   14  C   UNL     1     -11.894   9.700  71.077  1.00  0.00    -0.428 A  
HETATM   15  C   UNL     1     -12.325  11.033  71.058  1.00  0.00    -0.385 A  
HETATM   16 CL   UNL     1     -13.318  11.704  72.301  1.00  0.00    -0.385 Cl 
HETATM   17  C   UNL     1     -11.989  11.871  69.989  1.00  0.00    -0.409 A  
HETATM   18  C   UNL     1     -11.286  11.366  68.892  1.00  0.00    -0.310 A  
HETATM   19  C   UNL     1     -10.886  10.025  68.859  1.00  0.00    -0.250 A  
HETATM   20  C   UNL     1     -11.120   9.236  69.997  1.00  0.00    -0.228 A  
BRANCH  19  21
HETATM   21  C   UNL     1     -10.420   9.400  67.551  1.00  0.00    -0.280 C  
HETATM   22  O   UNL     1     -10.403   7.969  67.718  1.00  0.00    -0.212 OA 
HETATM   23  C   UNL     1     -10.245   7.262  66.484  1.00  0.00    -0.068 C  
HETATM   24  H   UNL     1      -8.299  11.624  66.362  1.00  0.00     0.000 HD 
HETATM   25  C   UNL     1      -8.890   7.608  65.867  1.00  0.00    -0.130 C  
HETATM   26  O   UNL     1      -9.125  11.314  66.715  1.00  0.00    -0.165 OA 
HETATM   27  C   UNL     1      -8.785   9.127  65.670  1.00  0.00    -0.174 C  
HETATM   28  O   UNL     1      -8.684   6.961  64.607  1.00  0.00    -0.349 OA 
HETATM   29  H   UNL     1      -7.423  10.390  65.034  1.00  0.00     0.000 HD 
HETATM   30  C   UNL     1      -9.076   9.904  66.975  1.00  0.00    -0.138 C  
HETATM   31  H   UNL     1      -7.841   7.177  64.223  1.00  0.00     0.000 HD 
HETATM   32  O   UNL     1      -7.488   9.450  65.155  1.00  0.00    -0.100 OA 
BRANCH  23  33
HETATM   33  C   UNL     1     -10.370   5.764  66.782  1.00  0.00    -0.256 C  
HETATM   34  O   UNL     1     -11.022   5.113  65.682  1.00  0.00    -0.699 OA 
HETATM   35  H   UNL     1     -11.100   4.185  65.867  1.00  0.00     0.000 HD 
ENDBRANCH  23  33
ENDBRANCH  19  21
ENDBRANCH  13  14
ENDBRANCH  10  13
ENDBRANCH   6   7
ENDBRANCH   1   6
TORSDOF 6
ENDMDL
MODEL      177
REMARK 921   NORMALIZED FREE ENERGY PREDICTED BY IDOCK:   -5.25 KCAL/MOL
REMARK 922        TOTAL FREE ENERGY PREDICTED BY IDOCK:   -8.06 KCAL/MOL
REMARK 923 INTER-LIGAND FREE ENERGY PREDICTED BY IDOCK:   -7.37 KCAL/MOL
REMARK 924 INTRA-LIGAND FREE ENERGY PREDICTED BY IDOCK:   -0.69 KCAL/MOL
REMARK 927      BINDING AFFINITY PREDICTED BY RF-SCORE:    0.00 PKD
ROOT
HETATM    1  C   UNL     1     -10.950  14.707  68.746  1.00  0.00    -0.258 C  
HETATM    2  C   UNL     1     -10.773  16.204  68.922  1.00  0.00    -0.280 C  
HETATM    3  O   UNL     1     -12.146  15.478  70.681  1.00  0.00    -0.328 OA 
HETATM    4  C   UNL     1     -11.105  16.411  70.376  1.00  0.00    -0.233 C  
HETATM    5  C   UNL     1     -12.114  14.430  69.693  1.00  0.00    -0.334 C  
ENDROOT
BRANCH   1   6
HETATM    6  O   UNL     1     -11.255  14.466  67.376  1.00  0.00    -0.300 OA 
BRANCH   6   7
HETATM    7  C   UNL     1     -10.742  13.355  66.774  1.00  0.00    -0.277 A  
HETATM    8  C   UNL     1      -9.050  11.706  66.249  1.00  0.00    -0.219 A  
HETATM    9  C   UNL     1      -9.418  12.931  66.830  1.00  0.00    -0.237 A  
HETATM   10  C   UNL     1      -9.999  10.892  65.606  1.00  0.00    -0.305 A  
HETATM   11  C   UNL     1     -11.686  12.560  66.123  1.00  0.00    -0.466 A  
HETATM   12  C   UNL     1     -11.320  11.346  65.536  1.00  0.00    -0.067 A  
BRANCH  10  13
HETATM   13  C   UNL     1      -9.629   9.518  65.072  1.00  0.00    -0.218 C  
BRANCH  13  14
HETATM   14  C   UNL     1      -8.909   8.670  66.103  1.00  0.00    -0.204 A  
HETATM   15  C   UNL     1      -8.107   7.566  65.783  1.00  0.00    -0.127 A  
HETATM   16 CL   UNL     1      -7.751   7.120  64.153  1.00  0.00    -0.116 Cl 
HETATM   17  C   UNL     1      -7.590   6.750  66.795  1.00  0.00    -0.090 A  
HETATM   18  C   UNL     1      -7.931   6.981  68.130  1.00  0.00    -0.119 A  
HETATM   19  C   UNL     1      -8.771   8.045  68.476  1.00  0.00    -0.131 A  
HETATM   20  C   UNL     1      -9.175   8.928  67.461  1.00  0.00    -0.153 A  
BRANCH  19  21
HETATM   21  C   UNL     1      -9.399   8.102  69.862  1.00  0.00    -0.159 C  
HETATM   22  O   UNL     1      -9.839   6.774  70.209  1.00  0.00    -0.174 OA 
HETATM   23  C   UNL     1     -10.199   6.645  71.589  1.00  0.00    -0.192 C  
HETATM   24  H   UNL     1     -10.766  11.098  69.954  1.00  0.00     0.000 HD 
HETATM   25  C   UNL     1     -11.390   7.553  71.894  1.00  0.00    -0.260 C  
HETATM   26  O   UNL     1     -10.070  10.466  69.824  1.00  0.00    -0.227 OA 
HETATM   27  C   UNL     1     -11.040   9.003  71.529  1.00  0.00    -0.349 C  
HETATM   28  O   UNL     1     -11.776   7.500  73.271  1.00  0.00    -0.604 OA 
HETATM   29  H   UNL     1     -11.967  10.734  71.529  1.00  0.00     0.000 HD 
HETATM   30  C   UNL     1     -10.534   9.131  70.074  1.00  0.00    -0.221 C  
HETATM   31  H   UNL     1     -12.517   8.065  73.461  1.00  0.00     0.000 HD 
HETATM   32  O   UNL     1     -12.183   9.837  71.754  1.00  0.00    -0.382 OA 
BRANCH  23  33
HETATM   33  C   UNL     1     -10.522   5.171  71.853  1.00  0.00    -0.207 C  
HETATM   34  O   UNL     1      -9.347   4.379  71.627  1.00  0.00    -0.129 OA 
HETATM   35  H   UNL     1      -9.547   3.464  71.790  1.00  0.00     0.000 HD 
ENDBRANCH  23  33
ENDBRANCH  19  21
ENDBRANCH  13  14
ENDBRANCH  10  13
ENDBRANCH   6   7
ENDBRANCH   1   6
TORSDOF 6
ENDMDL
MODEL      178
REMARK 921   NORMALIZED FREE ENERGY PREDICTED BY IDOCK:   -5.24 KCAL/MOL
REMARK 922        TOTAL FREE ENERGY PREDICTED BY IDOCK:   -8.04 KCAL/MOL
REMARK 923 INTER-LIGAND FREE ENERGY PREDICTED BY IDOCK:   -7.09 KCAL/MOL
REMARK 924 INTRA-LIGAND FREE ENERGY PREDICTED BY IDOCK:   -0.95 KCAL/MOL
REMARK 927      BINDING AFFINITY PREDICTED BY RF-SCORE:    0.00 PKD
ROOT
HETATM    1  C   UNL     1     -10.145  17.577  67.582  1.00  0.00    -0.328 C  
HETATM    2  C   UNL     1      -9.957  18.923  68.257  1.00  0.00    -0.431 C  
HETATM    3  O   UNL     1      -7.984  18.486  67.065  1.00  0.00    -0.227 OA 
HETATM    4  C   UNL     1      -8.858  19.554  67.444  1.00  0.00    -0.308 C  
HETATM    5  C   UNL     1      -8.715  17.249  67.163  1.00  0.00    -0.218 C  
ENDROOT
BRANCH   1   6
HETATM    6  O   UNL     1     -10.680  16.679  68.550  1.00  0.00    -0.314 OA 
BRANCH   6   7
HETATM    7  C   UNL     1     -10.754  15.352  68.245  1.00  0.00    -0.260 A  
HETATM    8  C   UNL     1     -10.231  12.999  68.467  1.00  0.00    -0.218 A  
HETATM    9  C   UNL     1      -9.974  14.340  68.797  1.00  0.00    -0.205 A  
HETATM   10  C   UNL     1     -11.268  12.654  67.582  1.00  0.00    -0.329 A  
HETATM   11  C   UNL     1     -11.774  15.017  67.353  1.00  0.00    -0.255 A  
HETATM   12  C   UNL     1     -12.025  13.684  67.016  1.00  0.00    -0.448 A  
BRANCH  10  13
HETATM   13  C   UNL     1     -11.620  11.201  67.307  1.00  0.00    -0.098 C  
BRANCH  13  14
HETATM   14  C   UNL     1     -10.423  10.279  67.436  1.00  0.00    -0.303 A  
HETATM   15  C   UNL     1      -9.483  10.074  66.417  1.00  0.00    -0.186 A  
HETATM   16 CL   UNL     1      -9.519  10.953  64.931  1.00  0.00    -0.257 Cl 
HETATM   17  C   UNL     1      -8.485   9.104  66.560  1.00  0.00    -0.127 A  
HETATM   18  C   UNL     1      -8.463   8.275  67.685  1.00  0.00    -0.130 A  
HETATM   19  C   UNL     1      -9.421   8.422  68.695  1.00  0.00    -0.147 A  
HETATM   20  C   UNL     1     -10.333   9.485  68.594  1.00  0.00    -0.229 A  
BRANCH  19  21
HETATM   21  C   UNL     1      -9.598   7.330  69.742  1.00  0.00    -0.162 C  
HETATM   22  O   UNL     1     -10.878   7.520  70.376  1.00  0.00    -0.235 OA 
HETATM   23  C   UNL     1     -11.276   6.406  71.182  1.00  0.00    -0.302 C  
HETATM   24  H   UNL     1      -6.529   6.808  70.820  1.00  0.00     0.000 HD 
HETATM   25  C   UNL     1     -10.284   6.228  72.331  1.00  0.00    -0.187 C  
HETATM   26  O   UNL     1      -7.217   6.897  70.172  1.00  0.00    -0.072 OA 
HETATM   27  C   UNL     1      -8.867   6.046  71.767  1.00  0.00    -0.138 C  
HETATM   28  O   UNL     1     -10.603   5.103  73.157  1.00  0.00    -0.194 OA 
HETATM   29  H   UNL     1      -7.059   5.834  72.501  1.00  0.00     0.000 HD 
HETATM   30  C   UNL     1      -8.477   7.185  70.798  1.00  0.00    -0.133 C  
HETATM   31  H   UNL     1      -9.986   4.992  73.871  1.00  0.00     0.000 HD 
HETATM   32  O   UNL     1      -7.935   5.947  72.850  1.00  0.00    -0.106 OA 
BRANCH  23  33
HETATM   33  C   UNL     1     -12.695   6.679  71.691  1.00  0.00    -0.228 C  
HETATM   34  O   UNL     1     -12.907   8.096  71.773  1.00  0.00    -0.317 OA 
HETATM   35  H   UNL     1     -13.787   8.265  72.088  1.00  0.00     0.000 HD 
ENDBRANCH  23  33
ENDBRANCH  19  21
ENDBRANCH  13  14
ENDBRANCH  10  13
ENDBRANCH   6   7
ENDBRANCH   1   6
TORSDOF 6
ENDMDL
MODEL      179
REMARK 921   NORMALIZED FREE ENERGY PREDICTED BY IDOCK:   -5.23 KCAL/MOL
REMARK 922        TOTAL FREE ENERGY PREDICTED BY IDOCK:   -8.03 KCAL/MOL
REMARK 923 INTER-LIGAND FREE ENERGY PREDICTED BY IDOCK:   -7.55 KCAL/MOL
REMARK 924 INTRA-LIGAND FREE ENERGY PREDICTED BY IDOCK:   -0.49 KCAL/MOL
REMARK 927      BINDING AFFINITY PREDICTED BY RF-SCORE:    0.00 PKD
ROOT
HETATM    1  C   UNL     1      -9.593   6.287  71.092  1.00  0.00    -0.175 C  
HETATM    2  C   UNL     1      -8.392   5.597  71.713  1.00  0.00    -0.120 C  
HETATM    3  O   UNL     1      -9.694   3.917  70.719  1.00  0.00    -0.181 OA 
HETATM    4  C   UNL     1      -8.336   4.290  70.967  1.00  0.00    -0.084 C  
HETATM    5  C   UNL     1     -10.511   5.099  70.814  1.00  0.00    -0.193 C  
ENDROOT
BRANCH   1   6
HETATM    6  O   UNL     1     -10.111   7.201  72.053  1.00  0.00    -0.178 OA 
BRANCH   6   7
HETATM    7  C   UNL     1     -10.649   8.377  71.619  1.00  0.00    -0.258 A  
HETATM    8  C   UNL     1     -10.810  10.360  70.240  1.00  0.00    -0.308 A  
HETATM    9  C   UNL     1     -10.093   9.230  70.671  1.00  0.00    -0.339 A  
HETATM   10  C   UNL     1     -12.087  10.648  70.751  1.00  0.00    -0.474 A  
HETATM   11  C   UNL     1     -11.910   8.667  72.142  1.00  0.00    -0.447 A  
HETATM   12  C   UNL     1     -12.620   9.794  71.722  1.00  0.00    -0.506 A  
BRANCH  10  13
HETATM   13  C   UNL     1     -12.911  11.805  70.209  1.00  0.00     0.141 C  
BRANCH  13  14
HETATM   14  C   UNL     1     -12.359  13.155  70.625  1.00  0.00    -0.405 A  
HETATM   15  C   UNL     1     -12.984  14.002  71.550  1.00  0.00    -0.351 A  
HETATM   16 CL   UNL     1     -14.403  13.541  72.418  1.00  0.00    -0.475 Cl 
HETATM   17  C   UNL     1     -12.487  15.290  71.777  1.00  0.00    -0.431 A  
HETATM   18  C   UNL     1     -11.412  15.774  71.027  1.00  0.00    -0.451 A  
HETATM   19  C   UNL     1     -10.800  14.969  70.059  1.00  0.00    -0.243 A  
HETATM   20  C   UNL     1     -11.229  13.637  69.938  1.00  0.00    -0.023 A  
BRANCH  19  21
HETATM   21  C   UNL     1      -9.863  15.590  69.032  1.00  0.00    -0.235 C  
HETATM   22  O   UNL     1      -8.752  14.693  68.837  1.00  0.00    -0.177 OA 
HETATM   23  C   UNL     1      -7.947  15.035  67.704  1.00  0.00    -0.162 C  
HETATM   24  H   UNL     1     -10.165  18.823  69.589  1.00  0.00     0.000 HD 
HETATM   25  C   UNL     1      -7.316  16.409  67.922  1.00  0.00    -0.133 C  
HETATM   26  O   UNL     1     -10.469  17.941  69.414  1.00  0.00    -0.159 OA 
HETATM   27  C   UNL     1      -8.418  17.449  68.172  1.00  0.00    -0.241 C  
HETATM   28  O   UNL     1      -6.526  16.830  66.805  1.00  0.00    -0.188 OA 
HETATM   29  H   UNL     1      -8.499  19.364  68.597  1.00  0.00     0.000 HD 
HETATM   30  C   UNL     1      -9.367  17.027  69.318  1.00  0.00     0.018 C  
HETATM   31  H   UNL     1      -6.134  17.685  66.940  1.00  0.00     0.000 HD 
HETATM   32  O   UNL     1      -7.817  18.721  68.442  1.00  0.00    -0.299 OA 
BRANCH  23  33
HETATM   33  C   UNL     1      -6.888  13.941  67.535  1.00  0.00    -0.130 C  
HETATM   34  O   UNL     1      -5.593  14.547  67.417  1.00  0.00    -0.340 OA 
HETATM   35  H   UNL     1      -4.935  13.869  67.313  1.00  0.00     0.000 HD 
ENDBRANCH  23  33
ENDBRANCH  19  21
ENDBRANCH  13  14
ENDBRANCH  10  13
ENDBRANCH   6   7
ENDBRANCH   1   6
TORSDOF 6
ENDMDL
MODEL      180
REMARK 921   NORMALIZED FREE ENERGY PREDICTED BY IDOCK:   -5.23 KCAL/MOL
REMARK 922        TOTAL FREE ENERGY PREDICTED BY IDOCK:   -8.03 KCAL/MOL
REMARK 923 INTER-LIGAND FREE ENERGY PREDICTED BY IDOCK:   -6.72 KCAL/MOL
REMARK 924 INTRA-LIGAND FREE ENERGY PREDICTED BY IDOCK:   -1.31 KCAL/MOL
REMARK 927      BINDING AFFINITY PREDICTED BY RF-SCORE:    0.00 PKD
ROOT
HETATM    1  C   UNL     1      -6.280  10.244  68.913  1.00  0.00    -0.047 C  
HETATM    2  C   UNL     1      -6.319   9.746  67.480  1.00  0.00    -0.064 C  
HETATM    3  O   UNL     1      -6.413   7.847  68.854  1.00  0.00    -0.045 OA 
HETATM    4  C   UNL     1      -6.913   8.370  67.620  1.00  0.00    -0.075 C  
HETATM    5  C   UNL     1      -5.982   8.953  69.670  1.00  0.00    -0.035 C  
ENDROOT
BRANCH   1   6
HETATM    6  O   UNL     1      -5.244  11.216  69.005  1.00  0.00    -0.041 OA 
BRANCH   6   7
HETATM    7  C   UNL     1      -5.577  12.538  68.968  1.00  0.00    -0.065 A  
HETATM    8  C   UNL     1      -6.077  14.664  67.926  1.00  0.00    -0.162 A  
HETATM    9  C   UNL     1      -5.612  13.342  67.833  1.00  0.00    -0.125 A  
HETATM   10  C   UNL     1      -6.512  15.197  69.152  1.00  0.00    -0.116 A  
HETATM   11  C   UNL     1      -5.991  13.066  70.191  1.00  0.00    -0.135 A  
HETATM   12  C   UNL     1      -6.446  14.384  70.288  1.00  0.00    -0.130 A  
BRANCH  10  13
HETATM   13  C   UNL     1      -7.117  16.588  69.237  1.00  0.00    -0.219 C  
BRANCH  13  14
HETATM   14  C   UNL     1      -8.557  16.625  68.762  1.00  0.00    -0.261 A  
HETATM   15  C   UNL     1      -9.245  17.804  68.446  1.00  0.00    -0.285 A  
HETATM   16 CL   UNL     1      -8.481  19.352  68.447  1.00  0.00    -0.380 Cl 
HETATM   17  C   UNL     1     -10.612  17.767  68.149  1.00  0.00    -0.350 A  
HETATM   18  C   UNL     1     -11.322  16.568  68.241  1.00  0.00    -0.180 A  
HETATM   19  C   UNL     1     -10.672  15.382  68.604  1.00  0.00    -0.246 A  
HETATM   20  C   UNL     1      -9.278  15.416  68.772  1.00  0.00    -0.206 A  
BRANCH  19  21
HETATM   21  C   UNL     1     -11.485  14.164  69.020  1.00  0.00    -0.285 C  
HETATM   22  O   UNL     1     -11.739  14.254  70.435  1.00  0.00    -0.286 OA 
HETATM   23  C   UNL     1     -12.717  13.314  70.891  1.00  0.00    -0.254 C  
HETATM   24  H   UNL     1     -10.387  11.798  67.006  1.00  0.00     0.000 HD 
HETATM   25  C   UNL     1     -12.202  11.893  70.669  1.00  0.00    -0.331 C  
HETATM   26  O   UNL     1     -10.743  12.649  67.232  1.00  0.00    -0.232 OA 
HETATM   27  C   UNL     1     -11.867  11.691  69.183  1.00  0.00    -0.326 C  
HETATM   28  O   UNL     1     -13.152  10.900  71.070  1.00  0.00    -0.331 OA 
HETATM   29  H   UNL     1     -11.115  10.256  68.076  1.00  0.00     0.000 HD 
HETATM   30  C   UNL     1     -10.904  12.778  68.652  1.00  0.00    -0.253 C  
HETATM   31  H   UNL     1     -12.831  10.016  70.931  1.00  0.00     0.000 HD 
HETATM   32  O   UNL     1     -11.322  10.380  68.994  1.00  0.00    -0.242 OA 
BRANCH  23  33
HETATM   33  C   UNL     1     -12.985  13.599  72.373  1.00  0.00    -0.316 C  
HETATM   34  O   UNL     1     -14.388  13.833  72.566  1.00  0.00    -0.696 OA 
HETATM   35  H   UNL     1     -14.554  14.009  73.484  1.00  0.00     0.000 HD 
ENDBRANCH  23  33
ENDBRANCH  19  21
ENDBRANCH  13  14
ENDBRANCH  10  13
ENDBRANCH   6   7
ENDBRANCH   1   6
TORSDOF 6
ENDMDL
MODEL      181
REMARK 921   NORMALIZED FREE ENERGY PREDICTED BY IDOCK:   -5.22 KCAL/MOL
REMARK 922        TOTAL FREE ENERGY PREDICTED BY IDOCK:   -8.02 KCAL/MOL
REMARK 923 INTER-LIGAND FREE ENERGY PREDICTED BY IDOCK:   -7.00 KCAL/MOL
REMARK 924 INTRA-LIGAND FREE ENERGY PREDICTED BY IDOCK:   -1.02 KCAL/MOL
REMARK 927      BINDING AFFINITY PREDICTED BY RF-SCORE:    0.00 PKD
ROOT
HETATM    1  C   UNL     1      -6.537   7.721  65.161  1.00  0.00    -0.047 C  
HETATM    2  C   UNL     1      -5.164   8.179  64.701  1.00  0.00    -0.036 C  
HETATM    3  O   UNL     1      -5.925   6.632  63.110  1.00  0.00    -0.033 OA 
HETATM    4  C   UNL     1      -5.174   7.844  63.234  1.00  0.00    -0.049 C  
HETATM    5  C   UNL     1      -6.753   6.494  64.280  1.00  0.00    -0.038 C  
ENDROOT
BRANCH   1   6
HETATM    6  O   UNL     1      -6.450   7.423  66.550  1.00  0.00    -0.049 OA 
BRANCH   6   7
HETATM    7  C   UNL     1      -7.581   7.494  67.310  1.00  0.00    -0.108 A  
HETATM    8  C   UNL     1      -9.962   7.450  67.741  1.00  0.00    -0.208 A  
HETATM    9  C   UNL     1      -8.888   7.477  66.835  1.00  0.00    -0.145 A  
HETATM   10  C   UNL     1      -9.741   7.439  69.129  1.00  0.00    -0.165 A  
HETATM   11  C   UNL     1      -7.355   7.500  68.687  1.00  0.00    -0.095 A  
HETATM   12  C   UNL     1      -8.421   7.482  69.590  1.00  0.00    -0.135 A  
BRANCH  10  13
HETATM   13  C   UNL     1     -10.893   7.299  70.110  1.00  0.00    -0.274 C  
BRANCH  13  14
HETATM   14  C   UNL     1     -11.469   8.639  70.525  1.00  0.00    -0.208 A  
HETATM   15  C   UNL     1     -12.583   8.785  71.362  1.00  0.00    -0.294 A  
HETATM   16 CL   UNL     1     -13.356   7.440  72.119  1.00  0.00    -0.127 Cl 
HETATM   17  C   UNL     1     -13.138  10.050  71.587  1.00  0.00    -0.547 A  
HETATM   18  C   UNL     1     -12.638  11.169  70.917  1.00  0.00    -0.483 A  
HETATM   19  C   UNL     1     -11.558  11.046  70.035  1.00  0.00    -0.427 A  
HETATM   20  C   UNL     1     -10.933   9.793  69.923  1.00  0.00    -0.299 A  
BRANCH  19  21
HETATM   21  C   UNL     1     -11.228  12.179  69.072  1.00  0.00    -0.260 C  
HETATM   22  O   UNL     1     -11.359  13.425  69.783  1.00  0.00    -0.195 OA 
HETATM   23  C   UNL     1     -10.816  14.539  69.067  1.00  0.00    -0.254 C  
HETATM   24  H   UNL     1     -12.294  11.040  66.169  1.00  0.00     0.000 HD 
HETATM   25  C   UNL     1     -11.594  14.739  67.766  1.00  0.00    -0.357 C  
HETATM   26  O   UNL     1     -11.809  11.016  66.986  1.00  0.00    -0.322 OA 
HETATM   27  C   UNL     1     -11.547  13.449  66.934  1.00  0.00    -0.365 C  
HETATM   28  O   UNL     1     -11.075  15.817  66.981  1.00  0.00    -0.270 OA 
HETATM   29  H   UNL     1     -12.304  12.823  65.234  1.00  0.00     0.000 HD 
HETATM   30  C   UNL     1     -12.018  12.218  67.742  1.00  0.00    -0.159 C  
HETATM   31  H   UNL     1     -11.559  15.941  66.172  1.00  0.00     0.000 HD 
HETATM   32  O   UNL     1     -12.333  13.621  65.749  1.00  0.00    -0.433 OA 
BRANCH  23  33
HETATM   33  C   UNL     1     -10.903  15.769  69.978  1.00  0.00    -0.342 C  
HETATM   34  O   UNL     1     -10.236  16.873  69.350  1.00  0.00    -0.272 OA 
HETATM   35  H   UNL     1     -10.289  17.635  69.914  1.00  0.00     0.000 HD 
ENDBRANCH  23  33
ENDBRANCH  19  21
ENDBRANCH  13  14
ENDBRANCH  10  13
ENDBRANCH   6   7
ENDBRANCH   1   6
TORSDOF 6
ENDMDL
MODEL      182
REMARK 921   NORMALIZED FREE ENERGY PREDICTED BY IDOCK:   -5.18 KCAL/MOL
REMARK 922        TOTAL FREE ENERGY PREDICTED BY IDOCK:   -7.96 KCAL/MOL
REMARK 923 INTER-LIGAND FREE ENERGY PREDICTED BY IDOCK:   -7.83 KCAL/MOL
REMARK 924 INTRA-LIGAND FREE ENERGY PREDICTED BY IDOCK:   -0.14 KCAL/MOL
REMARK 927      BINDING AFFINITY PREDICTED BY RF-SCORE:    0.00 PKD
ROOT
HETATM    1  C   UNL     1      -9.573  19.619  67.617  1.00  0.00    -0.346 C  
HETATM    2  C   UNL     1      -8.726  19.612  66.358  1.00  0.00    -0.404 C  
HETATM    3  O   UNL     1     -10.929  20.052  65.683  1.00  0.00    -0.305 OA 
HETATM    4  C   UNL     1      -9.571  20.386  65.381  1.00  0.00     0.514 C  
HETATM    5  C   UNL     1     -10.981  19.548  67.031  1.00  0.00    -0.330 C  
ENDROOT
BRANCH   1   6
HETATM    6  O   UNL     1      -9.214  18.477  68.387  1.00  0.00    -0.306 OA 
BRANCH   6   7
HETATM    7  C   UNL     1      -9.914  17.319  68.212  1.00  0.00    -0.313 A  
HETATM    8  C   UNL     1     -11.557  15.625  68.750  1.00  0.00    -0.393 A  
HETATM    9  C   UNL     1     -10.828  16.772  69.107  1.00  0.00    -0.287 A  
HETATM   10  C   UNL     1     -11.382  15.015  67.496  1.00  0.00    -0.340 A  
HETATM   11  C   UNL     1      -9.724  16.708  66.972  1.00  0.00    -0.253 A  
HETATM   12  C   UNL     1     -10.441  15.562  66.618  1.00  0.00    -0.299 A  
BRANCH  10  13
HETATM   13  C   UNL     1     -12.246  13.842  67.062  1.00  0.00    -0.381 C  
BRANCH  13  14
HETATM   14  C   UNL     1     -11.427  12.612  66.723  1.00  0.00    -0.410 A  
HETATM   15  C   UNL     1     -11.233  12.138  65.418  1.00  0.00    -0.333 A  
HETATM   16 CL   UNL     1     -11.814  12.983  64.029  1.00  0.00    -0.471 Cl 
HETATM   17  C   UNL     1     -10.582  10.919  65.198  1.00  0.00    -0.268 A  
HETATM   18  C   UNL     1     -10.187  10.125  66.277  1.00  0.00    -0.288 A  
HETATM   19  C   UNL     1     -10.413  10.548  67.592  1.00  0.00    -0.276 A  
HETATM   20  C   UNL     1     -10.950  11.830  67.792  1.00  0.00    -0.277 A  
BRANCH  19  21
HETATM   21  C   UNL     1     -10.288   9.559  68.743  1.00  0.00    -0.208 C  
HETATM   22  O   UNL     1     -10.012   8.258  68.189  1.00  0.00    -0.177 OA 
HETATM   23  C   UNL     1      -9.607   7.302  69.175  1.00  0.00    -0.155 C  
HETATM   24  H   UNL     1     -12.407  10.726  70.979  1.00  0.00     0.000 HD 
HETATM   25  C   UNL     1     -10.746   7.079  70.168  1.00  0.00    -0.240 C  
HETATM   26  O   UNL     1     -11.682  10.766  70.367  1.00  0.00    -0.302 OA 
HETATM   27  C   UNL     1     -11.147   8.418  70.804  1.00  0.00    -0.258 C  
HETATM   28  O   UNL     1     -10.392   6.160  71.206  1.00  0.00    -0.205 OA 
HETATM   29  H   UNL     1     -12.508   9.040  72.075  1.00  0.00     0.000 HD 
HETATM   30  C   UNL     1     -11.469   9.493  69.740  1.00  0.00    -0.010 C  
HETATM   31  H   UNL     1     -11.101   6.021  71.824  1.00  0.00     0.000 HD 
HETATM   32  O   UNL     1     -12.260   8.212  71.682  1.00  0.00    -0.286 OA 
BRANCH  23  33
HETATM   33  C   UNL     1      -9.223   6.010  68.445  1.00  0.00    -0.114 C  
HETATM   34  O   UNL     1      -8.613   6.337  67.188  1.00  0.00    -0.108 OA 
HETATM   35  H   UNL     1      -8.376   5.536  66.736  1.00  0.00     0.000 HD 
ENDBRANCH  23  33
ENDBRANCH  19  21
ENDBRANCH  13  14
ENDBRANCH  10  13
ENDBRANCH   6   7
ENDBRANCH   1   6
TORSDOF 6
ENDMDL
MODEL      183
REMARK 921   NORMALIZED FREE ENERGY PREDICTED BY IDOCK:   -5.17 KCAL/MOL
REMARK 922        TOTAL FREE ENERGY PREDICTED BY IDOCK:   -7.95 KCAL/MOL
REMARK 923 INTER-LIGAND FREE ENERGY PREDICTED BY IDOCK:   -7.07 KCAL/MOL
REMARK 924 INTRA-LIGAND FREE ENERGY PREDICTED BY IDOCK:   -0.88 KCAL/MOL
REMARK 927      BINDING AFFINITY PREDICTED BY RF-SCORE:    0.00 PKD
ROOT
HETATM    1  C   UNL     1     -10.386  17.306  66.732  1.00  0.00    -0.308 C  
HETATM    2  C   UNL     1      -9.806  18.560  67.362  1.00  0.00    -0.330 C  
HETATM    3  O   UNL     1      -8.234  17.808  65.791  1.00  0.00    -0.538 OA 
HETATM    4  C   UNL     1      -8.789  19.005  66.346  1.00  0.00    -0.321 C  
HETATM    5  C   UNL     1      -9.160  16.731  66.028  1.00  0.00    -0.190 C  
ENDROOT
BRANCH   1   6
HETATM    6  O   UNL     1     -10.884  16.485  67.782  1.00  0.00    -0.341 OA 
BRANCH   6   7
HETATM    7  C   UNL     1     -10.765  15.131  67.670  1.00  0.00    -0.285 A  
HETATM    8  C   UNL     1      -9.911  12.932  68.213  1.00  0.00    -0.234 A  
HETATM    9  C   UNL     1      -9.850  14.330  68.346  1.00  0.00    -0.233 A  
HETATM   10  C   UNL     1     -10.886  12.320  67.406  1.00  0.00    -0.277 A  
HETATM   11  C   UNL     1     -11.725  14.530  66.854  1.00  0.00    -0.399 A  
HETATM   12  C   UNL     1     -11.782  13.141  66.713  1.00  0.00    -0.439 A  
BRANCH  10  13
HETATM   13  C   UNL     1     -11.025  10.808  67.346  1.00  0.00    -0.361 C  
BRANCH  13  14
HETATM   14  C   UNL     1      -9.731  10.092  67.678  1.00  0.00    -0.185 A  
HETATM   15  C   UNL     1      -8.622  10.046  66.823  1.00  0.00    -0.125 A  
HETATM   16 CL   UNL     1      -8.566  10.912  65.330  1.00  0.00    -0.145 Cl 
HETATM   17  C   UNL     1      -7.516   9.249  67.140  1.00  0.00    -0.091 A  
HETATM   18  C   UNL     1      -7.538   8.431  68.272  1.00  0.00    -0.098 A  
HETATM   19  C   UNL     1      -8.652   8.418  69.119  1.00  0.00    -0.134 A  
HETATM   20  C   UNL     1      -9.696   9.319  68.854  1.00  0.00    -0.164 A  
BRANCH  19  21
HETATM   21  C   UNL     1      -8.814   7.308  70.149  1.00  0.00    -0.145 C  
HETATM   22  O   UNL     1      -9.256   6.120  69.464  1.00  0.00    -0.137 OA 
HETATM   23  C   UNL     1      -9.184   4.944  70.276  1.00  0.00    -0.137 C  
HETATM   24  H   UNL     1      -9.778   8.921  72.856  1.00  0.00     0.000 HD 
HETATM   25  C   UNL     1     -10.126   5.089  71.470  1.00  0.00    -0.196 C  
HETATM   26  O   UNL     1      -9.223   8.735  72.108  1.00  0.00    -0.305 OA 
HETATM   27  C   UNL     1      -9.762   6.353  72.264  1.00  0.00    -0.150 C  
HETATM   28  O   UNL     1     -10.073   3.959  72.347  1.00  0.00    -0.159 OA 
HETATM   29  H   UNL     1     -10.465   7.300  73.833  1.00  0.00     0.000 HD 
HETATM   30  C   UNL     1      -9.719   7.611  71.367  1.00  0.00    -0.163 C  
HETATM   31  H   UNL     1     -10.658   4.049  73.090  1.00  0.00     0.000 HD 
HETATM   32  O   UNL     1     -10.690   6.519  73.342  1.00  0.00    -0.266 OA 
BRANCH  23  33
HETATM   33  C   UNL     1      -9.557   3.745  69.398  1.00  0.00    -0.149 C  
HETATM   34  O   UNL     1      -9.931   4.209  68.092  1.00  0.00    -0.067 OA 
HETATM   35  H   UNL     1     -10.162   3.466  67.548  1.00  0.00     0.000 HD 
ENDBRANCH  23  33
ENDBRANCH  19  21
ENDBRANCH  13  14
ENDBRANCH  10  13
ENDBRANCH   6   7
ENDBRANCH   1   6
TORSDOF 6
ENDMDL
MODEL      184
REMARK 921   NORMALIZED FREE ENERGY PREDICTED BY IDOCK:   -5.12 KCAL/MOL
REMARK 922        TOTAL FREE ENERGY PREDICTED BY IDOCK:   -7.88 KCAL/MOL
REMARK 923 INTER-LIGAND FREE ENERGY PREDICTED BY IDOCK:   -6.54 KCAL/MOL
REMARK 924 INTRA-LIGAND FREE ENERGY PREDICTED BY IDOCK:   -1.34 KCAL/MOL
REMARK 927      BINDING AFFINITY PREDICTED BY RF-SCORE:    0.00 PKD
ROOT
HETATM    1  C   UNL     1     -10.083   5.912  69.496  1.00  0.00    -0.203 C  
HETATM    2  C   UNL     1     -11.064   6.522  70.480  1.00  0.00    -0.375 C  
HETATM    3  O   UNL     1     -10.365   4.483  71.405  1.00  0.00    -0.152 OA 
HETATM    4  C   UNL     1     -10.728   5.818  71.768  1.00  0.00    -0.249 C  
HETATM    5  C   UNL     1      -9.992   4.479  70.014  1.00  0.00    -0.210 C  
ENDROOT
BRANCH   1   6
HETATM    6  O   UNL     1     -10.654   6.017  68.196  1.00  0.00    -0.211 OA 
BRANCH   6   7
HETATM    7  C   UNL     1     -10.370   7.117  67.441  1.00  0.00    -0.254 A  
HETATM    8  C   UNL     1     -10.438   9.458  66.830  1.00  0.00    -0.265 A  
HETATM    9  C   UNL     1     -10.901   8.391  67.618  1.00  0.00    -0.078 A  
HETATM   10  C   UNL     1      -9.441   9.265  65.858  1.00  0.00    -0.325 A  
HETATM   11  C   UNL     1      -9.392   6.915  66.466  1.00  0.00    -0.197 A  
HETATM   12  C   UNL     1      -8.937   7.973  65.675  1.00  0.00    -0.102 A  
BRANCH  10  13
HETATM   13  C   UNL     1      -8.859  10.434  65.080  1.00  0.00    -0.207 C  
BRANCH  13  14
HETATM   14  C   UNL     1      -8.102  11.403  65.968  1.00  0.00     0.053 A  
HETATM   15  C   UNL     1      -6.811  11.166  66.458  1.00  0.00    -0.126 A  
HETATM   16 CL   UNL     1      -5.884   9.784  65.999  1.00  0.00    -0.060 Cl 
HETATM   17  C   UNL     1      -6.234  12.043  67.384  1.00  0.00    -0.136 A  
HETATM   18  C   UNL     1      -6.968  13.119  67.888  1.00  0.00    -0.132 A  
HETATM   19  C   UNL     1      -8.279  13.351  67.456  1.00  0.00    -0.186 A  
HETATM   20  C   UNL     1      -8.793  12.538  66.433  1.00  0.00    -0.018 A  
BRANCH  19  21
HETATM   21  C   UNL     1      -9.180  14.304  68.230  1.00  0.00    -0.197 C  
HETATM   22  O   UNL     1     -10.304  13.554  68.729  1.00  0.00    -0.226 OA 
HETATM   23  C   UNL     1     -11.076  14.275  69.694  1.00  0.00    -0.175 C  
HETATM   24  H   UNL     1      -8.825  17.157  66.620  1.00  0.00     0.000 HD 
HETATM   25  C   UNL     1     -11.684  15.515  69.039  1.00  0.00    -0.377 C  
HETATM   26  O   UNL     1      -8.535  16.376  67.076  1.00  0.00    -0.172 OA 
HETATM   27  C   UNL     1     -10.567  16.382  68.439  1.00  0.00    -0.311 C  
HETATM   28  O   UNL     1     -12.440  16.305  69.963  1.00  0.00    -0.353 OA 
HETATM   29  H   UNL     1     -10.457  18.042  67.398  1.00  0.00     0.000 HD 
HETATM   30  C   UNL     1      -9.653  15.576  67.487  1.00  0.00    -0.212 C  
HETATM   31  H   UNL     1     -12.818  17.076  69.555  1.00  0.00     0.000 HD 
HETATM   32  O   UNL     1     -11.148  17.506  67.769  1.00  0.00    -0.235 OA 
BRANCH  23  33
HETATM   33  C   UNL     1     -12.154  13.329  70.234  1.00  0.00    -0.335 C  
HETATM   34  O   UNL     1     -11.584  12.028  70.439  1.00  0.00    -0.519 OA 
HETATM   35  H   UNL     1     -12.252  11.441  70.774  1.00  0.00     0.000 HD 
ENDBRANCH  23  33
ENDBRANCH  19  21
ENDBRANCH  13  14
ENDBRANCH  10  13
ENDBRANCH   6   7
ENDBRANCH   1   6
TORSDOF 6
ENDMDL
MODEL      185
REMARK 921   NORMALIZED FREE ENERGY PREDICTED BY IDOCK:   -5.11 KCAL/MOL
REMARK 922        TOTAL FREE ENERGY PREDICTED BY IDOCK:   -7.86 KCAL/MOL
REMARK 923 INTER-LIGAND FREE ENERGY PREDICTED BY IDOCK:   -7.09 KCAL/MOL
REMARK 924 INTRA-LIGAND FREE ENERGY PREDICTED BY IDOCK:   -0.78 KCAL/MOL
REMARK 927      BINDING AFFINITY PREDICTED BY RF-SCORE:    0.00 PKD
ROOT
HETATM    1  C   UNL     1      -7.302   9.195  65.146  1.00  0.00    -0.096 C  
HETATM    2  C   UNL     1      -6.183   8.216  64.840  1.00  0.00    -0.049 C  
HETATM    3  O   UNL     1      -6.879   9.106  62.784  1.00  0.00    -0.094 OA 
HETATM    4  C   UNL     1      -5.712   8.662  63.481  1.00  0.00    -0.072 C  
HETATM    5  C   UNL     1      -7.895   9.417  63.757  1.00  0.00    -0.132 C  
ENDROOT
BRANCH   1   6
HETATM    6  O   UNL     1      -8.194   8.561  66.057  1.00  0.00    -0.107 OA 
BRANCH   6   7
HETATM    7  C   UNL     1      -8.995   9.338  66.840  1.00  0.00    -0.130 A  
HETATM    8  C   UNL     1     -10.988  10.588  67.413  1.00  0.00    -0.352 A  
HETATM    9  C   UNL     1     -10.215   9.894  66.466  1.00  0.00    -0.292 A  
HETATM   10  C   UNL     1     -10.551  10.734  68.741  1.00  0.00    -0.229 A  
HETATM   11  C   UNL     1      -8.549   9.493  68.153  1.00  0.00    -0.120 A  
HETATM   12  C   UNL     1      -9.311  10.191  69.094  1.00  0.00    -0.205 A  
BRANCH  10  13
HETATM   13  C   UNL     1     -11.431  11.387  69.794  1.00  0.00    -0.376 C  
BRANCH  13  14
HETATM   14  C   UNL     1     -12.211  10.373  70.609  1.00  0.00    -0.441 A  
HETATM   15  C   UNL     1     -13.081  10.714  71.654  1.00  0.00    -0.450 A  
HETATM   16 CL   UNL     1     -13.455  12.352  72.051  1.00  0.00    -0.551 Cl 
HETATM   17  C   UNL     1     -13.656   9.717  72.449  1.00  0.00    -0.397 A  
HETATM   18  C   UNL     1     -13.309   8.376  72.260  1.00  0.00    -0.298 A  
HETATM   19  C   UNL     1     -12.404   8.010  71.258  1.00  0.00    -0.290 A  
HETATM   20  C   UNL     1     -11.938   9.010  70.389  1.00  0.00     0.054 A  
BRANCH  19  21
HETATM   21  C   UNL     1     -11.782   6.620  71.263  1.00  0.00    -0.334 C  
HETATM   22  O   UNL     1     -11.216   6.386  72.567  1.00  0.00    -0.253 OA 
HETATM   23  C   UNL     1     -10.844   5.021  72.781  1.00  0.00    -0.244 C  
HETATM   24  H   UNL     1     -10.708   6.258  68.169  1.00  0.00     0.000 HD 
HETATM   25  C   UNL     1      -9.745   4.630  71.794  1.00  0.00    -0.169 C  
HETATM   26  O   UNL     1     -11.341   6.448  68.851  1.00  0.00    -0.341 OA 
HETATM   27  C   UNL     1     -10.233   4.869  70.357  1.00  0.00    -0.222 C  
HETATM   28  O   UNL     1      -9.353   3.260  71.929  1.00  0.00    -0.109 OA 
HETATM   29  H   UNL     1      -9.476   4.713  68.553  1.00  0.00     0.000 HD 
HETATM   30  C   UNL     1     -10.751   6.311  70.152  1.00  0.00    -0.286 C  
HETATM   31  H   UNL     1      -8.670   3.017  71.314  1.00  0.00     0.000 HD 
HETATM   32  O   UNL     1      -9.175   4.565  69.441  1.00  0.00    -0.106 OA 
BRANCH  23  33
HETATM   33  C   UNL     1     -10.380   4.883  74.235  1.00  0.00    -0.275 C  
HETATM   34  O   UNL     1      -9.178   5.643  74.424  1.00  0.00    -0.121 OA 
HETATM   35  H   UNL     1      -8.890   5.558  75.325  1.00  0.00     0.000 HD 
ENDBRANCH  23  33
ENDBRANCH  19  21
ENDBRANCH  13  14
ENDBRANCH  10  13
ENDBRANCH   6   7
ENDBRANCH   1   6
TORSDOF 6
ENDMDL
MODEL      186
REMARK 921   NORMALIZED FREE ENERGY PREDICTED BY IDOCK:   -5.10 KCAL/MOL
REMARK 922        TOTAL FREE ENERGY PREDICTED BY IDOCK:   -7.85 KCAL/MOL
REMARK 923 INTER-LIGAND FREE ENERGY PREDICTED BY IDOCK:   -7.06 KCAL/MOL
REMARK 924 INTRA-LIGAND FREE ENERGY PREDICTED BY IDOCK:   -0.79 KCAL/MOL
REMARK 927      BINDING AFFINITY PREDICTED BY RF-SCORE:    0.00 PKD
ROOT
HETATM    1  C   UNL     1     -10.004   8.393  72.244  1.00  0.00    -0.313 C  
HETATM    2  C   UNL     1     -10.706   8.890  70.994  1.00  0.00    -0.315 C  
HETATM    3  O   UNL     1     -12.381   8.460  72.578  1.00  0.00    -0.376 OA 
HETATM    4  C   UNL     1     -12.035   9.359  71.521  1.00  0.00    -0.382 C  
HETATM    5  C   UNL     1     -11.176   7.819  73.037  1.00  0.00    -0.321 C  
ENDROOT
BRANCH   1   6
HETATM    6  O   UNL     1      -9.048   7.416  71.844  1.00  0.00    -0.129 OA 
BRANCH   6   7
HETATM    7  C   UNL     1      -8.432   7.556  70.635  1.00  0.00    -0.132 A  
HETATM    8  C   UNL     1      -8.045   7.120  68.286  1.00  0.00    -0.124 A  
HETATM    9  C   UNL     1      -8.680   6.796  69.497  1.00  0.00    -0.133 A  
HETATM   10  C   UNL     1      -7.157   8.207  68.200  1.00  0.00    -0.082 A  
HETATM   11  C   UNL     1      -7.539   8.626  70.560  1.00  0.00    -0.077 A  
HETATM   12  C   UNL     1      -6.899   8.945  69.359  1.00  0.00    -0.049 A  
BRANCH  10  13
HETATM   13  C   UNL     1      -6.553   8.628  66.870  1.00  0.00    -0.061 C  
BRANCH  13  14
HETATM   14  C   UNL     1      -7.604   9.067  65.869  1.00  0.00    -0.094 A  
HETATM   15  C   UNL     1      -7.714   8.546  64.573  1.00  0.00    -0.126 A  
HETATM   16 CL   UNL     1      -6.728   7.244  64.011  1.00  0.00    -0.047 Cl 
HETATM   17  C   UNL     1      -8.619   9.100  63.661  1.00  0.00    -0.180 A  
HETATM   18  C   UNL     1      -9.367  10.228  64.007  1.00  0.00    -0.337 A  
HETATM   19  C   UNL     1      -9.242  10.802  65.277  1.00  0.00    -0.233 A  
HETATM   20  C   UNL     1      -8.425  10.156  66.219  1.00  0.00    -0.132 A  
BRANCH  19  21
HETATM   21  C   UNL     1      -9.795  12.196  65.541  1.00  0.00    -0.221 C  
HETATM   22  O   UNL     1      -9.468  12.559  66.897  1.00  0.00    -0.206 OA 
HETATM   23  C   UNL     1      -9.695  13.944  67.178  1.00  0.00    -0.244 C  
HETATM   24  H   UNL     1     -12.533  12.285  63.711  1.00  0.00     0.000 HD 
HETATM   25  C   UNL     1     -11.183  14.259  67.028  1.00  0.00    -0.323 C  
HETATM   26  O   UNL     1     -11.609  12.150  63.884  1.00  0.00    -0.379 OA 
HETATM   27  C   UNL     1     -11.652  13.879  65.615  1.00  0.00    -0.333 C  
HETATM   28  O   UNL     1     -11.474  15.641  67.258  1.00  0.00    -0.201 OA 
HETATM   29  H   UNL     1     -13.350  13.878  64.631  1.00  0.00     0.000 HD 
HETATM   30  C   UNL     1     -11.300  12.416  65.260  1.00  0.00    -0.332 C  
HETATM   31  H   UNL     1     -12.400  15.837  67.164  1.00  0.00     0.000 HD 
HETATM   32  O   UNL     1     -13.061  14.113  65.505  1.00  0.00    -0.691 OA 
BRANCH  23  33
HETATM   33  C   UNL     1      -9.193  14.224  68.598  1.00  0.00    -0.167 C  
HETATM   34  O   UNL     1      -8.016  13.441  68.848  1.00  0.00    -0.321 OA 
HETATM   35  H   UNL     1      -7.704  13.614  69.729  1.00  0.00     0.000 HD 
ENDBRANCH  23  33
ENDBRANCH  19  21
ENDBRANCH  13  14
ENDBRANCH  10  13
ENDBRANCH   6   7
ENDBRANCH   1   6
TORSDOF 6
ENDMDL
MODEL      187
REMARK 921   NORMALIZED FREE ENERGY PREDICTED BY IDOCK:   -5.09 KCAL/MOL
REMARK 922        TOTAL FREE ENERGY PREDICTED BY IDOCK:   -7.84 KCAL/MOL
REMARK 923 INTER-LIGAND FREE ENERGY PREDICTED BY IDOCK:   -7.67 KCAL/MOL
REMARK 924 INTRA-LIGAND FREE ENERGY PREDICTED BY IDOCK:   -0.18 KCAL/MOL
REMARK 927      BINDING AFFINITY PREDICTED BY RF-SCORE:    0.00 PKD
ROOT
HETATM    1  C   UNL     1      -6.872  18.243  67.540  1.00  0.00    -0.198 C  
HETATM    2  C   UNL     1      -7.654  18.988  66.474  1.00  0.00    -0.264 C  
HETATM    3  O   UNL     1      -8.798  19.310  68.497  1.00  0.00    -0.348 OA 
HETATM    4  C   UNL     1      -8.456  19.977  67.278  1.00  0.00    -0.334 C  
HETATM    5  C   UNL     1      -7.877  18.220  68.688  1.00  0.00    -0.296 C  
ENDROOT
BRANCH   1   6
HETATM    6  O   UNL     1      -6.560  16.953  67.024  1.00  0.00    -0.166 OA 
BRANCH   6   7
HETATM    7  C   UNL     1      -7.552  16.021  66.940  1.00  0.00    -0.233 A  
HETATM    8  C   UNL     1      -8.839  14.091  67.632  1.00  0.00    -0.190 A  
HETATM    9  C   UNL     1      -7.706  14.912  67.766  1.00  0.00    -0.174 A  
HETATM   10  C   UNL     1      -9.828  14.368  66.673  1.00  0.00    -0.287 A  
HETATM   11  C   UNL     1      -8.523  16.292  65.975  1.00  0.00    -0.185 A  
HETATM   12  C   UNL     1      -9.645  15.472  65.834  1.00  0.00    -0.383 A  
BRANCH  10  13
HETATM   13  C   UNL     1     -11.106  13.549  66.597  1.00  0.00    -0.309 C  
BRANCH  13  14
HETATM   14  C   UNL     1     -11.248  12.586  67.761  1.00  0.00    -0.318 A  
HETATM   15  C   UNL     1     -11.759  12.947  69.015  1.00  0.00    -0.327 A  
HETATM   16 CL   UNL     1     -12.402  14.517  69.337  1.00  0.00    -0.271 Cl 
HETATM   17  C   UNL     1     -11.729  12.039  70.079  1.00  0.00    -0.346 A  
HETATM   18  C   UNL     1     -11.120  10.792  69.925  1.00  0.00    -0.339 A  
HETATM   19  C   UNL     1     -10.555  10.423  68.698  1.00  0.00    -0.234 A  
HETATM   20  C   UNL     1     -10.709  11.295  67.608  1.00  0.00    -0.270 A  
BRANCH  19  21
HETATM   21  C   UNL     1      -9.618   9.225  68.620  1.00  0.00    -0.147 C  
HETATM   22  O   UNL     1     -10.295   8.171  67.907  1.00  0.00    -0.210 OA 
HETATM   23  C   UNL     1      -9.425   7.097  67.535  1.00  0.00    -0.124 C  
HETATM   24  H   UNL     1      -7.924   9.403  71.440  1.00  0.00     0.000 HD 
HETATM   25  C   UNL     1      -8.866   6.433  68.792  1.00  0.00    -0.124 C  
HETATM   26  O   UNL     1      -8.280   9.723  70.620  1.00  0.00    -0.246 OA 
HETATM   27  C   UNL     1      -8.142   7.480  69.651  1.00  0.00    -0.127 C  
HETATM   28  O   UNL     1      -7.955   5.371  68.489  1.00  0.00    -0.090 OA 
HETATM   29  H   UNL     1      -7.232   7.513  71.390  1.00  0.00     0.000 HD 
HETATM   30  C   UNL     1      -9.038   8.702  69.956  1.00  0.00    -0.156 C  
HETATM   31  H   UNL     1      -7.607   4.958  69.271  1.00  0.00     0.000 HD 
HETATM   32  O   UNL     1      -7.679   6.865  70.859  1.00  0.00    -0.090 OA 
BRANCH  23  33
HETATM   33  C   UNL     1     -10.234   6.114  66.681  1.00  0.00    -0.178 C  
HETATM   34  O   UNL     1     -11.632   6.403  66.820  1.00  0.00    -0.700 OA 
HETATM   35  H   UNL     1     -12.134   5.794  66.291  1.00  0.00     0.000 HD 
ENDBRANCH  23  33
ENDBRANCH  19  21
ENDBRANCH  13  14
ENDBRANCH  10  13
ENDBRANCH   6   7
ENDBRANCH   1   6
TORSDOF 6
ENDMDL
MODEL      188
REMARK 921   NORMALIZED FREE ENERGY PREDICTED BY IDOCK:   -5.09 KCAL/MOL
REMARK 922        TOTAL FREE ENERGY PREDICTED BY IDOCK:   -7.84 KCAL/MOL
REMARK 923 INTER-LIGAND FREE ENERGY PREDICTED BY IDOCK:   -7.25 KCAL/MOL
REMARK 924 INTRA-LIGAND FREE ENERGY PREDICTED BY IDOCK:   -0.59 KCAL/MOL
REMARK 927      BINDING AFFINITY PREDICTED BY RF-SCORE:    0.00 PKD
ROOT
HETATM    1  C   UNL     1      -7.372   8.692  70.800  1.00  0.00    -0.070 C  
HETATM    2  C   UNL     1      -8.415   7.771  71.406  1.00  0.00    -0.125 C  
HETATM    3  O   UNL     1      -7.304   6.533  69.752  1.00  0.00    -0.075 OA 
HETATM    4  C   UNL     1      -7.903   6.402  71.045  1.00  0.00    -0.110 C  
HETATM    5  C   UNL     1      -6.988   7.922  69.540  1.00  0.00    -0.054 C  
ENDROOT
BRANCH   1   6
HETATM    6  O   UNL     1      -7.999   9.943  70.540  1.00  0.00    -0.246 OA 
BRANCH   6   7
HETATM    7  C   UNL     1      -8.537  10.165  69.306  1.00  0.00    -0.174 A  
HETATM    8  C   UNL     1     -10.281  10.200  67.627  1.00  0.00    -0.246 A  
HETATM    9  C   UNL     1      -9.821   9.814  68.898  1.00  0.00    -0.177 A  
HETATM   10  C   UNL     1      -9.465  10.938  66.752  1.00  0.00    -0.200 A  
HETATM   11  C   UNL     1      -7.717  10.883  68.435  1.00  0.00    -0.116 A  
HETATM   12  C   UNL     1      -8.169  11.259  67.168  1.00  0.00    -0.149 A  
BRANCH  10  13
HETATM   13  C   UNL     1      -9.995  11.450  65.423  1.00  0.00    -0.289 C  
BRANCH  13  14
HETATM   14  C   UNL     1     -10.696  12.789  65.555  1.00  0.00    -0.303 A  
HETATM   15  C   UNL     1     -11.664  13.256  64.656  1.00  0.00    -0.364 A  
HETATM   16 CL   UNL     1     -12.259  12.292  63.352  1.00  0.00    -0.634 Cl 
HETATM   17  C   UNL     1     -12.163  14.558  64.766  1.00  0.00    -0.441 A  
HETATM   18  C   UNL     1     -11.644  15.433  65.724  1.00  0.00     0.073 A  
HETATM   19  C   UNL     1     -10.640  15.012  66.603  1.00  0.00    -0.301 A  
HETATM   20  C   UNL     1     -10.245  13.664  66.561  1.00  0.00    -0.284 A  
BRANCH  19  21
HETATM   21  C   UNL     1      -9.855  16.036  67.412  1.00  0.00    -0.236 C  
HETATM   22  O   UNL     1      -9.693  17.217  66.603  1.00  0.00    -0.264 OA 
HETATM   23  C   UNL     1      -9.211  18.343  67.344  1.00  0.00    -0.271 C  
HETATM   24  H   UNL     1      -7.838  14.177  69.237  1.00  0.00     0.000 HD 
HETATM   25  C   UNL     1      -7.816  18.038  67.888  1.00  0.00    -0.235 C  
HETATM   26  O   UNL     1      -8.671  14.460  68.879  1.00  0.00    -0.154 OA 
HETATM   27  C   UNL     1      -7.865  16.767  68.750  1.00  0.00    -0.243 C  
HETATM   28  O   UNL     1      -7.291  19.112  68.675  1.00  0.00    -0.301 OA 
HETATM   29  H   UNL     1      -6.574  15.663  69.734  1.00  0.00     0.000 HD 
HETATM   30  C   UNL     1      -8.498  15.576  67.994  1.00  0.00    -0.143 C  
HETATM   31  H   UNL     1      -6.424  18.922  69.014  1.00  0.00     0.000 HD 
HETATM   32  O   UNL     1      -6.543  16.449  69.201  1.00  0.00    -0.168 OA 
BRANCH  23  33
HETATM   33  C   UNL     1      -9.205  19.554  66.405  1.00  0.00    -0.371 C  
HETATM   34  O   UNL     1      -9.192  20.759  67.184  1.00  0.00    -0.577 OA 
HETATM   35  H   UNL     1      -9.188  21.510  66.602  1.00  0.00     0.000 HD 
ENDBRANCH  23  33
ENDBRANCH  19  21
ENDBRANCH  13  14
ENDBRANCH  10  13
ENDBRANCH   6   7
ENDBRANCH   1   6
TORSDOF 6
ENDMDL
MODEL      189
REMARK 921   NORMALIZED FREE ENERGY PREDICTED BY IDOCK:   -5.09 KCAL/MOL
REMARK 922        TOTAL FREE ENERGY PREDICTED BY IDOCK:   -7.84 KCAL/MOL
REMARK 923 INTER-LIGAND FREE ENERGY PREDICTED BY IDOCK:   -6.86 KCAL/MOL
REMARK 924 INTRA-LIGAND FREE ENERGY PREDICTED BY IDOCK:   -0.98 KCAL/MOL
REMARK 927      BINDING AFFINITY PREDICTED BY RF-SCORE:    0.00 PKD
ROOT
HETATM    1  C   UNL     1      -7.602  17.682  68.273  1.00  0.00    -0.257 C  
HETATM    2  C   UNL     1      -7.713  18.067  66.809  1.00  0.00    -0.252 C  
HETATM    3  O   UNL     1      -6.398  19.714  67.840  1.00  0.00    -0.207 OA 
HETATM    4  C   UNL     1      -6.537  18.987  66.615  1.00  0.00    -0.191 C  
HETATM    5  C   UNL     1      -7.060  18.972  68.882  1.00  0.00    -0.328 C  
ENDROOT
BRANCH   1   6
HETATM    6  O   UNL     1      -8.906  17.335  68.728  1.00  0.00    -0.276 OA 
BRANCH   6   7
HETATM    7  C   UNL     1      -9.466  16.170  68.293  1.00  0.00    -0.208 A  
HETATM    8  C   UNL     1      -9.590  13.783  67.910  1.00  0.00    -0.222 A  
HETATM    9  C   UNL     1      -8.856  14.919  68.290  1.00  0.00    -0.172 A  
HETATM   10  C   UNL     1     -10.940  13.883  67.530  1.00  0.00    -0.288 A  
HETATM   11  C   UNL     1     -10.801  16.279  67.901  1.00  0.00    -0.330 A  
HETATM   12  C   UNL     1     -11.530  15.151  67.514  1.00  0.00    -0.306 A  
BRANCH  10  13
HETATM   13  C   UNL     1     -11.768  12.647  67.225  1.00  0.00    -0.435 C  
BRANCH  13  14
HETATM   14  C   UNL     1     -11.509  11.518  68.204  1.00  0.00    -0.385 A  
HETATM   15  C   UNL     1     -11.679  11.632  69.590  1.00  0.00    -0.350 A  
HETATM   16 CL   UNL     1     -12.327  13.050  70.331  1.00  0.00    -0.385 Cl 
HETATM   17  C   UNL     1     -11.286  10.591  70.439  1.00  0.00    -0.411 A  
HETATM   18  C   UNL     1     -10.649   9.461  69.921  1.00  0.00    -0.258 A  
HETATM   19  C   UNL     1     -10.418   9.342  68.546  1.00  0.00    -0.240 A  
HETATM   20  C   UNL     1     -10.935  10.336  67.699  1.00  0.00    -0.356 A  
BRANCH  19  21
HETATM   21  C   UNL     1      -9.450   8.289  68.024  1.00  0.00    -0.140 C  
HETATM   22  O   UNL     1      -8.963   7.530  69.148  1.00  0.00    -0.136 OA 
HETATM   23  C   UNL     1      -8.260   6.344  68.762  1.00  0.00    -0.121 C  
HETATM   24  H   UNL     1      -8.041   9.770  65.439  1.00  0.00     0.000 HD 
HETATM   25  C   UNL     1      -7.011   6.726  67.969  1.00  0.00    -0.080 C  
HETATM   26  O   UNL     1      -8.761   9.462  65.977  1.00  0.00    -0.139 OA 
HETATM   27  C   UNL     1      -7.412   7.573  66.751  1.00  0.00    -0.093 C  
HETATM   28  O   UNL     1      -6.280   5.581  67.518  1.00  0.00    -0.028 OA 
HETATM   29  H   UNL     1      -6.480   8.507  65.298  1.00  0.00     0.000 HD 
HETATM   30  C   UNL     1      -8.277   8.791  67.149  1.00  0.00    -0.104 C  
HETATM   31  H   UNL     1      -5.504   5.819  67.024  1.00  0.00     0.000 HD 
HETATM   32  O   UNL     1      -6.232   7.983  66.050  1.00  0.00    -0.044 OA 
BRANCH  23  33
HETATM   33  C   UNL     1      -7.911   5.571  70.038  1.00  0.00    -0.082 C  
HETATM   34  O   UNL     1      -6.566   5.883  70.430  1.00  0.00    -0.041 OA 
HETATM   35  H   UNL     1      -6.350   5.404  71.221  1.00  0.00     0.000 HD 
ENDBRANCH  23  33
ENDBRANCH  19  21
ENDBRANCH  13  14
ENDBRANCH  10  13
ENDBRANCH   6   7
ENDBRANCH   1   6
TORSDOF 6
ENDMDL
MODEL      190
REMARK 921   NORMALIZED FREE ENERGY PREDICTED BY IDOCK:   -5.07 KCAL/MOL
REMARK 922        TOTAL FREE ENERGY PREDICTED BY IDOCK:   -7.82 KCAL/MOL
REMARK 923 INTER-LIGAND FREE ENERGY PREDICTED BY IDOCK:   -6.87 KCAL/MOL
REMARK 924 INTRA-LIGAND FREE ENERGY PREDICTED BY IDOCK:   -0.96 KCAL/MOL
REMARK 927      BINDING AFFINITY PREDICTED BY RF-SCORE:    0.00 PKD
ROOT
HETATM    1  C   UNL     1      -9.230   6.440  70.328  1.00  0.00    -0.155 C  
HETATM    2  C   UNL     1     -10.363   6.684  71.308  1.00  0.00    -0.230 C  
HETATM    3  O   UNL     1     -11.333   6.571  69.175  1.00  0.00    -0.320 OA 
HETATM    4  C   UNL     1     -11.574   6.223  70.541  1.00  0.00    -0.287 C  
HETATM    5  C   UNL     1      -9.914   6.746  68.998  1.00  0.00    -0.155 C  
ENDROOT
BRANCH   1   6
HETATM    6  O   UNL     1      -8.176   7.340  70.652  1.00  0.00    -0.114 OA 
BRANCH   6   7
HETATM    7  C   UNL     1      -7.848   8.317  69.758  1.00  0.00    -0.100 A  
HETATM    8  C   UNL     1      -6.946   9.223  67.703  1.00  0.00    -0.078 A  
HETATM    9  C   UNL     1      -7.120   8.143  68.585  1.00  0.00    -0.072 A  
HETATM   10  C   UNL     1      -7.497  10.486  67.982  1.00  0.00    -0.090 A  
HETATM   11  C   UNL     1      -8.383   9.573  70.049  1.00  0.00    -0.192 A  
HETATM   12  C   UNL     1      -8.204  10.650  69.178  1.00  0.00    -0.142 A  
BRANCH  10  13
HETATM   13  C   UNL     1      -7.405  11.625  66.981  1.00  0.00    -0.143 C  
BRANCH  13  14
HETATM   14  C   UNL     1      -8.702  12.404  66.868  1.00  0.00    -0.191 A  
HETATM   15  C   UNL     1      -9.887  11.876  66.338  1.00  0.00    -0.213 A  
HETATM   16 CL   UNL     1     -10.033  10.222  65.863  1.00  0.00    -0.305 Cl 
HETATM   17  C   UNL     1     -11.001  12.698  66.139  1.00  0.00    -0.313 A  
HETATM   18  C   UNL     1     -10.920  14.070  66.392  1.00  0.00    -0.308 A  
HETATM   19  C   UNL     1      -9.733  14.635  66.873  1.00  0.00    -0.249 A  
HETATM   20  C   UNL     1      -8.669  13.774  67.188  1.00  0.00    -0.231 A  
BRANCH  19  21
HETATM   21  C   UNL     1      -9.539  16.145  66.837  1.00  0.00    -0.230 C  
HETATM   22  O   UNL     1      -8.167  16.413  66.486  1.00  0.00    -0.246 OA 
HETATM   23  C   UNL     1      -7.930  17.786  66.156  1.00  0.00    -0.202 C  
HETATM   24  H   UNL     1     -11.589  17.229  69.177  1.00  0.00     0.000 HD 
HETATM   25  C   UNL     1      -8.206  18.659  67.379  1.00  0.00    -0.255 C  
HETATM   26  O   UNL     1     -11.339  16.746  68.399  1.00  0.00    -0.283 OA 
HETATM   27  C   UNL     1      -9.646  18.430  67.863  1.00  0.00    -0.293 C  
HETATM   28  O   UNL     1      -8.025  20.053  67.106  1.00  0.00    -0.290 OA 
HETATM   29  H   UNL     1     -10.766  19.059  69.347  1.00  0.00     0.000 HD 
HETATM   30  C   UNL     1      -9.947  16.933  68.104  1.00  0.00    -0.285 C  
HETATM   31  H   UNL     1      -8.197  20.596  67.866  1.00  0.00     0.000 HD 
HETATM   32  O   UNL     1      -9.876  19.201  69.048  1.00  0.00    -0.410 OA 
BRANCH  23  33
HETATM   33  C   UNL     1      -6.478  17.910  65.683  1.00  0.00    -0.174 C  
HETATM   34  O   UNL     1      -6.310  19.152  64.985  1.00  0.00    -0.309 OA 
HETATM   35  H   UNL     1      -5.410  19.230  64.691  1.00  0.00     0.000 HD 
ENDBRANCH  23  33
ENDBRANCH  19  21
ENDBRANCH  13  14
ENDBRANCH  10  13
ENDBRANCH   6   7
ENDBRANCH   1   6
TORSDOF 6
ENDMDL
MODEL      191
REMARK 921   NORMALIZED FREE ENERGY PREDICTED BY IDOCK:   -5.06 KCAL/MOL
REMARK 922        TOTAL FREE ENERGY PREDICTED BY IDOCK:   -7.80 KCAL/MOL
REMARK 923 INTER-LIGAND FREE ENERGY PREDICTED BY IDOCK:   -7.74 KCAL/MOL
REMARK 924 INTRA-LIGAND FREE ENERGY PREDICTED BY IDOCK:   -0.05 KCAL/MOL
REMARK 927      BINDING AFFINITY PREDICTED BY RF-SCORE:    0.00 PKD
ROOT
HETATM    1  C   UNL     1      -6.989   3.671  64.985  1.00  0.00    -0.057 C  
HETATM    2  C   UNL     1      -6.283   4.242  66.202  1.00  0.00    -0.032 C  
HETATM    3  O   UNL     1      -7.366   2.285  66.909  1.00  0.00    -0.058 OA 
HETATM    4  C   UNL     1      -6.175   3.051  67.115  1.00  0.00    -0.028 C  
HETATM    5  C   UNL     1      -7.921   2.650  65.632  1.00  0.00    -0.082 C  
ENDROOT
BRANCH   1   6
HETATM    6  O   UNL     1      -7.669   4.741  64.338  1.00  0.00    -0.077 OA 
BRANCH   6   7
HETATM    7  C   UNL     1      -8.489   5.542  65.078  1.00  0.00    -0.147 A  
HETATM    8  C   UNL     1     -10.259   6.046  66.651  1.00  0.00    -0.246 A  
HETATM    9  C   UNL     1      -9.564   5.120  65.854  1.00  0.00    -0.163 A  
HETATM   10  C   UNL     1      -9.887   7.401  66.682  1.00  0.00    -0.263 A  
HETATM   11  C   UNL     1      -8.125   6.889  65.093  1.00  0.00    -0.132 A  
HETATM   12  C   UNL     1      -8.820   7.813  65.877  1.00  0.00    -0.176 A  
BRANCH  10  13
HETATM   13  C   UNL     1     -10.563   8.383  67.624  1.00  0.00    -0.265 C  
BRANCH  13  14
HETATM   14  C   UNL     1      -9.790   9.680  67.764  1.00  0.00    -0.192 A  
HETATM   15  C   UNL     1      -8.828   9.913  68.756  1.00  0.00    -0.136 A  
HETATM   16 CL   UNL     1      -8.327   8.689  69.866  1.00  0.00    -0.119 Cl 
HETATM   17  C   UNL     1      -8.258  11.182  68.905  1.00  0.00    -0.104 A  
HETATM   18  C   UNL     1      -8.699  12.250  68.119  1.00  0.00    -0.186 A  
HETATM   19  C   UNL     1      -9.695  12.059  67.154  1.00  0.00    -0.203 A  
HETATM   20  C   UNL     1     -10.161  10.753  66.932  1.00  0.00    -0.255 A  
BRANCH  19  21
HETATM   21  C   UNL     1     -10.398  13.261  66.537  1.00  0.00    -0.285 C  
HETATM   22  O   UNL     1     -10.807  12.905  65.202  1.00  0.00    -0.284 OA 
HETATM   23  C   UNL     1     -11.710  13.851  64.621  1.00  0.00    -0.397 C  
HETATM   24  H   UNL     1      -8.826  15.829  67.876  1.00  0.00     0.000 HD 
HETATM   25  C   UNL     1     -11.011  15.202  64.477  1.00  0.00    -0.189 C  
HETATM   26  O   UNL     1      -9.301  15.006  67.875  1.00  0.00    -0.181 OA 
HETATM   27  C   UNL     1     -10.502  15.669  65.849  1.00  0.00    -0.344 C  
HETATM   28  O   UNL     1     -11.875  16.207  63.935  1.00  0.00    -1.359 OA 
HETATM   29  H   UNL     1      -9.475  17.191  66.543  1.00  0.00     0.000 HD 
HETATM   30  C   UNL     1      -9.623  14.600  66.537  1.00  0.00    -0.289 C  
HETATM   31  H   UNL     1     -11.440  17.048  63.846  1.00  0.00     0.000 HD 
HETATM   32  O   UNL     1      -9.790  16.903  65.695  1.00  0.00    -0.549 OA 
BRANCH  23  33
HETATM   33  C   UNL     1     -12.163  13.295  63.267  1.00  0.00    -0.313 C  
HETATM   34  O   UNL     1     -11.321  12.193  62.899  1.00  0.00    -0.632 OA 
HETATM   35  H   UNL     1     -11.601  11.848  62.060  1.00  0.00     0.000 HD 
ENDBRANCH  23  33
ENDBRANCH  19  21
ENDBRANCH  13  14
ENDBRANCH  10  13
ENDBRANCH   6   7
ENDBRANCH   1   6
TORSDOF 6
ENDMDL
MODEL      192
REMARK 921   NORMALIZED FREE ENERGY PREDICTED BY IDOCK:   -5.04 KCAL/MOL
REMARK 922        TOTAL FREE ENERGY PREDICTED BY IDOCK:   -7.77 KCAL/MOL
REMARK 923 INTER-LIGAND FREE ENERGY PREDICTED BY IDOCK:   -6.33 KCAL/MOL
REMARK 924 INTRA-LIGAND FREE ENERGY PREDICTED BY IDOCK:   -1.44 KCAL/MOL
REMARK 927      BINDING AFFINITY PREDICTED BY RF-SCORE:    0.00 PKD
ROOT
HETATM    1  C   UNL     1      -9.837   3.811  72.530  1.00  0.00    -0.153 C  
HETATM    2  C   UNL     1      -8.489   3.584  73.190  1.00  0.00    -0.082 C  
HETATM    3  O   UNL     1      -9.289   1.473  72.553  1.00  0.00    -0.071 OA 
HETATM    4  C   UNL     1      -8.082   2.233  72.665  1.00  0.00    -0.054 C  
HETATM    5  C   UNL     1     -10.397   2.391  72.499  1.00  0.00    -0.139 C  
ENDROOT
BRANCH   1   6
HETATM    6  O   UNL     1     -10.578   4.702  73.356  1.00  0.00    -0.183 OA 
BRANCH   6   7
HETATM    7  C   UNL     1     -10.705   6.004  72.970  1.00  0.00    -0.252 A  
HETATM    8  C   UNL     1     -10.078   8.337  72.813  1.00  0.00    -0.333 A  
HETATM    9  C   UNL     1      -9.897   7.062  73.375  1.00  0.00    -0.273 A  
HETATM   10  C   UNL     1     -11.067   8.569  71.841  1.00  0.00    -0.395 A  
HETATM   11  C   UNL     1     -11.700   6.232  72.018  1.00  0.00    -0.374 A  
HETATM   12  C   UNL     1     -11.888   7.501  71.464  1.00  0.00    -0.324 A  
BRANCH  10  13
HETATM   13  C   UNL     1     -11.194   9.917  71.151  1.00  0.00    -0.404 C  
BRANCH  13  14
HETATM   14  C   UNL     1     -10.624   9.906  69.746  1.00  0.00    -0.296 A  
HETATM   15  C   UNL     1     -11.079  10.736  68.712  1.00  0.00    -0.259 A  
HETATM   16 CL   UNL     1     -12.271  11.960  68.962  1.00  0.00    -0.216 Cl 
HETATM   17  C   UNL     1     -10.598  10.570  67.409  1.00  0.00    -0.313 A  
HETATM   18  C   UNL     1      -9.719   9.527  67.109  1.00  0.00    -0.221 A  
HETATM   19  C   UNL     1      -9.287   8.650  68.111  1.00  0.00    -0.145 A  
HETATM   20  C   UNL     1      -9.678   8.912  69.434  1.00  0.00    -0.169 A  
BRANCH  19  21
HETATM   21  C   UNL     1      -8.606   7.341  67.736  1.00  0.00    -0.120 C  
HETATM   22  O   UNL     1      -9.628   6.388  67.385  1.00  0.00    -0.117 OA 
HETATM   23  C   UNL     1      -9.107   5.211  66.759  1.00  0.00    -0.118 C  
HETATM   24  H   UNL     1      -5.950   7.283  69.685  1.00  0.00     0.000 HD 
HETATM   25  C   UNL     1      -8.193   4.473  67.737  1.00  0.00    -0.099 C  
HETATM   26  O   UNL     1      -6.551   7.651  69.049  1.00  0.00    -0.045 OA 
HETATM   27  C   UNL     1      -7.072   5.413  68.205  1.00  0.00    -0.066 C  
HETATM   28  O   UNL     1      -7.606   3.303  67.158  1.00  0.00    -0.073 OA 
HETATM   29  H   UNL     1      -5.567   5.319  69.462  1.00  0.00     0.000 HD 
HETATM   30  C   UNL     1      -7.626   6.741  68.772  1.00  0.00    -0.105 C  
HETATM   31  H   UNL     1      -7.037   2.845  67.766  1.00  0.00     0.000 HD 
HETATM   32  O   UNL     1      -6.260   4.737  69.172  1.00  0.00    -0.028 OA 
BRANCH  23  33
HETATM   33  C   UNL     1     -10.295   4.346  66.325  1.00  0.00    -0.101 C  
HETATM   34  O   UNL     1     -11.277   5.174  65.686  1.00  0.00    -0.802 OA 
HETATM   35  H   UNL     1     -12.014   4.638  65.416  1.00  0.00     0.000 HD 
ENDBRANCH  23  33
ENDBRANCH  19  21
ENDBRANCH  13  14
ENDBRANCH  10  13
ENDBRANCH   6   7
ENDBRANCH   1   6
TORSDOF 6
ENDMDL
MODEL      193
REMARK 921   NORMALIZED FREE ENERGY PREDICTED BY IDOCK:   -5.01 KCAL/MOL
REMARK 922        TOTAL FREE ENERGY PREDICTED BY IDOCK:   -7.73 KCAL/MOL
REMARK 923 INTER-LIGAND FREE ENERGY PREDICTED BY IDOCK:   -7.39 KCAL/MOL
REMARK 924 INTRA-LIGAND FREE ENERGY PREDICTED BY IDOCK:   -0.34 KCAL/MOL
REMARK 927      BINDING AFFINITY PREDICTED BY RF-SCORE:    0.00 PKD
ROOT
HETATM    1  C   UNL     1     -10.839   6.541  72.698  1.00  0.00    -0.247 C  
HETATM    2  C   UNL     1      -9.566   6.432  73.517  1.00  0.00    -0.166 C  
HETATM    3  O   UNL     1     -10.669   4.371  73.712  1.00  0.00    -0.215 OA 
HETATM    4  C   UNL     1      -9.362   4.944  73.621  1.00  0.00    -0.125 C  
HETATM    5  C   UNL     1     -11.616   5.322  73.188  1.00  0.00    -0.178 C  
ENDROOT
BRANCH   1   6
HETATM    6  O   UNL     1     -11.456   7.783  73.022  1.00  0.00    -0.372 OA 
BRANCH   6   7
HETATM    7  C   UNL     1     -11.435   8.787  72.099  1.00  0.00    -0.351 A  
HETATM    8  C   UNL     1     -10.448  10.240  70.433  1.00  0.00    -0.141 A  
HETATM    9  C   UNL     1     -10.308   9.270  71.441  1.00  0.00    -0.392 A  
HETATM   10  C   UNL     1     -11.713  10.737  70.074  1.00  0.00    -0.417 A  
HETATM   11  C   UNL     1     -12.691   9.289  71.758  1.00  0.00    -0.462 A  
HETATM   12  C   UNL     1     -12.832  10.260  70.764  1.00  0.00    -0.427 A  
BRANCH  10  13
HETATM   13  C   UNL     1     -11.880  11.704  68.913  1.00  0.00    -0.392 C  
BRANCH  13  14
HETATM   14  C   UNL     1     -11.118  11.264  67.678  1.00  0.00    -0.336 A  
HETATM   15  C   UNL     1     -11.320  11.807  66.401  1.00  0.00    -0.297 A  
HETATM   16 CL   UNL     1     -12.386  13.136  66.117  1.00  0.00    -0.439 Cl 
HETATM   17  C   UNL     1     -10.679  11.254  65.288  1.00  0.00    -0.302 A  
HETATM   18  C   UNL     1      -9.892  10.107  65.424  1.00  0.00    -0.375 A  
HETATM   19  C   UNL     1      -9.714   9.512  66.678  1.00  0.00    -0.270 A  
HETATM   20  C   UNL     1     -10.259  10.156  67.801  1.00  0.00    -0.232 A  
BRANCH  19  21
HETATM   21  C   UNL     1      -9.142   8.104  66.780  1.00  0.00    -0.157 C  
HETATM   22  O   UNL     1      -7.913   8.063  66.029  1.00  0.00    -0.093 OA 
HETATM   23  C   UNL     1      -7.148   6.878  66.269  1.00  0.00    -0.074 C  
HETATM   24  H   UNL     1     -11.831   6.205  66.935  1.00  0.00     0.000 HD 
HETATM   25  C   UNL     1      -7.939   5.656  65.805  1.00  0.00    -0.109 C  
HETATM   26  O   UNL     1     -11.257   6.919  67.186  1.00  0.00    -0.352 OA 
HETATM   27  C   UNL     1      -9.295   5.614  66.525  1.00  0.00    -0.150 C  
HETATM   28  O   UNL     1      -7.244   4.430  66.053  1.00  0.00    -0.072 OA 
HETATM   29  H   UNL     1     -10.896   4.480  66.481  1.00  0.00     0.000 HD 
HETATM   30  C   UNL     1     -10.076   6.940  66.371  1.00  0.00     0.028 C  
HETATM   31  H   UNL     1      -7.736   3.670  65.765  1.00  0.00     0.000 HD 
HETATM   32  O   UNL     1     -10.058   4.505  66.036  1.00  0.00    -0.223 OA 
BRANCH  23  33
HETATM   33  C   UNL     1      -5.820   7.017  65.518  1.00  0.00    -0.036 C  
HETATM   34  O   UNL     1      -5.589   5.835  64.738  1.00  0.00    -0.019 OA 
HETATM   35  H   UNL     1      -4.765   5.921  64.272  1.00  0.00     0.000 HD 
ENDBRANCH  23  33
ENDBRANCH  19  21
ENDBRANCH  13  14
ENDBRANCH  10  13
ENDBRANCH   6   7
ENDBRANCH   1   6
TORSDOF 6
ENDMDL
MODEL      194
REMARK 921   NORMALIZED FREE ENERGY PREDICTED BY IDOCK:   -5.01 KCAL/MOL
REMARK 922        TOTAL FREE ENERGY PREDICTED BY IDOCK:   -7.73 KCAL/MOL
REMARK 923 INTER-LIGAND FREE ENERGY PREDICTED BY IDOCK:   -7.87 KCAL/MOL
REMARK 924 INTRA-LIGAND FREE ENERGY PREDICTED BY IDOCK:    0.14 KCAL/MOL
REMARK 927      BINDING AFFINITY PREDICTED BY RF-SCORE:    0.00 PKD
ROOT
HETATM    1  C   UNL     1      -7.172   5.567  74.093  1.00  0.00    -0.082 C  
HETATM    2  C   UNL     1      -7.890   4.922  72.921  1.00  0.00    -0.094 C  
HETATM    3  O   UNL     1      -5.775   3.914  73.052  1.00  0.00    -0.003 OA 
HETATM    4  C   UNL     1      -7.142   3.627  72.744  1.00  0.00    -0.045 C  
HETATM    5  C   UNL     1      -5.735   5.112  73.852  1.00  0.00    -0.023 C  
ENDROOT
BRANCH   1   6
HETATM    6  O   UNL     1      -7.354   6.975  73.989  1.00  0.00    -0.091 OA 
BRANCH   6   7
HETATM    7  C   UNL     1      -8.439   7.450  73.313  1.00  0.00    -0.136 A  
HETATM    8  C   UNL     1     -10.793   7.843  72.906  1.00  0.00    -0.451 A  
HETATM    9  C   UNL     1      -9.772   7.201  73.628  1.00  0.00    -0.311 A  
HETATM   10  C   UNL     1     -10.494   8.739  71.865  1.00  0.00    -0.423 A  
HETATM   11  C   UNL     1      -8.136   8.325  72.270  1.00  0.00    -0.203 A  
HETATM   12  C   UNL     1      -9.150   8.958  71.545  1.00  0.00    -0.299 A  
BRANCH  10  13
HETATM   13  C   UNL     1     -11.589   9.519  71.156  1.00  0.00    -0.439 C  
BRANCH  13  14
HETATM   14  C   UNL     1     -11.311   9.694  69.675  1.00  0.00    -0.113 A  
HETATM   15  C   UNL     1     -10.772   8.691  68.858  1.00  0.00    -0.082 A  
HETATM   16 CL   UNL     1     -10.474   7.089  69.430  1.00  0.00    -0.217 Cl 
HETATM   17  C   UNL     1     -10.414   8.973  67.535  1.00  0.00    -0.338 A  
HETATM   18  C   UNL     1     -10.518  10.274  67.038  1.00  0.00    -0.304 A  
HETATM   19  C   UNL     1     -11.006  11.308  67.847  1.00  0.00    -0.302 A  
HETATM   20  C   UNL     1     -11.479  10.979  69.128  1.00  0.00    -0.370 A  
BRANCH  19  21
HETATM   21  C   UNL     1     -10.814  12.759  67.427  1.00  0.00    -0.240 C  
HETATM   22  O   UNL     1     -11.506  12.960  66.179  1.00  0.00    -0.316 OA 
HETATM   23  C   UNL     1     -11.628  14.340  65.821  1.00  0.00    -0.346 C  
HETATM   24  H   UNL     1      -7.805  13.484  68.555  1.00  0.00     0.000 HD 
HETATM   25  C   UNL     1     -10.237  14.937  65.607  1.00  0.00    -0.358 C  
HETATM   26  O   UNL     1      -8.699  13.167  68.609  1.00  0.00    -0.091 OA 
HETATM   27  C   UNL     1      -9.394  14.750  66.877  1.00  0.00    -0.240 C  
HETATM   28  O   UNL     1     -10.286  16.330  65.283  1.00  0.00    -0.548 OA 
HETATM   29  H   UNL     1      -7.551  15.135  67.431  1.00  0.00     0.000 HD 
HETATM   30  C   UNL     1      -9.359  13.275  67.339  1.00  0.00    -0.217 C  
HETATM   31  H   UNL     1      -9.421  16.701  65.150  1.00  0.00     0.000 HD 
HETATM   32  O   UNL     1      -8.072  15.251  66.646  1.00  0.00    -0.200 OA 
BRANCH  23  33
HETATM   33  C   UNL     1     -12.485  14.422  64.553  1.00  0.00    -0.339 C  
HETATM   34  O   UNL     1     -12.818  13.095  64.118  1.00  0.00    -0.651 OA 
HETATM   35  H   UNL     1     -13.349  13.145  63.333  1.00  0.00     0.000 HD 
ENDBRANCH  23  33
ENDBRANCH  19  21
ENDBRANCH  13  14
ENDBRANCH  10  13
ENDBRANCH   6   7
ENDBRANCH   1   6
TORSDOF 6
ENDMDL
MODEL      195
REMARK 921   NORMALIZED FREE ENERGY PREDICTED BY IDOCK:   -4.99 KCAL/MOL
REMARK 922        TOTAL FREE ENERGY PREDICTED BY IDOCK:   -7.70 KCAL/MOL
REMARK 923 INTER-LIGAND FREE ENERGY PREDICTED BY IDOCK:   -6.65 KCAL/MOL
REMARK 924 INTRA-LIGAND FREE ENERGY PREDICTED BY IDOCK:   -1.05 KCAL/MOL
REMARK 927      BINDING AFFINITY PREDICTED BY RF-SCORE:    0.00 PKD
ROOT
HETATM    1  C   UNL     1      -8.517   7.775  71.787  1.00  0.00    -0.112 C  
HETATM    2  C   UNL     1      -7.796   8.078  73.089  1.00  0.00    -0.206 C  
HETATM    3  O   UNL     1     -10.057   7.761  73.629  1.00  0.00    -0.294 OA 
HETATM    4  C   UNL     1      -8.736   7.526  74.127  1.00  0.00    -0.235 C  
HETATM    5  C   UNL     1      -9.974   7.951  72.204  1.00  0.00    -0.207 C  
ENDROOT
BRANCH   1   6
HETATM    6  O   UNL     1      -8.078   8.723  70.820  1.00  0.00    -0.107 OA 
BRANCH   6   7
HETATM    7  C   UNL     1      -7.911   8.316  69.529  1.00  0.00    -0.112 A  
HETATM    8  C   UNL     1      -8.402   7.041  67.531  1.00  0.00    -0.119 A  
HETATM    9  C   UNL     1      -8.601   7.284  68.901  1.00  0.00    -0.129 A  
HETATM   10  C   UNL     1      -7.515   7.826  66.775  1.00  0.00    -0.090 A  
HETATM   11  C   UNL     1      -7.016   9.089  68.788  1.00  0.00    -0.062 A  
HETATM   12  C   UNL     1      -6.810   8.843  67.428  1.00  0.00    -0.070 A  
BRANCH  10  13
HETATM   13  C   UNL     1      -7.378   7.640  65.273  1.00  0.00    -0.071 C  
BRANCH  13  14
HETATM   14  C   UNL     1      -8.140   8.689  64.486  1.00  0.00    -0.162 A  
HETATM   15  C   UNL     1      -7.719   9.195  63.249  1.00  0.00    -0.115 A  
HETATM   16 CL   UNL     1      -6.334   8.582  62.419  1.00  0.00    -0.095 Cl 
HETATM   17  C   UNL     1      -8.401  10.260  62.651  1.00  0.00    -0.175 A  
HETATM   18  C   UNL     1      -9.460  10.882  63.318  1.00  0.00    -0.347 A  
HETATM   19  C   UNL     1      -9.870  10.432  64.578  1.00  0.00    -0.405 A  
HETATM   20  C   UNL     1      -9.258   9.282  65.102  1.00  0.00    -0.264 A  
BRANCH  19  21
HETATM   21  C   UNL     1     -10.786  11.296  65.435  1.00  0.00    -0.227 C  
HETATM   22  O   UNL     1     -10.472  12.678  65.174  1.00  0.00    -0.284 OA 
HETATM   23  C   UNL     1     -11.441  13.584  65.712  1.00  0.00    -0.315 C  
HETATM   24  H   UNL     1     -11.206   9.486  68.156  1.00  0.00     0.000 HD 
HETATM   25  C   UNL     1     -11.465  13.462  67.235  1.00  0.00    -0.340 C  
HETATM   26  O   UNL     1     -11.201   9.661  67.223  1.00  0.00    -0.035 OA 
HETATM   27  C   UNL     1     -11.762  12.008  67.632  1.00  0.00    -0.294 C  
HETATM   28  O   UNL     1     -12.443  14.316  67.836  1.00  0.00    -0.556 OA 
HETATM   29  H   UNL     1     -11.900  10.988  69.303  1.00  0.00     0.000 HD 
HETATM   30  C   UNL     1     -10.793  11.011  66.956  1.00  0.00    -0.279 C  
HETATM   31  H   UNL     1     -12.458  14.240  68.783  1.00  0.00     0.000 HD 
HETATM   32  O   UNL     1     -11.716  11.887  69.059  1.00  0.00    -0.284 OA 
BRANCH  23  33
HETATM   33  C   UNL     1     -11.062  14.998  65.259  1.00  0.00    -0.386 C  
HETATM   34  O   UNL     1     -10.076  15.535  66.152  1.00  0.00    -0.271 OA 
HETATM   35  H   UNL     1      -9.841  16.412  65.872  1.00  0.00     0.000 HD 
ENDBRANCH  23  33
ENDBRANCH  19  21
ENDBRANCH  13  14
ENDBRANCH  10  13
ENDBRANCH   6   7
ENDBRANCH   1   6
TORSDOF 6
ENDMDL
MODEL      196
REMARK 921   NORMALIZED FREE ENERGY PREDICTED BY IDOCK:   -4.97 KCAL/MOL
REMARK 922        TOTAL FREE ENERGY PREDICTED BY IDOCK:   -7.68 KCAL/MOL
REMARK 923 INTER-LIGAND FREE ENERGY PREDICTED BY IDOCK:   -7.19 KCAL/MOL
REMARK 924 INTRA-LIGAND FREE ENERGY PREDICTED BY IDOCK:   -0.49 KCAL/MOL
REMARK 927      BINDING AFFINITY PREDICTED BY RF-SCORE:    0.00 PKD
ROOT
HETATM    1  C   UNL     1     -10.410  15.488  65.421  1.00  0.00    -0.394 C  
HETATM    2  C   UNL     1     -11.009  16.736  64.799  1.00  0.00    -0.038 C  
HETATM    3  O   UNL     1     -10.648  17.222  67.065  1.00  0.00    -0.310 OA 
HETATM    4  C   UNL     1     -10.606  17.817  65.765  1.00  0.00    -0.175 C  
HETATM    5  C   UNL     1     -10.562  15.792  66.909  1.00  0.00    -0.317 C  
ENDROOT
BRANCH   1   6
HETATM    6  O   UNL     1     -11.180  14.374  64.982  1.00  0.00    -0.338 OA 
BRANCH   6   7
HETATM    7  C   UNL     1     -10.685  13.117  65.170  1.00  0.00    -0.315 A  
HETATM    8  C   UNL     1     -10.049  11.157  66.441  1.00  0.00    -0.269 A  
HETATM    9  C   UNL     1     -10.465  12.499  66.397  1.00  0.00    -0.269 A  
HETATM   10  C   UNL     1      -9.848  10.420  65.261  1.00  0.00    -0.361 A  
HETATM   11  C   UNL     1     -10.471  12.395  63.995  1.00  0.00    -0.443 A  
HETATM   12  C   UNL     1     -10.048  11.064  64.036  1.00  0.00    -0.408 A  
BRANCH  10  13
HETATM   13  C   UNL     1      -9.505   8.940  65.304  1.00  0.00     0.001 C  
BRANCH  13  14
HETATM   14  C   UNL     1      -8.728   8.560  66.550  1.00  0.00    -0.149 A  
HETATM   15  C   UNL     1      -7.331   8.456  66.599  1.00  0.00    -0.082 A  
HETATM   16 CL   UNL     1      -6.324   8.872  65.259  1.00  0.00    -0.063 Cl 
HETATM   17  C   UNL     1      -6.698   7.966  67.745  1.00  0.00    -0.068 A  
HETATM   18  C   UNL     1      -7.453   7.502  68.825  1.00  0.00    -0.097 A  
HETATM   19  C   UNL     1      -8.852   7.545  68.786  1.00  0.00    -0.131 A  
HETATM   20  C   UNL     1      -9.464   8.159  67.681  1.00  0.00    -0.172 A  
BRANCH  19  21
HETATM   21  C   UNL     1      -9.668   6.754  69.798  1.00  0.00    -0.156 C  
HETATM   22  O   UNL     1     -10.542   7.671  70.486  1.00  0.00    -0.218 OA 
HETATM   23  C   UNL     1     -11.545   7.012  71.266  1.00  0.00    -0.303 C  
HETATM   24  H   UNL     1      -7.598   4.371  70.744  1.00  0.00     0.000 HD 
HETATM   25  C   UNL     1     -10.877   6.194  72.370  1.00  0.00    -0.243 C  
HETATM   26  O   UNL     1      -8.083   4.904  70.125  1.00  0.00    -0.071 OA 
HETATM   27  C   UNL     1      -9.892   5.194  71.748  1.00  0.00    -0.174 C  
HETATM   28  O   UNL     1     -11.826   5.476  73.167  1.00  0.00    -0.536 OA 
HETATM   29  H   UNL     1      -8.611   3.859  72.407  1.00  0.00     0.000 HD 
HETATM   30  C   UNL     1      -8.879   5.885  70.806  1.00  0.00    -0.138 C  
HETATM   31  H   UNL     1     -11.411   4.967  73.853  1.00  0.00     0.000 HD 
HETATM   32  O   UNL     1      -9.221   4.478  72.792  1.00  0.00    -0.126 OA 
BRANCH  23  33
HETATM   33  C   UNL     1     -12.476   8.087  71.836  1.00  0.00    -0.330 C  
HETATM   34  O   UNL     1     -12.840   9.002  70.792  1.00  0.00    -0.500 OA 
HETATM   35  H   UNL     1     -13.418   9.669  71.145  1.00  0.00     0.000 HD 
ENDBRANCH  23  33
ENDBRANCH  19  21
ENDBRANCH  13  14
ENDBRANCH  10  13
ENDBRANCH   6   7
ENDBRANCH   1   6
TORSDOF 6
ENDMDL
MODEL      197
REMARK 921   NORMALIZED FREE ENERGY PREDICTED BY IDOCK:   -4.97 KCAL/MOL
REMARK 922        TOTAL FREE ENERGY PREDICTED BY IDOCK:   -7.67 KCAL/MOL
REMARK 923 INTER-LIGAND FREE ENERGY PREDICTED BY IDOCK:   -7.38 KCAL/MOL
REMARK 924 INTRA-LIGAND FREE ENERGY PREDICTED BY IDOCK:   -0.29 KCAL/MOL
REMARK 927      BINDING AFFINITY PREDICTED BY RF-SCORE:    0.00 PKD
ROOT
HETATM    1  C   UNL     1      -8.378   9.567  65.174  1.00  0.00    -0.142 C  
HETATM    2  C   UNL     1      -7.791  10.804  65.830  1.00  0.00    -0.131 C  
HETATM    3  O   UNL     1      -6.602   8.966  66.675  1.00  0.00    -0.062 OA 
HETATM    4  C   UNL     1      -6.434  10.331  66.281  1.00  0.00    -0.095 C  
HETATM    5  C   UNL     1      -7.796   8.459  66.049  1.00  0.00    -0.098 C  
ENDROOT
BRANCH   1   6
HETATM    6  O   UNL     1      -9.796   9.671  65.247  1.00  0.00    -0.310 OA 
BRANCH   6   7
HETATM    7  C   UNL     1     -10.351  10.377  66.273  1.00  0.00    -0.203 A  
HETATM    8  C   UNL     1     -11.533  12.221  67.305  1.00  0.00    -0.426 A  
HETATM    9  C   UNL     1     -10.897  11.654  66.187  1.00  0.00    -0.343 A  
HETATM   10  C   UNL     1     -11.630  11.519  68.518  1.00  0.00    -0.377 A  
HETATM   11  C   UNL     1     -10.430   9.682  67.480  1.00  0.00    -0.321 A  
HETATM   12  C   UNL     1     -11.054  10.247  68.596  1.00  0.00    -0.290 A  
BRANCH  10  13
HETATM   13  C   UNL     1     -12.411  12.081  69.695  1.00  0.00     0.063 C  
BRANCH  13  14
HETATM   14  C   UNL     1     -11.873  13.419  70.163  1.00  0.00    -0.342 A  
HETATM   15  C   UNL     1     -12.458  14.183  71.181  1.00  0.00    -0.371 A  
HETATM   16 CL   UNL     1     -13.802  13.619  72.108  1.00  0.00    -0.611 Cl 
HETATM   17  C   UNL     1     -11.985  15.470  71.461  1.00  0.00    -0.463 A  
HETATM   18  C   UNL     1     -10.977  16.037  70.677  1.00  0.00    -0.273 A  
HETATM   19  C   UNL     1     -10.409  15.317  69.620  1.00  0.00    -0.271 A  
HETATM   20  C   UNL     1     -10.806  13.982  69.438  1.00  0.00    -0.141 A  
BRANCH  19  21
HETATM   21  C   UNL     1      -9.562  16.035  68.577  1.00  0.00    -0.215 C  
HETATM   22  O   UNL     1      -8.177  15.745  68.847  1.00  0.00    -0.177 OA 
HETATM   23  C   UNL     1      -7.304  16.138  67.783  1.00  0.00    -0.135 C  
HETATM   24  H   UNL     1     -11.282  18.778  67.962  1.00  0.00     0.000 HD 
HETATM   25  C   UNL     1      -7.366  17.654  67.605  1.00  0.00    -0.194 C  
HETATM   26  O   UNL     1     -11.144  17.843  68.057  1.00  0.00    -0.176 OA 
HETATM   27  C   UNL     1      -8.817  18.084  67.339  1.00  0.00    -0.245 C  
HETATM   28  O   UNL     1      -6.542  18.111  66.527  1.00  0.00    -0.178 OA 
HETATM   29  H   UNL     1      -9.775  19.777  67.077  1.00  0.00     0.000 HD 
HETATM   30  C   UNL     1      -9.786  17.558  68.423  1.00  0.00    -0.316 C  
HETATM   31  H   UNL     1      -6.581  19.054  66.416  1.00  0.00     0.000 HD 
HETATM   32  O   UNL     1      -8.878  19.512  67.241  1.00  0.00    -0.289 OA 
BRANCH  23  33
HETATM   33  C   UNL     1      -5.890  15.662  68.137  1.00  0.00    -0.129 C  
HETATM   34  O   UNL     1      -5.219  16.685  68.886  1.00  0.00    -0.120 OA 
HETATM   35  H   UNL     1      -4.342  16.391  69.106  1.00  0.00     0.000 HD 
ENDBRANCH  23  33
ENDBRANCH  19  21
ENDBRANCH  13  14
ENDBRANCH  10  13
ENDBRANCH   6   7
ENDBRANCH   1   6
TORSDOF 6
ENDMDL
MODEL      198
REMARK 921   NORMALIZED FREE ENERGY PREDICTED BY IDOCK:   -4.96 KCAL/MOL
REMARK 922        TOTAL FREE ENERGY PREDICTED BY IDOCK:   -7.66 KCAL/MOL
REMARK 923 INTER-LIGAND FREE ENERGY PREDICTED BY IDOCK:   -7.03 KCAL/MOL
REMARK 924 INTRA-LIGAND FREE ENERGY PREDICTED BY IDOCK:   -0.63 KCAL/MOL
REMARK 927      BINDING AFFINITY PREDICTED BY RF-SCORE:    0.00 PKD
ROOT
HETATM    1  C   UNL     1     -10.824  13.523  63.616  1.00  0.00     0.496 C  
HETATM    2  C   UNL     1     -10.117  12.232  63.987  1.00  0.00    -0.351 C  
HETATM    3  O   UNL     1     -12.288  11.643  63.320  1.00  0.00    -0.452 OA 
HETATM    4  C   UNL     1     -10.932  11.188  63.272  1.00  0.00     0.061 C  
HETATM    5  C   UNL     1     -12.278  13.063  63.560  1.00  0.00    -0.501 C  
ENDROOT
BRANCH   1   6
HETATM    6  O   UNL     1     -10.561  14.471  64.646  1.00  0.00    -0.405 OA 
BRANCH   6   7
HETATM    7  C   UNL     1     -10.752  14.101  65.944  1.00  0.00    -0.298 A  
HETATM    8  C   UNL     1     -10.105  13.626  68.228  1.00  0.00    -0.240 A  
HETATM    9  C   UNL     1      -9.756  13.904  66.895  1.00  0.00    -0.268 A  
HETATM   10  C   UNL     1     -11.451  13.542  68.624  1.00  0.00    -0.343 A  
HETATM   11  C   UNL     1     -12.091  14.002  66.328  1.00  0.00    -0.482 A  
HETATM   12  C   UNL     1     -12.440  13.717  67.651  1.00  0.00     0.177 A  
BRANCH  10  13
HETATM   13  C   UNL     1     -11.833  13.351  70.082  1.00  0.00    -0.342 C  
BRANCH  13  14
HETATM   14  C   UNL     1     -11.933  11.888  70.470  1.00  0.00    -0.360 A  
HETATM   15  C   UNL     1     -12.705  11.415  71.539  1.00  0.00    -0.357 A  
HETATM   16 CL   UNL     1     -13.734  12.445  72.468  1.00  0.00    -0.278 Cl 
HETATM   17  C   UNL     1     -12.636  10.070  71.920  1.00  0.00    -0.454 A  
HETATM   18  C   UNL     1     -11.740   9.203  71.290  1.00  0.00    -0.396 A  
HETATM   19  C   UNL     1     -10.919   9.660  70.252  1.00  0.00    -0.337 A  
HETATM   20  C   UNL     1     -11.095  10.978  69.799  1.00  0.00    -0.303 A  
BRANCH  19  21
HETATM   21  C   UNL     1      -9.732   8.823  69.795  1.00  0.00    -0.177 C  
HETATM   22  O   UNL     1     -10.224   7.780  68.932  1.00  0.00    -0.201 OA 
HETATM   23  C   UNL     1      -9.183   7.097  68.226  1.00  0.00    -0.132 C  
HETATM   24  H   UNL     1      -7.691   8.927  72.379  1.00  0.00     0.000 HD 
HETATM   25  C   UNL     1      -8.268   6.390  69.225  1.00  0.00    -0.115 C  
HETATM   26  O   UNL     1      -8.250   9.285  71.700  1.00  0.00    -0.312 OA 
HETATM   27  C   UNL     1      -7.704   7.412  70.223  1.00  0.00    -0.093 C  
HETATM   28  O   UNL     1      -7.178   5.717  68.584  1.00  0.00    -0.077 OA 
HETATM   29  H   UNL     1      -6.554   7.365  71.812  1.00  0.00     0.000 HD 
HETATM   30  C   UNL     1      -8.821   8.239  70.900  1.00  0.00    -0.150 C  
HETATM   31  H   UNL     1      -6.609   5.278  69.205  1.00  0.00     0.000 HD 
HETATM   32  O   UNL     1      -6.902   6.733  71.195  1.00  0.00    -0.056 OA 
BRANCH  23  33
HETATM   33  C   UNL     1      -9.842   6.110  67.257  1.00  0.00    -0.134 C  
HETATM   34  O   UNL     1     -10.080   4.867  67.935  1.00  0.00    -0.144 OA 
HETATM   35  H   UNL     1     -10.489   4.255  67.335  1.00  0.00     0.000 HD 
ENDBRANCH  23  33
ENDBRANCH  19  21
ENDBRANCH  13  14
ENDBRANCH  10  13
ENDBRANCH   6   7
ENDBRANCH   1   6
TORSDOF 6
ENDMDL
MODEL      199
REMARK 921   NORMALIZED FREE ENERGY PREDICTED BY IDOCK:   -4.94 KCAL/MOL
REMARK 922        TOTAL FREE ENERGY PREDICTED BY IDOCK:   -7.64 KCAL/MOL
REMARK 923 INTER-LIGAND FREE ENERGY PREDICTED BY IDOCK:   -7.06 KCAL/MOL
REMARK 924 INTRA-LIGAND FREE ENERGY PREDICTED BY IDOCK:   -0.58 KCAL/MOL
REMARK 927      BINDING AFFINITY PREDICTED BY RF-SCORE:    0.00 PKD
ROOT
HETATM    1  C   UNL     1      -9.352   5.341  71.279  1.00  0.00    -0.148 C  
HETATM    2  C   UNL     1     -10.174   5.388  70.004  1.00  0.00    -0.349 C  
HETATM    3  O   UNL     1      -8.013   6.104  69.436  1.00  0.00    -0.101 OA 
HETATM    4  C   UNL     1      -9.123   5.358  68.927  1.00  0.00    -0.118 C  
HETATM    5  C   UNL     1      -8.123   6.150  70.872  1.00  0.00    -0.121 C  
ENDROOT
BRANCH   1   6
HETATM    6  O   UNL     1     -10.122   5.947  72.312  1.00  0.00    -0.178 OA 
BRANCH   6   7
HETATM    7  C   UNL     1     -10.770   7.118  72.048  1.00  0.00    -0.214 A  
HETATM    8  C   UNL     1     -10.961   9.493  71.622  1.00  0.00    -0.285 A  
HETATM    9  C   UNL     1     -10.192   8.384  72.013  1.00  0.00    -0.364 A  
HETATM   10  C   UNL     1     -12.312   9.351  71.263  1.00  0.00    -0.422 A  
HETATM   11  C   UNL     1     -12.115   6.973  71.708  1.00  0.00    -0.371 A  
HETATM   12  C   UNL     1     -12.884   8.076  71.329  1.00  0.00    -0.221 A  
BRANCH  10  13
HETATM   13  C   UNL     1     -13.117  10.527  70.735  1.00  0.00    -0.335 C  
BRANCH  13  14
HETATM   14  C   UNL     1     -12.245  11.720  70.392  1.00  0.00    -0.416 A  
HETATM   15  C   UNL     1     -12.534  13.035  70.779  1.00  0.00    -0.302 A  
HETATM   16 CL   UNL     1     -13.867  13.429  71.803  1.00  0.00    -0.332 Cl 
HETATM   17  C   UNL     1     -11.757  14.098  70.306  1.00  0.00    -0.328 A  
HETATM   18  C   UNL     1     -10.734  13.869  69.382  1.00  0.00    -0.051 A  
HETATM   19  C   UNL     1     -10.455  12.571  68.938  1.00  0.00    -0.109 A  
HETATM   20  C   UNL     1     -11.160  11.505  69.522  1.00  0.00    -0.256 A  
BRANCH  19  21
HETATM   21  C   UNL     1      -9.581  12.357  67.710  1.00  0.00    -0.202 C  
HETATM   22  O   UNL     1     -10.304  11.522  66.784  1.00  0.00    -0.214 OA 
HETATM   23  C   UNL     1      -9.704  11.472  65.486  1.00  0.00    -0.230 C  
HETATM   24  H   UNL     1      -6.527  12.346  68.945  1.00  0.00     0.000 HD 
HETATM   25  C   UNL     1      -8.315  10.843  65.589  1.00  0.00    -0.105 C  
HETATM   26  O   UNL     1      -7.401  12.685  68.796  1.00  0.00    -0.107 OA 
HETATM   27  C   UNL     1      -7.459  11.642  66.583  1.00  0.00    -0.037 C  
HETATM   28  O   UNL     1      -7.642  10.798  64.327  1.00  0.00    -0.348 OA 
HETATM   29  H   UNL     1      -5.653  11.501  67.340  1.00  0.00     0.000 HD 
HETATM   30  C   UNL     1      -8.157  11.803  67.953  1.00  0.00    -0.144 C  
HETATM   31  H   UNL     1      -6.778  10.407  64.392  1.00  0.00     0.000 HD 
HETATM   32  O   UNL     1      -6.183  11.007  66.726  1.00  0.00    -0.086 OA 
BRANCH  23  33
HETATM   33  C   UNL     1     -10.631  10.664  64.572  1.00  0.00    -0.075 C  
HETATM   34  O   UNL     1     -10.185  10.789  63.213  1.00  0.00    -0.491 OA 
HETATM   35  H   UNL     1     -10.759  10.288  62.646  1.00  0.00     0.000 HD 
ENDBRANCH  23  33
ENDBRANCH  19  21
ENDBRANCH  13  14
ENDBRANCH  10  13
ENDBRANCH   6   7
ENDBRANCH   1   6
TORSDOF 6
ENDMDL
MODEL      200
REMARK 921   NORMALIZED FREE ENERGY PREDICTED BY IDOCK:   -4.94 KCAL/MOL
REMARK 922        TOTAL FREE ENERGY PREDICTED BY IDOCK:   -7.63 KCAL/MOL
REMARK 923 INTER-LIGAND FREE ENERGY PREDICTED BY IDOCK:   -6.50 KCAL/MOL
REMARK 924 INTRA-LIGAND FREE ENERGY PREDICTED BY IDOCK:   -1.14 KCAL/MOL
REMARK 927      BINDING AFFINITY PREDICTED BY RF-SCORE:    0.00 PKD
ROOT
HETATM    1  C   UNL     1     -11.820  14.731  71.299  1.00  0.00    -0.335 C  
HETATM    2  C   UNL     1     -12.245  16.064  71.888  1.00  0.00    -0.560 C  
HETATM    3  O   UNL     1     -13.490  14.411  72.995  1.00  0.00    -0.615 OA 
HETATM    4  C   UNL     1     -12.842  15.668  73.212  1.00  0.00    -0.527 C  
HETATM    5  C   UNL     1     -12.923  13.810  71.816  1.00  0.00    -0.355 C  
ENDROOT
BRANCH   1   6
HETATM    6  O   UNL     1     -11.805  14.870  69.882  1.00  0.00    -0.275 OA 
BRANCH   6   7
HETATM    7  C   UNL     1     -11.176  13.918  69.135  1.00  0.00    -0.269 A  
HETATM    8  C   UNL     1      -9.289  12.798  68.112  1.00  0.00    -0.214 A  
HETATM    9  C   UNL     1      -9.825  13.900  68.801  1.00  0.00    -0.117 A  
HETATM   10  C   UNL     1     -10.095  11.706  67.749  1.00  0.00    -0.200 A  
HETATM   11  C   UNL     1     -11.985  12.844  68.763  1.00  0.00    -0.290 A  
HETATM   12  C   UNL     1     -11.456  11.752  68.069  1.00  0.00    -0.388 A  
BRANCH  10  13
HETATM   13  C   UNL     1      -9.500  10.466  67.102  1.00  0.00    -0.183 C  
BRANCH  13  14
HETATM   14  C   UNL     1      -8.386   9.857  67.931  1.00  0.00    -0.114 A  
HETATM   15  C   UNL     1      -7.029   9.931  67.590  1.00  0.00    -0.086 A  
HETATM   16 CL   UNL     1      -6.462  10.839  66.235  1.00  0.00    -0.124 Cl 
HETATM   17  C   UNL     1      -6.074   9.226  68.330  1.00  0.00    -0.052 A  
HETATM   18  C   UNL     1      -6.470   8.379  69.368  1.00  0.00    -0.038 A  
HETATM   19  C   UNL     1      -7.823   8.245  69.699  1.00  0.00    -0.102 A  
HETATM   20  C   UNL     1      -8.753   9.058  69.030  1.00  0.00    -0.138 A  
BRANCH  19  21
HETATM   21  C   UNL     1      -8.280   7.097  70.590  1.00  0.00    -0.117 C  
HETATM   22  O   UNL     1      -7.980   5.859  69.916  1.00  0.00    -0.100 OA 
HETATM   23  C   UNL     1      -8.114   4.713  70.763  1.00  0.00    -0.084 C  
HETATM   24  H   UNL     1     -10.931   8.328  72.112  1.00  0.00     0.000 HD 
HETATM   25  C   UNL     1      -9.567   4.578  71.216  1.00  0.00    -0.172 C  
HETATM   26  O   UNL     1     -10.027   8.312  71.821  1.00  0.00    -0.181 OA 
HETATM   27  C   UNL     1     -10.007   5.867  71.927  1.00  0.00    -0.171 C  
HETATM   28  O   UNL     1      -9.762   3.470  72.100  1.00  0.00    -0.141 OA 
HETATM   29  H   UNL     1     -11.661   6.556  72.728  1.00  0.00     0.000 HD 
HETATM   30  C   UNL     1      -9.753   7.123  71.064  1.00  0.00    -0.165 C  
HETATM   31  H   UNL     1     -10.666   3.387  72.382  1.00  0.00     0.000 HD 
HETATM   32  O   UNL     1     -11.389   5.760  72.289  1.00  0.00    -0.279 OA 
BRANCH  23  33
HETATM   33  C   UNL     1      -7.647   3.488  69.970  1.00  0.00    -0.044 C  
HETATM   34  O   UNL     1      -8.771   2.634  69.709  1.00  0.00    -0.059 OA 
HETATM   35  H   UNL     1      -8.482   1.875  69.217  1.00  0.00     0.000 HD 
ENDBRANCH  23  33
ENDBRANCH  19  21
ENDBRANCH  13  14
ENDBRANCH  10  13
ENDBRANCH   6   7
ENDBRANCH   1   6
TORSDOF 6
ENDMDL
MODEL      201
REMARK 921   NORMALIZED FREE ENERGY PREDICTED BY IDOCK:   -4.89 KCAL/MOL
REMARK 922        TOTAL FREE ENERGY PREDICTED BY IDOCK:   -7.56 KCAL/MOL
REMARK 923 INTER-LIGAND FREE ENERGY PREDICTED BY IDOCK:   -6.37 KCAL/MOL
REMARK 924 INTRA-LIGAND FREE ENERGY PREDICTED BY IDOCK:   -1.19 KCAL/MOL
REMARK 927      BINDING AFFINITY PREDICTED BY RF-SCORE:    0.00 PKD
ROOT
HETATM    1  C   UNL     1     -12.118  14.554  71.214  1.00  0.00    -0.354 C  
HETATM    2  C   UNL     1     -12.313  15.857  71.968  1.00  0.00    -0.550 C  
HETATM    3  O   UNL     1     -13.753  14.287  72.952  1.00  0.00    -0.629 OA 
HETATM    4  C   UNL     1     -12.914  15.401  73.271  1.00  0.00    -0.531 C  
HETATM    5  C   UNL     1     -13.327  13.751  71.685  1.00  0.00    -0.354 C  
ENDROOT
BRANCH   1   6
HETATM    6  O   UNL     1     -12.135  14.854  69.822  1.00  0.00    -0.302 OA 
BRANCH   6   7
HETATM    7  C   UNL     1     -11.304  14.162  68.990  1.00  0.00    -0.275 A  
HETATM    8  C   UNL     1      -9.189  13.544  67.989  1.00  0.00    -0.209 A  
HETATM    9  C   UNL     1      -9.948  14.406  68.799  1.00  0.00    -0.223 A  
HETATM   10  C   UNL     1      -9.775  12.431  67.363  1.00  0.00    -0.193 A  
HETATM   11  C   UNL     1     -11.896  13.068  68.358  1.00  0.00    -0.370 A  
HETATM   12  C   UNL     1     -11.145  12.215  67.544  1.00  0.00    -0.328 A  
BRANCH  10  13
HETATM   13  C   UNL     1      -8.938  11.436  66.576  1.00  0.00    -0.192 C  
BRANCH  13  14
HETATM   14  C   UNL     1      -8.259  10.415  67.469  1.00  0.00    -0.114 A  
HETATM   15  C   UNL     1      -6.955  10.554  67.961  1.00  0.00    -0.074 A  
HETATM   16 CL   UNL     1      -6.011  11.976  67.699  1.00  0.00    -0.079 Cl 
HETATM   17  C   UNL     1      -6.348   9.506  68.663  1.00  0.00    -0.048 A  
HETATM   18  C   UNL     1      -7.007   8.283  68.813  1.00  0.00    -0.067 A  
HETATM   19  C   UNL     1      -8.292   8.098  68.288  1.00  0.00    -0.126 A  
HETATM   20  C   UNL     1      -8.933   9.201  67.701  1.00  0.00    -0.130 A  
BRANCH  19  21
HETATM   21  C   UNL     1      -8.869   6.694  68.162  1.00  0.00    -0.119 C  
HETATM   22  O   UNL     1      -8.452   5.933  69.312  1.00  0.00    -0.111 OA 
HETATM   23  C   UNL     1      -9.148   4.690  69.445  1.00  0.00    -0.108 C  
HETATM   24  H   UNL     1      -8.879   6.168  64.910  1.00  0.00     0.000 HD 
HETATM   25  C   UNL     1      -8.837   3.799  68.243  1.00  0.00    -0.112 C  
HETATM   26  O   UNL     1      -9.067   6.638  65.713  1.00  0.00    -0.093 OA 
HETATM   27  C   UNL     1      -9.217   4.530  66.947  1.00  0.00    -0.133 C  
HETATM   28  O   UNL     1      -9.535   2.551  68.294  1.00  0.00    -0.208 OA 
HETATM   29  H   UNL     1      -9.096   4.169  65.021  1.00  0.00     0.000 HD 
HETATM   30  C   UNL     1      -8.563   5.928  66.854  1.00  0.00    -0.111 C  
HETATM   31  H   UNL     1      -9.342   1.997  67.547  1.00  0.00     0.000 HD 
HETATM   32  O   UNL     1      -8.860   3.717  65.822  1.00  0.00    -0.117 OA 
BRANCH  23  33
HETATM   33  C   UNL     1      -8.708   4.044  70.763  1.00  0.00    -0.073 C  
HETATM   34  O   UNL     1      -8.093   2.777  70.489  1.00  0.00    -0.042 OA 
HETATM   35  H   UNL     1      -7.819   2.377  71.306  1.00  0.00     0.000 HD 
ENDBRANCH  23  33
ENDBRANCH  19  21
ENDBRANCH  13  14
ENDBRANCH  10  13
ENDBRANCH   6   7
ENDBRANCH   1   6
TORSDOF 6
ENDMDL
MODEL      202
REMARK 921   NORMALIZED FREE ENERGY PREDICTED BY IDOCK:   -4.87 KCAL/MOL
REMARK 922        TOTAL FREE ENERGY PREDICTED BY IDOCK:   -7.55 KCAL/MOL
REMARK 923 INTER-LIGAND FREE ENERGY PREDICTED BY IDOCK:   -7.00 KCAL/MOL
REMARK 924 INTRA-LIGAND FREE ENERGY PREDICTED BY IDOCK:   -0.55 KCAL/MOL
REMARK 927      BINDING AFFINITY PREDICTED BY RF-SCORE:    0.00 PKD
ROOT
HETATM    1  C   UNL     1     -11.257   5.178  72.588  1.00  0.00    -0.209 C  
HETATM    2  C   UNL     1     -10.197   4.747  71.590  1.00  0.00    -0.249 C  
HETATM    3  O   UNL     1      -9.205   4.644  73.714  1.00  0.00    -0.111 OA 
HETATM    4  C   UNL     1      -9.225   3.980  72.446  1.00  0.00    -0.116 C  
HETATM    5  C   UNL     1     -10.414   5.417  73.837  1.00  0.00    -0.280 C  
ENDROOT
BRANCH   1   6
HETATM    6  O   UNL     1     -11.876   6.355  72.079  1.00  0.00    -0.317 OA 
BRANCH   6   7
HETATM    7  C   UNL     1     -11.089   7.338  71.556  1.00  0.00    -0.237 A  
HETATM    8  C   UNL     1      -9.440   9.110  71.599  1.00  0.00    -0.183 A  
HETATM    9  C   UNL     1     -10.282   8.212  72.277  1.00  0.00    -0.348 A  
HETATM   10  C   UNL     1      -9.395   9.143  70.194  1.00  0.00    -0.235 A  
HETATM   11  C   UNL     1     -11.061   7.377  70.161  1.00  0.00    -0.265 A  
HETATM   12  C   UNL     1     -10.231   8.275  69.484  1.00  0.00    -0.210 A  
BRANCH  10  13
HETATM   13  C   UNL     1      -8.408  10.033  69.457  1.00  0.00    -0.180 C  
BRANCH  13  14
HETATM   14  C   UNL     1      -9.019  10.690  68.235  1.00  0.00    -0.143 A  
HETATM   15  C   UNL     1      -8.933  10.162  66.940  1.00  0.00    -0.132 A  
HETATM   16 CL   UNL     1      -8.217   8.625  66.610  1.00  0.00    -0.106 Cl 
HETATM   17  C   UNL     1      -9.401  10.895  65.844  1.00  0.00    -0.226 A  
HETATM   18  C   UNL     1      -9.888  12.193  66.020  1.00  0.00    -0.260 A  
HETATM   19  C   UNL     1      -9.938  12.767  67.295  1.00  0.00    -0.219 A  
HETATM   20  C   UNL     1      -9.585  11.968  68.396  1.00  0.00    -0.190 A  
BRANCH  19  21
HETATM   21  C   UNL     1     -10.153  14.267  67.449  1.00  0.00    -0.247 C  
HETATM   22  O   UNL     1      -8.914  14.931  67.134  1.00  0.00    -0.190 OA 
HETATM   23  C   UNL     1      -9.060  16.347  66.979  1.00  0.00    -0.214 C  
HETATM   24  H   UNL     1     -12.337  14.473  69.907  1.00  0.00     0.000 HD 
HETATM   25  C   UNL     1      -9.516  16.961  68.301  1.00  0.00    -0.250 C  
HETATM   26  O   UNL     1     -11.994  14.171  69.074  1.00  0.00    -0.325 OA 
HETATM   27  C   UNL     1     -10.827  16.299  68.753  1.00  0.00    -0.317 C  
HETATM   28  O   UNL     1      -9.720  18.374  68.205  1.00  0.00    -0.301 OA 
HETATM   29  H   UNL     1     -12.023  16.421  70.304  1.00  0.00     0.000 HD 
HETATM   30  C   UNL     1     -10.712  14.758  68.805  1.00  0.00    -0.253 C  
HETATM   31  H   UNL     1     -10.004  18.756  69.027  1.00  0.00     0.000 HD 
HETATM   32  O   UNL     1     -11.213  16.831  70.026  1.00  0.00    -0.158 OA 
BRANCH  23  33
HETATM   33  C   UNL     1      -7.709  16.910  66.524  1.00  0.00    -0.291 C  
HETATM   34  O   UNL     1      -6.656  16.055  66.991  1.00  0.00    -0.238 OA 
HETATM   35  H   UNL     1      -5.818  16.404  66.709  1.00  0.00     0.000 HD 
ENDBRANCH  23  33
ENDBRANCH  19  21
ENDBRANCH  13  14
ENDBRANCH  10  13
ENDBRANCH   6   7
ENDBRANCH   1   6
TORSDOF 6
ENDMDL
MODEL      203
REMARK 921   NORMALIZED FREE ENERGY PREDICTED BY IDOCK:   -4.86 KCAL/MOL
REMARK 922        TOTAL FREE ENERGY PREDICTED BY IDOCK:   -7.53 KCAL/MOL
REMARK 923 INTER-LIGAND FREE ENERGY PREDICTED BY IDOCK:   -5.96 KCAL/MOL
REMARK 924 INTRA-LIGAND FREE ENERGY PREDICTED BY IDOCK:   -1.56 KCAL/MOL
REMARK 927      BINDING AFFINITY PREDICTED BY RF-SCORE:    0.00 PKD
ROOT
HETATM    1  C   UNL     1      -9.158   9.405  63.093  1.00  0.00    -0.034 C  
HETATM    2  C   UNL     1      -7.665   9.178  62.937  1.00  0.00    -0.116 C  
HETATM    3  O   UNL     1      -8.194   8.666  65.164  1.00  0.00    -0.133 OA 
HETATM    4  C   UNL     1      -7.345   8.261  64.087  1.00  0.00    -0.098 C  
HETATM    5  C   UNL     1      -9.304   9.398  64.612  1.00  0.00    -0.044 C  
ENDROOT
BRANCH   1   6
HETATM    6  O   UNL     1      -9.470  10.657  62.492  1.00  0.00    -0.278 OA 
BRANCH   6   7
HETATM    7  C   UNL     1     -10.346  11.489  63.124  1.00  0.00    -0.324 A  
HETATM    8  C   UNL     1     -12.493  12.195  63.991  1.00  0.00    -0.541 A  
HETATM    9  C   UNL     1     -11.723  11.311  63.216  1.00  0.00     0.308 A  
HETATM   10  C   UNL     1     -11.897  13.265  64.681  1.00  0.00    -0.420 A  
HETATM   11  C   UNL     1      -9.750  12.559  63.792  1.00  0.00     0.154 A  
HETATM   12  C   UNL     1     -10.515  13.446  64.556  1.00  0.00    -0.431 A  
BRANCH  10  13
HETATM   13  C   UNL     1     -12.707  14.157  65.606  1.00  0.00    -0.469 C  
BRANCH  13  14
HETATM   14  C   UNL     1     -12.017  14.394  66.936  1.00  0.00    -0.425 A  
HETATM   15  C   UNL     1     -11.264  15.538  67.232  1.00  0.00    -0.226 A  
HETATM   16 CL   UNL     1     -11.138  16.873  66.144  1.00  0.00     0.199 Cl 
HETATM   17  C   UNL     1     -10.543  15.620  68.428  1.00  0.00    -0.252 A  
HETATM   18  C   UNL     1     -10.504  14.532  69.304  1.00  0.00    -0.185 A  
HETATM   19  C   UNL     1     -11.205  13.357  69.011  1.00  0.00    -0.323 A  
HETATM   20  C   UNL     1     -12.025  13.342  67.871  1.00  0.00    -0.349 A  
BRANCH  19  21
HETATM   21  C   UNL     1     -10.905  12.078  69.781  1.00  0.00     0.350 C  
HETATM   22  O   UNL     1      -9.998  11.282  68.995  1.00  0.00    -0.189 OA 
HETATM   23  C   UNL     1      -9.432  10.189  69.725  1.00  0.00    -0.167 C  
HETATM   24  H   UNL     1     -13.722  11.481  71.384  1.00  0.00     0.000 HD 
HETATM   25  C   UNL     1     -10.543   9.227  70.146  1.00  0.00    -0.231 C  
HETATM   26  O   UNL     1     -12.976  11.998  71.104  1.00  0.00    -0.287 OA 
HETATM   27  C   UNL     1     -11.594   9.982  70.973  1.00  0.00    -0.393 C  
HETATM   28  O   UNL     1     -10.048   8.127  70.916  1.00  0.00    -0.186 OA 
HETATM   29  H   UNL     1     -13.314   9.558  71.818  1.00  0.00     0.000 HD 
HETATM   30  C   UNL     1     -12.121  11.236  70.238  1.00  0.00    -0.373 C  
HETATM   31  H   UNL     1     -10.739   7.529  71.178  1.00  0.00     0.000 HD 
HETATM   32  O   UNL     1     -12.664   9.091  71.307  1.00  0.00    -0.316 OA 
BRANCH  23  33
HETATM   33  C   UNL     1      -8.399   9.507  68.822  1.00  0.00    -0.117 C  
HETATM   34  O   UNL     1      -7.427   8.835  69.636  1.00  0.00    -0.068 OA 
HETATM   35  H   UNL     1      -6.786   8.412  69.077  1.00  0.00     0.000 HD 
ENDBRANCH  23  33
ENDBRANCH  19  21
ENDBRANCH  13  14
ENDBRANCH  10  13
ENDBRANCH   6   7
ENDBRANCH   1   6
TORSDOF 6
ENDMDL
MODEL      204
REMARK 921   NORMALIZED FREE ENERGY PREDICTED BY IDOCK:   -4.86 KCAL/MOL
REMARK 922        TOTAL FREE ENERGY PREDICTED BY IDOCK:   -7.52 KCAL/MOL
REMARK 923 INTER-LIGAND FREE ENERGY PREDICTED BY IDOCK:   -6.87 KCAL/MOL
REMARK 924 INTRA-LIGAND FREE ENERGY PREDICTED BY IDOCK:   -0.65 KCAL/MOL
REMARK 927      BINDING AFFINITY PREDICTED BY RF-SCORE:    0.00 PKD
ROOT
HETATM    1  C   UNL     1      -9.544  18.286  67.622  1.00  0.00    -0.282 C  
HETATM    2  C   UNL     1     -10.529  18.591  66.508  1.00  0.00    -0.435 C  
HETATM    3  O   UNL     1      -9.905  20.653  67.436  1.00  0.00    -0.464 OA 
HETATM    4  C   UNL     1     -10.239  20.033  66.191  1.00  0.00    -0.475 C  
HETATM    5  C   UNL     1      -9.502  19.623  68.358  1.00  0.00    -0.370 C  
ENDROOT
BRANCH   1   6
HETATM    6  O   UNL     1     -10.083  17.221  68.397  1.00  0.00    -0.292 OA 
BRANCH   6   7
HETATM    7  C   UNL     1      -9.536  15.977  68.275  1.00  0.00    -0.206 A  
HETATM    8  C   UNL     1      -9.538  13.558  68.190  1.00  0.00    -0.215 A  
HETATM    9  C   UNL     1     -10.202  14.769  68.452  1.00  0.00    -0.224 A  
HETATM   10  C   UNL     1      -8.204  13.542  67.749  1.00  0.00    -0.176 A  
HETATM   11  C   UNL     1      -8.205  15.968  67.854  1.00  0.00    -0.154 A  
HETATM   12  C   UNL     1      -7.540  14.765  67.602  1.00  0.00    -0.193 A  
BRANCH  10  13
HETATM   13  C   UNL     1      -7.516  12.244  67.360  1.00  0.00    -0.160 C  
BRANCH  13  14
HETATM   14  C   UNL     1      -8.438  11.044  67.470  1.00  0.00    -0.127 A  
HETATM   15  C   UNL     1      -9.440  10.741  66.538  1.00  0.00    -0.169 A  
HETATM   16 CL   UNL     1      -9.657  11.646  65.083  1.00  0.00    -0.237 Cl 
HETATM   17  C   UNL     1     -10.339   9.697  66.780  1.00  0.00    -0.292 A  
HETATM   18  C   UNL     1     -10.298   8.997  67.988  1.00  0.00    -0.275 A  
HETATM   19  C   UNL     1      -9.340   9.310  68.960  1.00  0.00    -0.151 A  
HETATM   20  C   UNL     1      -8.367  10.272  68.645  1.00  0.00    -0.122 A  
BRANCH  19  21
HETATM   21  C   UNL     1      -9.496   8.786  70.381  1.00  0.00    -0.179 C  
HETATM   22  O   UNL     1      -8.184   8.487  70.896  1.00  0.00    -0.109 OA 
HETATM   23  C   UNL     1      -8.176   8.245  72.306  1.00  0.00    -0.155 C  
HETATM   24  H   UNL     1     -12.372   7.181  70.285  1.00  0.00     0.000 HD 
HETATM   25  C   UNL     1      -9.017   7.007  72.617  1.00  0.00    -0.123 C  
HETATM   26  O   UNL     1     -11.784   7.917  70.162  1.00  0.00    -0.037 OA 
HETATM   27  C   UNL     1     -10.443   7.204  72.081  1.00  0.00    -0.206 C  
HETATM   28  O   UNL     1      -9.083   6.731  74.020  1.00  0.00    -0.156 OA 
HETATM   29  H   UNL     1     -12.087   6.137  71.983  1.00  0.00     0.000 HD 
HETATM   30  C   UNL     1     -10.453   7.587  70.583  1.00  0.00    -0.216 C  
HETATM   31  H   UNL     1      -9.606   5.961  74.213  1.00  0.00     0.000 HD 
HETATM   32  O   UNL     1     -11.206   6.015  72.315  1.00  0.00    -0.263 OA 
BRANCH  23  33
HETATM   33  C   UNL     1      -6.718   8.068  72.743  1.00  0.00    -0.082 C  
HETATM   34  O   UNL     1      -6.371   9.106  73.671  1.00  0.00    -0.324 OA 
HETATM   35  H   UNL     1      -5.467   8.997  73.943  1.00  0.00     0.000 HD 
ENDBRANCH  23  33
ENDBRANCH  19  21
ENDBRANCH  13  14
ENDBRANCH  10  13
ENDBRANCH   6   7
ENDBRANCH   1   6
TORSDOF 6
ENDMDL
MODEL      205
REMARK 921   NORMALIZED FREE ENERGY PREDICTED BY IDOCK:   -4.85 KCAL/MOL
REMARK 922        TOTAL FREE ENERGY PREDICTED BY IDOCK:   -7.51 KCAL/MOL
REMARK 923 INTER-LIGAND FREE ENERGY PREDICTED BY IDOCK:   -7.10 KCAL/MOL
REMARK 924 INTRA-LIGAND FREE ENERGY PREDICTED BY IDOCK:   -0.41 KCAL/MOL
REMARK 927      BINDING AFFINITY PREDICTED BY RF-SCORE:    0.00 PKD
ROOT
HETATM    1  C   UNL     1      -9.074   9.600  63.394  1.00  0.00    -0.178 C  
HETATM    2  C   UNL     1      -7.566   9.444  63.466  1.00  0.00    -0.115 C  
HETATM    3  O   UNL     1      -8.439   8.438  65.397  1.00  0.00    -0.161 OA 
HETATM    4  C   UNL     1      -7.394   8.301  64.430  1.00  0.00    -0.092 C  
HETATM    5  C   UNL     1      -9.480   9.252  64.823  1.00  0.00     0.094 C  
ENDROOT
BRANCH   1   6
HETATM    6  O   UNL     1      -9.352  10.948  63.030  1.00  0.00    -0.266 OA 
BRANCH   6   7
HETATM    7  C   UNL     1     -10.186  11.683  63.820  1.00  0.00    -0.389 A  
HETATM    8  C   UNL     1     -12.312  12.390  64.737  1.00  0.00    -0.497 A  
HETATM    9  C   UNL     1     -11.577  11.656  63.791  1.00  0.00    -0.430 A  
HETATM   10  C   UNL     1     -11.666  13.157  65.722  1.00  0.00    -0.415 A  
HETATM   11  C   UNL     1      -9.539  12.456  64.785  1.00  0.00     0.117 A  
HETATM   12  C   UNL     1     -10.268  13.194  65.722  1.00  0.00    -0.294 A  
BRANCH  10  13
HETATM   13  C   UNL     1     -12.453  13.863  66.814  1.00  0.00    -0.254 C  
BRANCH  13  14
HETATM   14  C   UNL     1     -11.567  14.357  67.942  1.00  0.00    -0.374 A  
HETATM   15  C   UNL     1     -11.663  13.906  69.265  1.00  0.00    -0.334 A  
HETATM   16 CL   UNL     1     -12.735  12.637  69.736  1.00  0.00     0.286 Cl 
HETATM   17  C   UNL     1     -10.906  14.509  70.275  1.00  0.00     0.083 A  
HETATM   18  C   UNL     1     -10.104  15.617  69.989  1.00  0.00    -0.220 A  
HETATM   19  C   UNL     1     -10.027  16.122  68.686  1.00  0.00    -0.228 A  
HETATM   20  C   UNL     1     -10.692  15.425  67.665  1.00  0.00    -0.292 A  
BRANCH  19  21
HETATM   21  C   UNL     1      -9.428  17.500  68.436  1.00  0.00    -0.292 C  
HETATM   22  O   UNL     1     -10.211  18.151  67.417  1.00  0.00    -0.338 OA 
HETATM   23  C   UNL     1      -9.916  19.546  67.288  1.00  0.00    -0.379 C  
HETATM   24  H   UNL     1      -6.206  17.029  68.940  1.00  0.00     0.000 HD 
HETATM   25  C   UNL     1      -8.463  19.722  66.848  1.00  0.00    -0.320 C  
HETATM   26  O   UNL     1      -7.132  16.995  69.151  1.00  0.00    -0.236 OA 
HETATM   27  C   UNL     1      -7.531  19.033  67.855  1.00  0.00    -0.251 C  
HETATM   28  O   UNL     1      -8.090  21.099  66.737  1.00  0.00    -0.479 OA 
HETATM   29  H   UNL     1      -5.601  18.717  68.024  1.00  0.00     0.000 HD 
HETATM   30  C   UNL     1      -7.921  17.555  68.092  1.00  0.00    -0.250 C  
HETATM   31  H   UNL     1      -7.186  21.208  66.463  1.00  0.00     0.000 HD 
HETATM   32  O   UNL     1      -6.177  19.143  67.401  1.00  0.00    -0.186 OA 
BRANCH  23  33
HETATM   33  C   UNL     1     -10.896  20.141  66.272  1.00  0.00     0.039 C  
HETATM   34  O   UNL     1     -10.941  19.302  65.108  1.00  0.00    -0.448 OA 
HETATM   35  H   UNL     1     -11.549  19.671  64.478  1.00  0.00     0.000 HD 
ENDBRANCH  23  33
ENDBRANCH  19  21
ENDBRANCH  13  14
ENDBRANCH  10  13
ENDBRANCH   6   7
ENDBRANCH   1   6
TORSDOF 6
ENDMDL
MODEL      206
REMARK 921   NORMALIZED FREE ENERGY PREDICTED BY IDOCK:   -4.79 KCAL/MOL
REMARK 922        TOTAL FREE ENERGY PREDICTED BY IDOCK:   -7.43 KCAL/MOL
REMARK 923 INTER-LIGAND FREE ENERGY PREDICTED BY IDOCK:   -6.44 KCAL/MOL
REMARK 924 INTRA-LIGAND FREE ENERGY PREDICTED BY IDOCK:   -0.99 KCAL/MOL
REMARK 927      BINDING AFFINITY PREDICTED BY RF-SCORE:    0.00 PKD
ROOT
HETATM    1  C   UNL     1     -10.862  13.095  65.981  1.00  0.00    -0.272 C  
HETATM    2  C   UNL     1     -10.375  14.471  65.564  1.00  0.00    -0.379 C  
HETATM    3  O   UNL     1     -11.899  14.801  67.316  1.00  0.00    -0.378 OA 
HETATM    4  C   UNL     1     -10.680  15.315  66.773  1.00  0.00    -0.313 C  
HETATM    5  C   UNL     1     -12.074  13.454  66.837  1.00  0.00    -0.354 C  
ENDROOT
BRANCH   1   6
HETATM    6  O   UNL     1     -11.187  12.374  64.798  1.00  0.00    -0.293 OA 
BRANCH   6   7
HETATM    7  C   UNL     1     -10.436  11.286  64.463  1.00  0.00    -0.334 A  
HETATM    8  C   UNL     1      -9.002   9.937  63.055  1.00  0.00    -0.273 A  
HETATM    9  C   UNL     1      -9.839  11.052  63.228  1.00  0.00    -0.406 A  
HETATM   10  C   UNL     1      -8.752   9.045  64.113  1.00  0.00    -0.126 A  
HETATM   11  C   UNL     1     -10.205  10.396  65.512  1.00  0.00    -0.316 A  
HETATM   12  C   UNL     1      -9.380   9.281  65.340  1.00  0.00    -0.292 A  
BRANCH  10  13
HETATM   13  C   UNL     1      -7.763   7.901  63.964  1.00  0.00    -0.133 C  
BRANCH  13  14
HETATM   14  C   UNL     1      -8.066   6.746  64.898  1.00  0.00    -0.112 A  
HETATM   15  C   UNL     1      -8.594   5.518  64.475  1.00  0.00    -0.042 A  
HETATM   16 CL   UNL     1      -8.846   5.142  62.809  1.00  0.00    -0.083 Cl 
HETATM   17  C   UNL     1      -8.977   4.553  65.412  1.00  0.00    -0.141 A  
HETATM   18  C   UNL     1      -8.911   4.831  66.780  1.00  0.00    -0.110 A  
HETATM   19  C   UNL     1      -8.436   6.068  67.231  1.00  0.00    -0.104 A  
HETATM   20  C   UNL     1      -7.936   6.973  66.280  1.00  0.00    -0.114 A  
BRANCH  19  21
HETATM   21  C   UNL     1      -8.667   6.492  68.675  1.00  0.00    -0.123 C  
HETATM   22  O   UNL     1      -9.158   7.847  68.672  1.00  0.00    -0.137 OA 
HETATM   23  C   UNL     1      -9.667   8.263  69.944  1.00  0.00    -0.180 C  
HETATM   24  H   UNL     1      -6.312   4.882  70.324  1.00  0.00     0.000 HD 
HETATM   25  C   UNL     1      -8.538   8.251  70.974  1.00  0.00    -0.144 C  
HETATM   26  O   UNL     1      -7.045   4.975  69.727  1.00  0.00    -0.052 OA 
HETATM   27  C   UNL     1      -7.914   6.849  71.040  1.00  0.00    -0.102 C  
HETATM   28  O   UNL     1      -8.989   8.620  72.281  1.00  0.00    -0.282 OA 
HETATM   29  H   UNL     1      -6.428   5.995  71.998  1.00  0.00     0.000 HD 
HETATM   30  C   UNL     1      -7.473   6.342  69.647  1.00  0.00    -0.085 C  
HETATM   31  H   UNL     1      -8.286   8.613  72.922  1.00  0.00     0.000 HD 
HETATM   32  O   UNL     1      -6.814   6.862  71.957  1.00  0.00    -0.058 OA 
BRANCH  23  33
HETATM   33  C   UNL     1     -10.269   9.661  69.773  1.00  0.00    -0.237 C  
HETATM   34  O   UNL     1     -11.311   9.613  68.788  1.00  0.00    -0.469 OA 
HETATM   35  H   UNL     1     -11.684  10.480  68.682  1.00  0.00     0.000 HD 
ENDBRANCH  23  33
ENDBRANCH  19  21
ENDBRANCH  13  14
ENDBRANCH  10  13
ENDBRANCH   6   7
ENDBRANCH   1   6
TORSDOF 6
ENDMDL
MODEL      207
REMARK 921   NORMALIZED FREE ENERGY PREDICTED BY IDOCK:   -4.78 KCAL/MOL
REMARK 922        TOTAL FREE ENERGY PREDICTED BY IDOCK:   -7.43 KCAL/MOL
REMARK 923 INTER-LIGAND FREE ENERGY PREDICTED BY IDOCK:   -6.90 KCAL/MOL
REMARK 924 INTRA-LIGAND FREE ENERGY PREDICTED BY IDOCK:   -0.53 KCAL/MOL
REMARK 927      BINDING AFFINITY PREDICTED BY RF-SCORE:    0.00 PKD
ROOT
HETATM    1  C   UNL     1      -9.234  19.999  66.957  1.00  0.00    -0.376 C  
HETATM    2  C   UNL     1      -8.837  19.435  68.309  1.00  0.00    -0.382 C  
HETATM    3  O   UNL     1      -6.858  19.664  67.069  1.00  0.00    -0.199 OA 
HETATM    4  C   UNL     1      -7.374  19.780  68.398  1.00  0.00    -0.313 C  
HETATM    5  C   UNL     1      -7.961  19.760  66.148  1.00  0.00    -0.340 C  
ENDROOT
BRANCH   1   6
HETATM    6  O   UNL     1     -10.357  19.257  66.492  1.00  0.00    -0.381 OA 
BRANCH   6   7
HETATM    7  C   UNL     1     -10.425  17.924  66.771  1.00  0.00    -0.311 A  
HETATM    8  C   UNL     1      -9.936  15.572  66.469  1.00  0.00    -0.283 A  
HETATM    9  C   UNL     1      -9.881  16.898  66.005  1.00  0.00    -0.281 A  
HETATM   10  C   UNL     1     -10.534  15.258  67.701  1.00  0.00    -0.263 A  
HETATM   11  C   UNL     1     -11.036  17.616  67.988  1.00  0.00    -0.107 A  
HETATM   12  C   UNL     1     -11.100  16.298  68.447  1.00  0.00    -0.362 A  
BRANCH  10  13
HETATM   13  C   UNL     1     -10.500  13.845  68.258  1.00  0.00    -0.252 C  
BRANCH  13  14
HETATM   14  C   UNL     1      -9.131  13.204  68.131  1.00  0.00    -0.200 A  
HETATM   15  C   UNL     1      -7.948  13.791  68.600  1.00  0.00    -0.095 A  
HETATM   16 CL   UNL     1      -7.937  15.270  69.491  1.00  0.00    -0.228 Cl 
HETATM   17  C   UNL     1      -6.709  13.204  68.322  1.00  0.00    -0.101 A  
HETATM   18  C   UNL     1      -6.631  12.071  67.510  1.00  0.00    -0.123 A  
HETATM   19  C   UNL     1      -7.792  11.491  66.984  1.00  0.00    -0.161 A  
HETATM   20  C   UNL     1      -9.033  12.018  67.380  1.00  0.00    -0.176 A  
BRANCH  19  21
HETATM   21  C   UNL     1      -7.693  10.476  65.854  1.00  0.00    -0.148 C  
HETATM   22  O   UNL     1      -8.657  10.834  64.844  1.00  0.00    -0.168 OA 
HETATM   23  C   UNL     1      -8.475  10.119  63.617  1.00  0.00    -0.184 C  
HETATM   24  H   UNL     1      -6.891   7.685  67.410  1.00  0.00     0.000 HD 
HETATM   25  C   UNL     1      -8.688   8.625  63.859  1.00  0.00     0.107 C  
HETATM   26  O   UNL     1      -6.808   8.601  67.173  1.00  0.00    -0.065 OA 
HETATM   27  C   UNL     1      -7.724   8.137  64.951  1.00  0.00    -0.116 C  
HETATM   28  O   UNL     1      -8.482   7.846  62.676  1.00  0.00    -0.368 OA 
HETATM   29  H   UNL     1      -7.379   6.451  65.896  1.00  0.00     0.000 HD 
HETATM   30  C   UNL     1      -7.829   8.984  66.240  1.00  0.00    -0.099 C  
HETATM   31  H   UNL     1      -8.614   6.917  62.827  1.00  0.00     0.000 HD 
HETATM   32  O   UNL     1      -7.975   6.753  65.220  1.00  0.00    -0.113 OA 
BRANCH  23  33
HETATM   33  C   UNL     1      -9.472  10.679  62.596  1.00  0.00    -0.301 C  
HETATM   34  O   UNL     1      -9.701  12.069  62.870  1.00  0.00    -0.510 OA 
HETATM   35  H   UNL     1     -10.319  12.417  62.238  1.00  0.00     0.000 HD 
ENDBRANCH  23  33
ENDBRANCH  19  21
ENDBRANCH  13  14
ENDBRANCH  10  13
ENDBRANCH   6   7
ENDBRANCH   1   6
TORSDOF 6
ENDMDL
MODEL      208
REMARK 921   NORMALIZED FREE ENERGY PREDICTED BY IDOCK:   -4.78 KCAL/MOL
REMARK 922        TOTAL FREE ENERGY PREDICTED BY IDOCK:   -7.42 KCAL/MOL
REMARK 923 INTER-LIGAND FREE ENERGY PREDICTED BY IDOCK:   -6.38 KCAL/MOL
REMARK 924 INTRA-LIGAND FREE ENERGY PREDICTED BY IDOCK:   -1.04 KCAL/MOL
REMARK 927      BINDING AFFINITY PREDICTED BY RF-SCORE:    0.00 PKD
ROOT
HETATM    1  C   UNL     1     -10.338  13.795  68.143  1.00  0.00    -0.252 C  
HETATM    2  C   UNL     1      -9.607  15.123  68.218  1.00  0.00    -0.211 C  
HETATM    3  O   UNL     1     -11.466  15.298  69.638  1.00  0.00    -0.263 OA 
HETATM    4  C   UNL     1     -10.100  15.702  69.517  1.00  0.00    -0.277 C  
HETATM    5  C   UNL     1     -11.673  14.151  68.791  1.00  0.00    -0.345 C  
ENDROOT
BRANCH   1   6
HETATM    6  O   UNL     1     -10.444  13.437  66.769  1.00  0.00    -0.270 OA 
BRANCH   6   7
HETATM    7  C   UNL     1      -9.858  12.281  66.343  1.00  0.00    -0.230 A  
HETATM    8  C   UNL     1      -8.143  10.575  66.248  1.00  0.00    -0.142 A  
HETATM    9  C   UNL     1      -8.580  11.841  66.675  1.00  0.00    -0.170 A  
HETATM   10  C   UNL     1      -8.977   9.737  65.488  1.00  0.00    -0.214 A  
HETATM   11  C   UNL     1     -10.684  11.461  65.574  1.00  0.00    -0.313 A  
HETATM   12  C   UNL     1     -10.248  10.206  65.141  1.00  0.00    -0.233 A  
BRANCH  10  13
HETATM   13  C   UNL     1      -8.551   8.326  65.118  1.00  0.00    -0.132 C  
BRANCH  13  14
HETATM   14  C   UNL     1      -8.151   7.504  66.328  1.00  0.00    -0.113 A  
HETATM   15  C   UNL     1      -7.491   6.270  66.250  1.00  0.00    -0.086 A  
HETATM   16 CL   UNL     1      -6.948   5.602  64.753  1.00  0.00    -0.051 Cl 
HETATM   17  C   UNL     1      -7.280   5.507  67.403  1.00  0.00    -0.075 A  
HETATM   18  C   UNL     1      -7.793   5.929  68.632  1.00  0.00    -0.102 A  
HETATM   19  C   UNL     1      -8.501   7.133  68.732  1.00  0.00    -0.126 A  
HETATM   20  C   UNL     1      -8.590   7.946  67.590  1.00  0.00    -0.127 A  
BRANCH  19  21
HETATM   21  C   UNL     1      -9.330   7.429  69.975  1.00  0.00    -0.151 C  
HETATM   22  O   UNL     1      -8.442   7.460  71.109  1.00  0.00    -0.116 OA 
HETATM   23  C   UNL     1      -9.055   7.994  72.287  1.00  0.00    -0.176 C  
HETATM   24  H   UNL     1     -12.216   5.978  69.325  1.00  0.00     0.000 HD 
HETATM   25  C   UNL     1     -10.214   7.093  72.713  1.00  0.00    -0.209 C  
HETATM   26  O   UNL     1     -11.474   6.547  69.159  1.00  0.00    -0.306 OA 
HETATM   27  C   UNL     1     -11.218   6.962  71.557  1.00  0.00    -0.256 C  
HETATM   28  O   UNL     1     -10.898   7.592  73.867  1.00  0.00    -0.534 OA 
HETATM   29  H   UNL     1     -12.886   5.983  71.224  1.00  0.00     0.000 HD 
HETATM   30  C   UNL     1     -10.538   6.502  70.246  1.00  0.00    -0.228 C  
HETATM   31  H   UNL     1     -11.619   7.032  74.131  1.00  0.00     0.000 HD 
HETATM   32  O   UNL     1     -12.266   6.063  71.939  1.00  0.00    -0.209 OA 
BRANCH  23  33
HETATM   33  C   UNL     1      -7.979   8.090  73.374  1.00  0.00    -0.183 C  
HETATM   34  O   UNL     1      -8.511   8.787  74.509  1.00  0.00    -0.283 OA 
HETATM   35  H   UNL     1      -7.843   8.847  75.183  1.00  0.00     0.000 HD 
ENDBRANCH  23  33
ENDBRANCH  19  21
ENDBRANCH  13  14
ENDBRANCH  10  13
ENDBRANCH   6   7
ENDBRANCH   1   6
TORSDOF 6
ENDMDL
MODEL      209
REMARK 921   NORMALIZED FREE ENERGY PREDICTED BY IDOCK:   -4.75 KCAL/MOL
REMARK 922        TOTAL FREE ENERGY PREDICTED BY IDOCK:   -7.39 KCAL/MOL
REMARK 923 INTER-LIGAND FREE ENERGY PREDICTED BY IDOCK:   -6.18 KCAL/MOL
REMARK 924 INTRA-LIGAND FREE ENERGY PREDICTED BY IDOCK:   -1.21 KCAL/MOL
REMARK 927      BINDING AFFINITY PREDICTED BY RF-SCORE:    0.00 PKD
ROOT
HETATM    1  C   UNL     1     -10.537  15.300  66.725  1.00  0.00    -0.304 C  
HETATM    2  C   UNL     1     -10.483  16.384  65.665  1.00  0.00    -0.364 C  
HETATM    3  O   UNL     1     -10.670  17.475  67.734  1.00  0.00    -0.380 OA 
HETATM    4  C   UNL     1     -10.054  17.596  66.449  1.00  0.00    -0.356 C  
HETATM    5  C   UNL     1     -11.014  16.091  67.940  1.00  0.00    -0.327 C  
ENDROOT
BRANCH   1   6
HETATM    6  O   UNL     1     -11.463  14.311  66.285  1.00  0.00    -0.337 OA 
BRANCH   6   7
HETATM    7  C   UNL     1     -11.215  13.002  66.578  1.00  0.00    -0.302 A  
HETATM    8  C   UNL     1     -11.388  10.948  67.847  1.00  0.00    -0.380 A  
HETATM    9  C   UNL     1     -11.622  12.328  67.725  1.00  0.00    -0.416 A  
HETATM   10  C   UNL     1     -10.745  10.227  66.825  1.00  0.00    -0.216 A  
HETATM   11  C   UNL     1     -10.562  12.295  65.567  1.00  0.00    -0.304 A  
HETATM   12  C   UNL     1     -10.319  10.925  65.690  1.00  0.00    -0.305 A  
BRANCH  10  13
HETATM   13  C   UNL     1     -10.587   8.718  66.904  1.00  0.00    -0.263 C  
BRANCH  13  14
HETATM   14  C   UNL     1      -9.216   8.303  67.402  1.00  0.00    -0.163 A  
HETATM   15  C   UNL     1      -8.140   7.993  66.560  1.00  0.00    -0.103 A  
HETATM   16 CL   UNL     1      -8.225   8.169  64.844  1.00  0.00    -0.155 Cl 
HETATM   17  C   UNL     1      -6.950   7.484  67.091  1.00  0.00    -0.083 A  
HETATM   18  C   UNL     1      -6.849   7.206  68.456  1.00  0.00    -0.076 A  
HETATM   19  C   UNL     1      -7.925   7.457  69.315  1.00  0.00    -0.118 A  
HETATM   20  C   UNL     1      -9.063   8.087  68.785  1.00  0.00    -0.144 A  
BRANCH  19  21
HETATM   21  C   UNL     1      -7.938   6.861  70.716  1.00  0.00    -0.106 C  
HETATM   22  O   UNL     1      -6.976   7.575  71.517  1.00  0.00    -0.053 OA 
HETATM   23  C   UNL     1      -7.087   7.290  72.915  1.00  0.00    -0.068 C  
HETATM   24  H   UNL     1      -8.605   3.679  70.180  1.00  0.00     0.000 HD 
HETATM   25  C   UNL     1      -6.790   5.811  73.160  1.00  0.00    -0.079 C  
HETATM   26  O   UNL     1      -8.738   4.617  70.112  1.00  0.00    -0.079 OA 
HETATM   27  C   UNL     1      -7.746   4.947  72.325  1.00  0.00    -0.091 C  
HETATM   28  O   UNL     1      -6.922   5.450  74.539  1.00  0.00    -0.076 OA 
HETATM   29  H   UNL     1      -8.010   3.031  71.991  1.00  0.00     0.000 HD 
HETATM   30  C   UNL     1      -7.721   5.333  70.828  1.00  0.00    -0.088 C  
HETATM   31  H   UNL     1      -6.738   4.530  74.691  1.00  0.00     0.000 HD 
HETATM   32  O   UNL     1      -7.418   3.565  72.508  1.00  0.00    -0.048 OA 
BRANCH  23  33
HETATM   33  C   UNL     1      -6.104   8.201  73.658  1.00  0.00    -0.093 C  
HETATM   34  O   UNL     1      -6.097   9.496  73.041  1.00  0.00    -0.297 OA 
HETATM   35  H   UNL     1      -5.487  10.061  73.502  1.00  0.00     0.000 HD 
ENDBRANCH  23  33
ENDBRANCH  19  21
ENDBRANCH  13  14
ENDBRANCH  10  13
ENDBRANCH   6   7
ENDBRANCH   1   6
TORSDOF 6
ENDMDL
MODEL      210
REMARK 921   NORMALIZED FREE ENERGY PREDICTED BY IDOCK:   -4.71 KCAL/MOL
REMARK 922        TOTAL FREE ENERGY PREDICTED BY IDOCK:   -7.33 KCAL/MOL
REMARK 923 INTER-LIGAND FREE ENERGY PREDICTED BY IDOCK:   -6.30 KCAL/MOL
REMARK 924 INTRA-LIGAND FREE ENERGY PREDICTED BY IDOCK:   -1.03 KCAL/MOL
REMARK 927      BINDING AFFINITY PREDICTED BY RF-SCORE:    0.00 PKD
ROOT
HETATM    1  C   UNL     1      -5.687  13.352  67.937  1.00  0.00    -0.129 C  
HETATM    2  C   UNL     1      -6.231  12.840  69.258  1.00  0.00    -0.105 C  
HETATM    3  O   UNL     1      -5.129  11.037  68.239  1.00  0.00    -0.040 OA 
HETATM    4  C   UNL     1      -5.383  11.624  69.519  1.00  0.00    -0.058 C  
HETATM    5  C   UNL     1      -5.331  12.046  67.232  1.00  0.00    -0.119 C  
ENDROOT
BRANCH   1   6
HETATM    6  O   UNL     1      -6.726  14.085  67.297  1.00  0.00    -0.244 OA 
BRANCH   6   7
HETATM    7  C   UNL     1      -8.022  13.729  67.531  1.00  0.00    -0.181 A  
HETATM    8  C   UNL     1     -10.004  12.352  67.352  1.00  0.00    -0.203 A  
HETATM    9  C   UNL     1      -8.700  12.669  66.937  1.00  0.00    -0.175 A  
HETATM   10  C   UNL     1     -10.645  13.089  68.363  1.00  0.00    -0.264 A  
HETATM   11  C   UNL     1      -8.658  14.476  68.523  1.00  0.00    -0.175 A  
HETATM   12  C   UNL     1      -9.959  14.168  68.931  1.00  0.00    -0.132 A  
BRANCH  10  13
HETATM   13  C   UNL     1     -12.010  12.683  68.892  1.00  0.00    -0.284 C  
BRANCH  13  14
HETATM   14  C   UNL     1     -11.970  11.379  69.665  1.00  0.00    -0.416 A  
HETATM   15  C   UNL     1     -12.378  11.249  70.999  1.00  0.00    -0.366 A  
HETATM   16 CL   UNL     1     -13.093  12.550  71.881  1.00  0.00    -0.509 Cl 
HETATM   17  C   UNL     1     -12.180  10.046  71.685  1.00  0.00    -0.456 A  
HETATM   18  C   UNL     1     -11.503   8.988  71.074  1.00  0.00    -0.358 A  
HETATM   19  C   UNL     1     -11.038   9.106  69.759  1.00  0.00    -0.140 A  
HETATM   20  C   UNL     1     -11.360  10.272  69.044  1.00  0.00    -0.237 A  
BRANCH  19  21
HETATM   21  C   UNL     1     -10.033   8.102  69.212  1.00  0.00    -0.188 C  
HETATM   22  O   UNL     1      -9.251   8.758  68.195  1.00  0.00    -0.140 OA 
HETATM   23  C   UNL     1      -8.100   8.004  67.799  1.00  0.00    -0.128 C  
HETATM   24  H   UNL     1     -11.642   5.233  69.412  1.00  0.00     0.000 HD 
HETATM   25  C   UNL     1      -8.545   6.685  67.170  1.00  0.00    -0.112 C  
HETATM   26  O   UNL     1     -11.295   6.058  69.732  1.00  0.00    -0.409 OA 
HETATM   27  C   UNL     1      -9.420   5.908  68.165  1.00  0.00    -0.115 C  
HETATM   28  O   UNL     1      -7.438   5.863  66.786  1.00  0.00    -0.084 OA 
HETATM   29  H   UNL     1     -10.430   4.225  68.160  1.00  0.00     0.000 HD 
HETATM   30  C   UNL     1     -10.599   6.759  68.691  1.00  0.00    -0.227 C  
HETATM   31  H   UNL     1      -7.715   5.042  66.395  1.00  0.00     0.000 HD 
HETATM   32  O   UNL     1      -9.889   4.704  67.545  1.00  0.00    -0.171 OA 
BRANCH  23  33
HETATM   33  C   UNL     1      -7.294   8.861  66.817  1.00  0.00    -0.082 C  
HETATM   34  O   UNL     1      -5.924   8.433  66.827  1.00  0.00    -0.050 OA 
HETATM   35  H   UNL     1      -5.424   8.964  66.219  1.00  0.00     0.000 HD 
ENDBRANCH  23  33
ENDBRANCH  19  21
ENDBRANCH  13  14
ENDBRANCH  10  13
ENDBRANCH   6   7
ENDBRANCH   1   6
TORSDOF 6
ENDMDL
MODEL      211
REMARK 921   NORMALIZED FREE ENERGY PREDICTED BY IDOCK:   -4.70 KCAL/MOL
REMARK 922        TOTAL FREE ENERGY PREDICTED BY IDOCK:   -7.32 KCAL/MOL
REMARK 923 INTER-LIGAND FREE ENERGY PREDICTED BY IDOCK:   -5.95 KCAL/MOL
REMARK 924 INTRA-LIGAND FREE ENERGY PREDICTED BY IDOCK:   -1.37 KCAL/MOL
REMARK 927      BINDING AFFINITY PREDICTED BY RF-SCORE:    0.00 PKD
ROOT
HETATM    1  C   UNL     1     -10.142   4.717  71.790  1.00  0.00    -0.193 C  
HETATM    2  C   UNL     1      -8.901   4.314  72.566  1.00  0.00    -0.119 C  
HETATM    3  O   UNL     1     -10.726   4.012  74.010  1.00  0.00    -0.209 OA 
HETATM    4  C   UNL     1      -9.460   3.444  73.661  1.00  0.00    -0.102 C  
HETATM    5  C   UNL     1     -11.173   4.827  72.910  1.00  0.00    -0.204 C  
ENDROOT
BRANCH   1   6
HETATM    6  O   UNL     1      -9.863   5.955  71.143  1.00  0.00    -0.174 OA 
BRANCH   6   7
HETATM    7  C   UNL     1      -9.704   5.967  69.788  1.00  0.00    -0.160 A  
HETATM    8  C   UNL     1     -10.415   6.098  67.478  1.00  0.00    -0.301 A  
HETATM    9  C   UNL     1     -10.726   5.978  68.844  1.00  0.00    -0.384 A  
HETATM   10  C   UNL     1      -9.084   6.207  67.043  1.00  0.00    -0.119 A  
HETATM   11  C   UNL     1      -8.379   6.059  69.361  1.00  0.00    -0.115 A  
HETATM   12  C   UNL     1      -8.067   6.168  68.003  1.00  0.00    -0.114 A  
BRANCH  10  13
HETATM   13  C   UNL     1      -8.749   6.447  65.580  1.00  0.00    -0.076 C  
BRANCH  13  14
HETATM   14  C   UNL     1      -8.430   7.900  65.288  1.00  0.00    -0.119 A  
HETATM   15  C   UNL     1      -7.283   8.326  64.604  1.00  0.00    -0.083 A  
HETATM   16 CL   UNL     1      -6.156   7.220  63.906  1.00  0.00    -0.044 Cl 
HETATM   17  C   UNL     1      -6.990   9.689  64.495  1.00  0.00    -0.117 A  
HETATM   18  C   UNL     1      -7.794  10.637  65.133  1.00  0.00    -0.015 A  
HETATM   19  C   UNL     1      -8.918  10.239  65.866  1.00  0.00    -0.181 A  
HETATM   20  C   UNL     1      -9.268   8.879  65.855  1.00  0.00    -0.290 A  
BRANCH  19  21
HETATM   21  C   UNL     1      -9.594  11.217  66.818  1.00  0.00    -0.193 C  
HETATM   22  O   UNL     1     -10.037  10.483  67.976  1.00  0.00    -0.158 OA 
HETATM   23  C   UNL     1     -10.443  11.331  69.055  1.00  0.00    -0.194 C  
HETATM   24  H   UNL     1     -10.983  13.410  64.788  1.00  0.00     0.000 HD 
HETATM   25  C   UNL     1     -11.650  12.164  68.625  1.00  0.00    -0.321 C  
HETATM   26  O   UNL     1     -10.278  12.883  65.145  1.00  0.00    -0.288 OA 
HETATM   27  C   UNL     1     -11.297  12.972  67.368  1.00  0.00    -0.305 C  
HETATM   28  O   UNL     1     -12.084  13.064  69.650  1.00  0.00    -0.297 OA 
HETATM   29  H   UNL     1     -12.234  14.198  66.154  1.00  0.00     0.000 HD 
HETATM   30  C   UNL     1     -10.742  12.076  66.237  1.00  0.00    -0.267 C  
HETATM   31  H   UNL     1     -12.834  13.583  69.382  1.00  0.00     0.000 HD 
HETATM   32  O   UNL     1     -12.453  13.698  66.931  1.00  0.00    -0.320 OA 
BRANCH  23  33
HETATM   33  C   UNL     1     -10.766  10.437  70.257  1.00  0.00    -0.187 C  
HETATM   34  O   UNL     1     -12.133  10.636  70.644  1.00  0.00    -0.302 OA 
HETATM   35  H   UNL     1     -12.334  10.082  71.389  1.00  0.00     0.000 HD 
ENDBRANCH  23  33
ENDBRANCH  19  21
ENDBRANCH  13  14
ENDBRANCH  10  13
ENDBRANCH   6   7
ENDBRANCH   1   6
TORSDOF 6
ENDMDL
MODEL      212
REMARK 921   NORMALIZED FREE ENERGY PREDICTED BY IDOCK:   -4.70 KCAL/MOL
REMARK 922        TOTAL FREE ENERGY PREDICTED BY IDOCK:   -7.32 KCAL/MOL
REMARK 923 INTER-LIGAND FREE ENERGY PREDICTED BY IDOCK:   -6.13 KCAL/MOL
REMARK 924 INTRA-LIGAND FREE ENERGY PREDICTED BY IDOCK:   -1.18 KCAL/MOL
REMARK 927      BINDING AFFINITY PREDICTED BY RF-SCORE:    0.00 PKD
ROOT
HETATM    1  C   UNL     1      -9.424   4.572  64.524  1.00  0.00    -0.084 C  
HETATM    2  C   UNL     1      -9.379   4.715  63.014  1.00  0.00    -0.018 C  
HETATM    3  O   UNL     1     -10.532   2.722  63.467  1.00  0.00    -0.179 OA 
HETATM    4  C   UNL     1     -10.509   3.829  62.560  1.00  0.00    -0.200 C  
HETATM    5  C   UNL     1      -9.853   3.115  64.675  1.00  0.00    -0.094 C  
ENDROOT
BRANCH   1   6
HETATM    6  O   UNL     1      -8.118   4.841  65.023  1.00  0.00    -0.097 OA 
BRANCH   6   7
HETATM    7  C   UNL     1      -7.941   5.901  65.863  1.00  0.00    -0.109 A  
HETATM    8  C   UNL     1      -7.904   8.236  66.502  1.00  0.00    -0.093 A  
HETATM    9  C   UNL     1      -8.001   7.245  65.509  1.00  0.00    -0.122 A  
HETATM   10  C   UNL     1      -7.746   7.894  67.856  1.00  0.00    -0.125 A  
HETATM   11  C   UNL     1      -7.768   5.556  67.204  1.00  0.00    -0.100 A  
HETATM   12  C   UNL     1      -7.662   6.539  68.192  1.00  0.00    -0.105 A  
BRANCH  10  13
HETATM   13  C   UNL     1      -7.750   8.956  68.944  1.00  0.00    -0.095 C  
BRANCH  13  14
HETATM   14  C   UNL     1      -8.900   9.933  68.796  1.00  0.00    -0.136 A  
HETATM   15  C   UNL     1     -10.250   9.573  68.898  1.00  0.00    -0.199 A  
HETATM   16 CL   UNL     1     -10.754   7.978  69.328  1.00  0.00    -0.185 Cl 
HETATM   17  C   UNL     1     -11.255  10.503  68.611  1.00  0.00    -0.328 A  
HETATM   18  C   UNL     1     -10.924  11.778  68.145  1.00  0.00    -0.275 A  
HETATM   19  C   UNL     1      -9.584  12.150  67.984  1.00  0.00    -0.204 A  
HETATM   20  C   UNL     1      -8.591  11.248  68.399  1.00  0.00    -0.155 A  
BRANCH  19  21
HETATM   21  C   UNL     1      -9.230  13.395  67.181  1.00  0.00    -0.240 C  
HETATM   22  O   UNL     1      -8.647  14.358  68.079  1.00  0.00    -0.150 OA 
HETATM   23  C   UNL     1      -8.029  15.457  67.400  1.00  0.00    -0.188 C  
HETATM   24  H   UNL     1     -11.578  13.498  64.871  1.00  0.00     0.000 HD 
HETATM   25  C   UNL     1      -9.086  16.232  66.615  1.00  0.00    -0.248 C  
HETATM   26  O   UNL     1     -10.881  13.106  65.383  1.00  0.00    -0.275 OA 
HETATM   27  C   UNL     1      -9.800  15.286  65.638  1.00  0.00    -0.348 C  
HETATM   28  O   UNL     1      -8.526  17.324  65.879  1.00  0.00    -0.533 OA 
HETATM   29  H   UNL     1     -11.275  15.419  64.350  1.00  0.00     0.000 HD 
HETATM   30  C   UNL     1     -10.365  14.035  66.348  1.00  0.00    -0.289 C  
HETATM   31  H   UNL     1      -9.184  17.806  65.391  1.00  0.00     0.000 HD 
HETATM   32  O   UNL     1     -10.834  16.004  64.954  1.00  0.00    -0.534 OA 
BRANCH  23  33
HETATM   33  C   UNL     1      -7.344  16.333  68.454  1.00  0.00    -0.158 C  
HETATM   34  O   UNL     1      -8.010  17.602  68.523  1.00  0.00    -0.267 OA 
HETATM   35  H   UNL     1      -7.585  18.146  69.176  1.00  0.00     0.000 HD 
ENDBRANCH  23  33
ENDBRANCH  19  21
ENDBRANCH  13  14
ENDBRANCH  10  13
ENDBRANCH   6   7
ENDBRANCH   1   6
TORSDOF 6
ENDMDL
MODEL      213
REMARK 921   NORMALIZED FREE ENERGY PREDICTED BY IDOCK:   -4.70 KCAL/MOL
REMARK 922        TOTAL FREE ENERGY PREDICTED BY IDOCK:   -7.31 KCAL/MOL
REMARK 923 INTER-LIGAND FREE ENERGY PREDICTED BY IDOCK:   -6.99 KCAL/MOL
REMARK 924 INTRA-LIGAND FREE ENERGY PREDICTED BY IDOCK:   -0.32 KCAL/MOL
REMARK 927      BINDING AFFINITY PREDICTED BY RF-SCORE:    0.00 PKD
ROOT
HETATM    1  C   UNL     1      -9.319   3.839  69.681  1.00  0.00    -0.175 C  
HETATM    2  C   UNL     1      -9.641   4.049  71.149  1.00  0.00    -0.242 C  
HETATM    3  O   UNL     1      -9.097   1.781  70.898  1.00  0.00    -0.071 OA 
HETATM    4  C   UNL     1      -8.969   2.876  71.810  1.00  0.00    -0.083 C  
HETATM    5  C   UNL     1      -9.344   2.316  69.584  1.00  0.00    -0.093 C  
ENDROOT
BRANCH   1   6
HETATM    6  O   UNL     1     -10.337   4.480  68.919  1.00  0.00     0.023 OA 
BRANCH   6   7
HETATM    7  C   UNL     1     -10.348   5.843  68.852  1.00  0.00    -0.228 A  
HETATM    8  C   UNL     1     -10.087   8.008  67.802  1.00  0.00    -0.250 A  
HETATM    9  C   UNL     1      -9.919   6.613  67.775  1.00  0.00    -0.158 A  
HETATM   10  C   UNL     1     -10.685   8.647  68.901  1.00  0.00    -0.109 A  
HETATM   11  C   UNL     1     -10.927   6.473  69.954  1.00  0.00    -0.393 A  
HETATM   12  C   UNL     1     -11.087   7.861  69.986  1.00  0.00    -0.165 A  
BRANCH  10  13
HETATM   13  C   UNL     1     -10.968  10.140  68.888  1.00  0.00    -0.261 C  
BRANCH  13  14
HETATM   14  C   UNL     1      -9.763  10.956  68.461  1.00  0.00    -0.183 A  
HETATM   15  C   UNL     1      -8.519  10.908  69.105  1.00  0.00    -0.055 A  
HETATM   16 CL   UNL     1      -8.185   9.810  70.395  1.00  0.00    -0.192 Cl 
HETATM   17  C   UNL     1      -7.499  11.792  68.739  1.00  0.00    -0.109 A  
HETATM   18  C   UNL     1      -7.733  12.784  67.783  1.00  0.00    -0.152 A  
HETATM   19  C   UNL     1      -8.982  12.890  67.160  1.00  0.00    -0.219 A  
HETATM   20  C   UNL     1      -9.950  11.913  67.446  1.00  0.00    -0.201 A  
BRANCH  19  21
HETATM   21  C   UNL     1      -9.340  14.146  66.378  1.00  0.00    -0.230 C  
HETATM   22  O   UNL     1      -9.406  15.248  67.305  1.00  0.00    -0.199 OA 
HETATM   23  C   UNL     1      -9.466  16.523  66.657  1.00  0.00    -0.258 C  
HETATM   24  H   UNL     1     -11.290  13.015  63.976  1.00  0.00     0.000 HD 
HETATM   25  C   UNL     1     -10.750  16.617  65.834  1.00  0.00    -0.175 C  
HETATM   26  O   UNL     1     -10.508  13.052  64.513  1.00  0.00    -0.359 OA 
HETATM   27  C   UNL     1     -10.801  15.462  64.823  1.00  0.00    -0.364 C  
HETATM   28  O   UNL     1     -10.855  17.858  65.127  1.00  0.00    -0.672 OA 
HETATM   29  H   UNL     1     -12.069  14.803  63.477  1.00  0.00     0.000 HD 
HETATM   30  C   UNL     1     -10.614  14.086  65.503  1.00  0.00    -0.318 C  
HETATM   31  H   UNL     1     -11.653  17.916  64.615  1.00  0.00     0.000 HD 
HETATM   32  O   UNL     1     -12.038  15.518  64.102  1.00  0.00    -0.564 OA 
BRANCH  23  33
HETATM   33  C   UNL     1      -9.404  17.603  67.743  1.00  0.00    -0.255 C  
HETATM   34  O   UNL     1      -9.990  17.097  68.951  1.00  0.00    -0.286 OA 
HETATM   35  H   UNL     1      -9.951  17.766  69.624  1.00  0.00     0.000 HD 
ENDBRANCH  23  33
ENDBRANCH  19  21
ENDBRANCH  13  14
ENDBRANCH  10  13
ENDBRANCH   6   7
ENDBRANCH   1   6
TORSDOF 6
ENDMDL
MODEL      214
REMARK 921   NORMALIZED FREE ENERGY PREDICTED BY IDOCK:   -4.69 KCAL/MOL
REMARK 922        TOTAL FREE ENERGY PREDICTED BY IDOCK:   -7.30 KCAL/MOL
REMARK 923 INTER-LIGAND FREE ENERGY PREDICTED BY IDOCK:   -6.87 KCAL/MOL
REMARK 924 INTRA-LIGAND FREE ENERGY PREDICTED BY IDOCK:   -0.43 KCAL/MOL
REMARK 927      BINDING AFFINITY PREDICTED BY RF-SCORE:    0.00 PKD
ROOT
HETATM    1  C   UNL     1      -8.204   6.695  72.044  1.00  0.00    -0.106 C  
HETATM    2  C   UNL     1      -8.644   6.096  70.721  1.00  0.00    -0.135 C  
HETATM    3  O   UNL     1      -6.922   4.728  71.539  1.00  0.00    -0.041 OA 
HETATM    4  C   UNL     1      -8.158   4.675  70.819  1.00  0.00    -0.084 C  
HETATM    5  C   UNL     1      -6.887   5.961  72.283  1.00  0.00    -0.073 C  
ENDROOT
BRANCH   1   6
HETATM    6  O   UNL     1      -8.054   8.098  71.856  1.00  0.00    -0.112 OA 
BRANCH   6   7
HETATM    7  C   UNL     1      -9.009   8.773  71.153  1.00  0.00    -0.222 A  
HETATM    8  C   UNL     1     -11.207   9.693  70.730  1.00  0.00    -0.403 A  
HETATM    9  C   UNL     1     -10.355   8.875  71.491  1.00  0.00    -0.394 A  
HETATM   10  C   UNL     1     -10.725  10.417  69.626  1.00  0.00    -0.304 A  
HETATM   11  C   UNL     1      -8.527   9.476  70.048  1.00  0.00    -0.210 A  
HETATM   12  C   UNL     1      -9.375  10.283  69.284  1.00  0.00    -0.221 A  
BRANCH  10  13
HETATM   13  C   UNL     1     -11.616  11.386  68.867  1.00  0.00    -0.388 C  
BRANCH  13  14
HETATM   14  C   UNL     1     -11.062  11.736  67.499  1.00  0.00    -0.330 A  
HETATM   15  C   UNL     1     -10.697  10.784  66.538  1.00  0.00    -0.181 A  
HETATM   16 CL   UNL     1     -10.954   9.091  66.765  1.00  0.00     0.069 Cl 
HETATM   17  C   UNL     1     -10.064  11.180  65.355  1.00  0.00    -0.317 A  
HETATM   18  C   UNL     1      -9.719  12.519  65.154  1.00  0.00    -0.042 A  
HETATM   19  C   UNL     1     -10.025  13.485  66.119  1.00  0.00    -0.310 A  
HETATM   20  C   UNL     1     -10.774  13.089  67.239  1.00  0.00    -0.261 A  
BRANCH  19  21
HETATM   21  C   UNL     1      -9.371  14.859  66.056  1.00  0.00    -0.241 C  
HETATM   22  O   UNL     1      -8.555  15.022  67.232  1.00  0.00    -0.179 OA 
HETATM   23  C   UNL     1      -7.682  16.154  67.157  1.00  0.00    -0.194 C  
HETATM   24  H   UNL     1     -11.633  16.704  64.527  1.00  0.00     0.000 HD 
HETATM   25  C   UNL     1      -8.513  17.434  67.068  1.00  0.00    -0.225 C  
HETATM   26  O   UNL     1     -11.055  15.960  64.644  1.00  0.00    -0.476 OA 
HETATM   27  C   UNL     1      -9.452  17.357  65.855  1.00  0.00     0.007 C  
HETATM   28  O   UNL     1      -7.698  18.605  66.951  1.00  0.00    -0.221 OA 
HETATM   29  H   UNL     1     -10.855  18.481  65.066  1.00  0.00     0.000 HD 
HETATM   30  C   UNL     1     -10.312  16.073  65.867  1.00  0.00    -0.368 C  
HETATM   31  H   UNL     1      -8.215  19.401  66.895  1.00  0.00     0.000 HD 
HETATM   32  O   UNL     1     -10.274  18.529  65.816  1.00  0.00    -0.568 OA 
BRANCH  23  33
HETATM   33  C   UNL     1      -6.788  16.140  68.401  1.00  0.00    -0.128 C  
HETATM   34  O   UNL     1      -7.610  16.143  69.577  1.00  0.00    -0.207 OA 
HETATM   35  H   UNL     1      -7.055  16.134  70.349  1.00  0.00     0.000 HD 
ENDBRANCH  23  33
ENDBRANCH  19  21
ENDBRANCH  13  14
ENDBRANCH  10  13
ENDBRANCH   6   7
ENDBRANCH   1   6
TORSDOF 6
ENDMDL
MODEL      215
REMARK 921   NORMALIZED FREE ENERGY PREDICTED BY IDOCK:   -4.68 KCAL/MOL
REMARK 922        TOTAL FREE ENERGY PREDICTED BY IDOCK:   -7.29 KCAL/MOL
REMARK 923 INTER-LIGAND FREE ENERGY PREDICTED BY IDOCK:   -6.50 KCAL/MOL
REMARK 924 INTRA-LIGAND FREE ENERGY PREDICTED BY IDOCK:   -0.79 KCAL/MOL
REMARK 927      BINDING AFFINITY PREDICTED BY RF-SCORE:    0.00 PKD
ROOT
HETATM    1  C   UNL     1      -9.845   4.910  71.198  1.00  0.00    -0.192 C  
HETATM    2  C   UNL     1     -10.764   6.066  71.551  1.00  0.00    -0.309 C  
HETATM    3  O   UNL     1     -10.791   4.601  73.383  1.00  0.00    -0.219 OA 
HETATM    4  C   UNL     1     -10.831   5.993  73.053  1.00  0.00    -0.260 C  
HETATM    5  C   UNL     1     -10.224   3.889  72.267  1.00  0.00    -0.146 C  
ENDROOT
BRANCH   1   6
HETATM    6  O   UNL     1     -10.160   4.497  69.872  1.00  0.00    -0.234 OA 
BRANCH   6   7
HETATM    7  C   UNL     1      -9.503   5.080  68.828  1.00  0.00    -0.139 A  
HETATM    8  C   UNL     1      -9.165   5.761  66.530  1.00  0.00    -0.150 A  
HETATM    9  C   UNL     1      -9.878   5.022  67.490  1.00  0.00    -0.201 A  
HETATM   10  C   UNL     1      -8.071   6.564  66.897  1.00  0.00    -0.113 A  
HETATM   11  C   UNL     1      -8.408   5.863  69.197  1.00  0.00    -0.106 A  
HETATM   12  C   UNL     1      -7.691   6.591  68.243  1.00  0.00    -0.105 A  
BRANCH  10  13
HETATM   13  C   UNL     1      -7.366   7.449  65.882  1.00  0.00    -0.075 C  
BRANCH  13  14
HETATM   14  C   UNL     1      -8.309   8.429  65.212  1.00  0.00    -0.169 A  
HETATM   15  C   UNL     1      -8.148   8.896  63.901  1.00  0.00    -0.163 A  
HETATM   16 CL   UNL     1      -6.909   8.306  62.852  1.00  0.00    -0.086 Cl 
HETATM   17  C   UNL     1      -8.979   9.905  63.402  1.00  0.00    -0.278 A  
HETATM   18  C   UNL     1      -9.927  10.511  64.229  1.00  0.00    -0.398 A  
HETATM   19  C   UNL     1     -10.077  10.101  65.559  1.00  0.00    -0.338 A  
HETATM   20  C   UNL     1      -9.324   9.002  66.002  1.00  0.00    -0.305 A  
BRANCH  19  21
HETATM   21  C   UNL     1     -10.862  10.963  66.539  1.00  0.00    -0.171 C  
HETATM   22  O   UNL     1     -10.425  12.327  66.386  1.00  0.00    -0.230 OA 
HETATM   23  C   UNL     1     -11.272  13.267  67.055  1.00  0.00    -0.292 C  
HETATM   24  H   UNL     1     -11.337   8.952  69.106  1.00  0.00     0.000 HD 
HETATM   25  C   UNL     1     -11.239  13.004  68.560  1.00  0.00    -0.274 C  
HETATM   26  O   UNL     1     -11.357   9.214  68.193  1.00  0.00     0.207 OA 
HETATM   27  C   UNL     1     -11.662  11.554  68.840  1.00  0.00    -0.339 C  
HETATM   28  O   UNL     1     -12.099  13.887  69.287  1.00  0.00    -0.336 OA 
HETATM   29  H   UNL     1     -11.824  10.398  70.419  1.00  0.00     0.000 HD 
HETATM   30  C   UNL     1     -10.829  10.538  68.026  1.00  0.00    -0.263 C  
HETATM   31  H   UNL     1     -12.078  13.723  70.223  1.00  0.00     0.000 HD 
HETATM   32  O   UNL     1     -11.563  11.295  70.246  1.00  0.00    -0.311 OA 
BRANCH  23  33
HETATM   33  C   UNL     1     -10.775  14.675  66.711  1.00  0.00    -0.301 C  
HETATM   34  O   UNL     1      -9.451  14.852  67.234  1.00  0.00    -0.205 OA 
HETATM   35  H   UNL     1      -9.142  15.725  67.020  1.00  0.00     0.000 HD 
ENDBRANCH  23  33
ENDBRANCH  19  21
ENDBRANCH  13  14
ENDBRANCH  10  13
ENDBRANCH   6   7
ENDBRANCH   1   6
TORSDOF 6
ENDMDL
MODEL      216
REMARK 921   NORMALIZED FREE ENERGY PREDICTED BY IDOCK:   -4.68 KCAL/MOL
REMARK 922        TOTAL FREE ENERGY PREDICTED BY IDOCK:   -7.28 KCAL/MOL
REMARK 923 INTER-LIGAND FREE ENERGY PREDICTED BY IDOCK:   -7.16 KCAL/MOL
REMARK 924 INTRA-LIGAND FREE ENERGY PREDICTED BY IDOCK:   -0.12 KCAL/MOL
REMARK 927      BINDING AFFINITY PREDICTED BY RF-SCORE:    0.00 PKD
ROOT
HETATM    1  C   UNL     1      -9.102   8.626  64.718  1.00  0.00     0.238 C  
HETATM    2  C   UNL     1      -7.824   7.912  65.120  1.00  0.00    -0.114 C  
HETATM    3  O   UNL     1      -9.135   8.085  67.058  1.00  0.00    -0.135 OA 
HETATM    4  C   UNL     1      -8.219   7.211  66.392  1.00  0.00    -0.120 C  
HETATM    5  C   UNL     1      -9.682   8.993  66.082  1.00  0.00    -0.283 C  
ENDROOT
BRANCH   1   6
HETATM    6  O   UNL     1      -8.738   9.752  63.927  1.00  0.00    -0.185 OA 
BRANCH   6   7
HETATM    7  C   UNL     1      -9.352  10.947  64.164  1.00  0.00    -0.234 A  
HETATM    8  C   UNL     1     -10.982  12.703  63.820  1.00  0.00    -0.481 A  
HETATM    9  C   UNL     1     -10.367  11.512  63.398  1.00  0.00    -0.469 A  
HETATM   10  C   UNL     1     -10.590  13.342  65.009  1.00  0.00    -0.360 A  
HETATM   11  C   UNL     1      -8.947  11.585  65.337  1.00  0.00     0.012 A  
HETATM   12  C   UNL     1      -9.550  12.775  65.753  1.00  0.00    -0.102 A  
BRANCH  10  13
HETATM   13  C   UNL     1     -11.325  14.568  65.526  1.00  0.00    -0.335 C  
BRANCH  13  14
HETATM   14  C   UNL     1     -10.594  15.243  66.670  1.00  0.00    -0.304 A  
HETATM   15  C   UNL     1     -10.930  15.072  68.020  1.00  0.00    -0.284 A  
HETATM   16 CL   UNL     1     -12.151  13.967  68.539  1.00  0.00    -0.377 Cl 
HETATM   17  C   UNL     1     -10.299  15.836  69.008  1.00  0.00    -0.223 A  
HETATM   18  C   UNL     1      -9.385  16.831  68.654  1.00  0.00    -0.252 A  
HETATM   19  C   UNL     1      -9.067  17.060  67.310  1.00  0.00    -0.229 A  
HETATM   20  C   UNL     1      -9.612  16.198  66.345  1.00  0.00    -0.312 A  
BRANCH  19  21
HETATM   21  C   UNL     1      -8.339  18.334  66.905  1.00  0.00    -0.245 C  
HETATM   22  O   UNL     1      -7.327  17.986  65.941  1.00  0.00    -0.428 OA 
HETATM   23  C   UNL     1      -6.759  19.125  65.286  1.00  0.00    -0.198 C  
HETATM   24  H   UNL     1      -8.397  20.147  69.656  1.00  0.00     0.000 HD 
HETATM   25  C   UNL     1      -6.046  20.002  66.313  1.00  0.00    -0.174 C  
HETATM   26  O   UNL     1      -8.764  19.622  68.955  1.00  0.00    -0.317 OA 
HETATM   27  C   UNL     1      -7.032  20.412  67.417  1.00  0.00    -0.293 C  
HETATM   28  O   UNL     1      -5.487  21.183  65.728  1.00  0.00    -0.213 OA 
HETATM   29  H   UNL     1      -6.951  21.430  69.093  1.00  0.00     0.000 HD 
HETATM   30  C   UNL     1      -7.740  19.190  68.046  1.00  0.00    -0.283 C  
HETATM   31  H   UNL     1      -5.043  21.729  66.367  1.00  0.00     0.000 HD 
HETATM   32  O   UNL     1      -6.341  21.177  68.411  1.00  0.00    -0.244 OA 
BRANCH  23  33
HETATM   33  C   UNL     1      -5.799  18.615  64.206  1.00  0.00     0.076 C  
HETATM   34  O   UNL     1      -5.542  19.666  63.263  1.00  0.00    -0.289 OA 
HETATM   35  H   UNL     1      -4.947  19.350  62.593  1.00  0.00     0.000 HD 
ENDBRANCH  23  33
ENDBRANCH  19  21
ENDBRANCH  13  14
ENDBRANCH  10  13
ENDBRANCH   6   7
ENDBRANCH   1   6
TORSDOF 6
ENDMDL
MODEL      217
REMARK 921   NORMALIZED FREE ENERGY PREDICTED BY IDOCK:   -4.65 KCAL/MOL
REMARK 922        TOTAL FREE ENERGY PREDICTED BY IDOCK:   -7.25 KCAL/MOL
REMARK 923 INTER-LIGAND FREE ENERGY PREDICTED BY IDOCK:   -6.11 KCAL/MOL
REMARK 924 INTRA-LIGAND FREE ENERGY PREDICTED BY IDOCK:   -1.14 KCAL/MOL
REMARK 927      BINDING AFFINITY PREDICTED BY RF-SCORE:    0.00 PKD
ROOT
HETATM    1  C   UNL     1      -7.170   5.591  66.694  1.00  0.00    -0.074 C  
HETATM    2  C   UNL     1      -8.399   4.700  66.704  1.00  0.00    -0.106 C  
HETATM    3  O   UNL     1      -9.156   6.888  66.323  1.00  0.00    -0.156 OA 
HETATM    4  C   UNL     1      -9.417   5.527  65.965  1.00  0.00    -0.130 C  
HETATM    5  C   UNL     1      -7.802   6.976  66.805  1.00  0.00    -0.107 C  
ENDROOT
BRANCH   1   6
HETATM    6  O   UNL     1      -6.368   5.234  67.815  1.00  0.00    -0.037 OA 
BRANCH   6   7
HETATM    7  C   UNL     1      -6.644   5.797  69.026  1.00  0.00    -0.051 A  
HETATM    8  C   UNL     1      -6.521   7.478  70.763  1.00  0.00    -0.039 A  
HETATM    9  C   UNL     1      -6.063   6.951  69.543  1.00  0.00    -0.033 A  
HETATM   10  C   UNL     1      -7.561   6.860  71.478  1.00  0.00    -0.087 A  
HETATM   11  C   UNL     1      -7.666   5.169  69.739  1.00  0.00    -0.071 A  
HETATM   12  C   UNL     1      -8.116   5.686  70.956  1.00  0.00    -0.119 A  
BRANCH  10  13
HETATM   13  C   UNL     1      -8.133   7.485  72.739  1.00  0.00    -0.134 C  
BRANCH  13  14
HETATM   14  C   UNL     1      -9.536   8.023  72.536  1.00  0.00    -0.306 A  
HETATM   15  C   UNL     1     -10.689   7.406  73.040  1.00  0.00    -0.364 A  
HETATM   16 CL   UNL     1     -10.626   6.015  74.061  1.00  0.00    -0.250 Cl 
HETATM   17  C   UNL     1     -11.957   7.885  72.693  1.00  0.00    -0.299 A  
HETATM   18  C   UNL     1     -12.089   8.934  71.779  1.00  0.00    -0.432 A  
HETATM   19  C   UNL     1     -10.957   9.536  71.219  1.00  0.00    -0.440 A  
HETATM   20  C   UNL     1      -9.694   9.128  71.678  1.00  0.00    -0.263 A  
BRANCH  19  21
HETATM   21  C   UNL     1     -11.097  10.437  70.000  1.00  0.00    -0.314 C  
HETATM   22  O   UNL     1      -9.796  10.583  69.398  1.00  0.00    -0.221 OA 
HETATM   23  C   UNL     1      -9.842  11.182  68.099  1.00  0.00    -0.180 C  
HETATM   24  H   UNL     1     -13.499  12.519  70.867  1.00  0.00     0.000 HD 
HETATM   25  C   UNL     1     -10.391  12.604  68.211  1.00  0.00    -0.241 C  
HETATM   26  O   UNL     1     -13.092  11.672  70.730  1.00  0.00    -0.070 OA 
HETATM   27  C   UNL     1     -11.777  12.571  68.873  1.00  0.00    -0.322 C  
HETATM   28  O   UNL     1     -10.501  13.247  66.937  1.00  0.00    -0.258 OA 
HETATM   29  H   UNL     1     -13.112  13.891  69.446  1.00  0.00     0.000 HD 
HETATM   30  C   UNL     1     -11.758  11.818  70.223  1.00  0.00    -0.228 C  
HETATM   31  H   UNL     1     -10.842  14.132  67.006  1.00  0.00     0.000 HD 
HETATM   32  O   UNL     1     -12.255  13.912  69.036  1.00  0.00    -0.350 OA 
BRANCH  23  33
HETATM   33  C   UNL     1      -8.422  11.162  67.522  1.00  0.00    -0.126 C  
HETATM   34  O   UNL     1      -8.473  11.474  66.123  1.00  0.00    -0.298 OA 
HETATM   35  H   UNL     1      -7.593  11.462  65.765  1.00  0.00     0.000 HD 
ENDBRANCH  23  33
ENDBRANCH  19  21
ENDBRANCH  13  14
ENDBRANCH  10  13
ENDBRANCH   6   7
ENDBRANCH   1   6
TORSDOF 6
ENDMDL
MODEL      218
REMARK 921   NORMALIZED FREE ENERGY PREDICTED BY IDOCK:   -4.62 KCAL/MOL
REMARK 922        TOTAL FREE ENERGY PREDICTED BY IDOCK:   -7.20 KCAL/MOL
REMARK 923 INTER-LIGAND FREE ENERGY PREDICTED BY IDOCK:   -6.15 KCAL/MOL
REMARK 924 INTRA-LIGAND FREE ENERGY PREDICTED BY IDOCK:   -1.05 KCAL/MOL
REMARK 927      BINDING AFFINITY PREDICTED BY RF-SCORE:    0.00 PKD
ROOT
HETATM    1  C   UNL     1     -10.181  14.276  67.926  1.00  0.00    -0.237 C  
HETATM    2  C   UNL     1     -10.959  15.262  67.073  1.00  0.00    -0.324 C  
HETATM    3  O   UNL     1     -11.064  16.053  69.279  1.00  0.00    -0.285 OA 
HETATM    4  C   UNL     1     -10.971  16.503  67.924  1.00  0.00    -0.288 C  
HETATM    5  C   UNL     1     -10.621  14.683  69.330  1.00  0.00    -0.226 C  
ENDROOT
BRANCH   1   6
HETATM    6  O   UNL     1     -10.591  12.965  67.554  1.00  0.00    -0.224 OA 
BRANCH   6   7
HETATM    7  C   UNL     1     -10.735  12.020  68.527  1.00  0.00    -0.234 A  
HETATM    8  C   UNL     1     -11.926  10.701  70.171  1.00  0.00    -0.417 A  
HETATM    9  C   UNL     1     -11.886  11.780  69.272  1.00  0.00    -0.389 A  
HETATM   10  C   UNL     1     -10.819   9.851  70.336  1.00  0.00    -0.380 A  
HETATM   11  C   UNL     1      -9.627  11.190  68.699  1.00  0.00    -0.200 A  
HETATM   12  C   UNL     1      -9.661  10.122  69.599  1.00  0.00    -0.250 A  
BRANCH  10  13
HETATM   13  C   UNL     1     -10.894   8.620  71.224  1.00  0.00    -0.327 C  
BRANCH  13  14
HETATM   14  C   UNL     1      -9.772   7.638  70.950  1.00  0.00    -0.175 A  
HETATM   15  C   UNL     1      -8.658   7.473  71.785  1.00  0.00    -0.115 A  
HETATM   16 CL   UNL     1      -8.501   8.295  73.295  1.00  0.00    -0.285 Cl 
HETATM   17  C   UNL     1      -7.597   6.648  71.394  1.00  0.00    -0.093 A  
HETATM   18  C   UNL     1      -7.601   6.042  70.135  1.00  0.00    -0.095 A  
HETATM   19  C   UNL     1      -8.677   6.230  69.259  1.00  0.00    -0.124 A  
HETATM   20  C   UNL     1      -9.788   6.954  69.720  1.00  0.00    -0.177 A  
BRANCH  19  21
HETATM   21  C   UNL     1      -8.539   5.850  67.791  1.00  0.00    -0.105 C  
HETATM   22  O   UNL     1      -8.547   7.062  67.012  1.00  0.00    -0.119 OA 
HETATM   23  C   UNL     1      -8.155   6.857  65.650  1.00  0.00    -0.129 C  
HETATM   24  H   UNL     1     -10.111   2.961  67.603  1.00  0.00     0.000 HD 
HETATM   25  C   UNL     1      -9.160   5.935  64.962  1.00  0.00     0.262 C  
HETATM   26  O   UNL     1      -9.484   3.587  67.945  1.00  0.00    -0.187 OA 
HETATM   27  C   UNL     1      -9.256   4.610  65.734  1.00  0.00    -0.147 C  
HETATM   28  O   UNL     1      -8.804   5.656  63.604  1.00  0.00    -0.344 OA 
HETATM   29  H   UNL     1     -10.308   2.958  65.600  1.00  0.00     0.000 HD 
HETATM   30  C   UNL     1      -9.560   4.831  67.233  1.00  0.00    -0.163 C  
HETATM   31  H   UNL     1      -9.429   5.082  63.177  1.00  0.00     0.000 HD 
HETATM   32  O   UNL     1     -10.249   3.777  65.123  1.00  0.00    -0.136 OA 
BRANCH  23  33
HETATM   33  C   UNL     1      -8.082   8.229  64.972  1.00  0.00    -0.148 C  
HETATM   34  O   UNL     1      -7.330   8.118  63.755  1.00  0.00    -0.090 OA 
HETATM   35  H   UNL     1      -7.285   8.969  63.334  1.00  0.00     0.000 HD 
ENDBRANCH  23  33
ENDBRANCH  19  21
ENDBRANCH  13  14
ENDBRANCH  10  13
ENDBRANCH   6   7
ENDBRANCH   1   6
TORSDOF 6
ENDMDL
MODEL      219
REMARK 921   NORMALIZED FREE ENERGY PREDICTED BY IDOCK:   -4.60 KCAL/MOL
REMARK 922        TOTAL FREE ENERGY PREDICTED BY IDOCK:   -7.17 KCAL/MOL
REMARK 923 INTER-LIGAND FREE ENERGY PREDICTED BY IDOCK:   -6.06 KCAL/MOL
REMARK 924 INTRA-LIGAND FREE ENERGY PREDICTED BY IDOCK:   -1.12 KCAL/MOL
REMARK 927      BINDING AFFINITY PREDICTED BY RF-SCORE:    0.00 PKD
ROOT
HETATM    1  C   UNL     1      -7.698   8.153  66.382  1.00  0.00    -0.092 C  
HETATM    2  C   UNL     1      -7.379   9.559  65.907  1.00  0.00    -0.097 C  
HETATM    3  O   UNL     1      -5.865   8.125  64.832  1.00  0.00    -0.044 OA 
HETATM    4  C   UNL     1      -6.630   9.316  64.624  1.00  0.00    -0.077 C  
HETATM    5  C   UNL     1      -6.459   7.392  65.920  1.00  0.00    -0.045 C  
ENDROOT
BRANCH   1   6
HETATM    6  O   UNL     1      -7.849   8.199  67.797  1.00  0.00    -0.114 OA 
BRANCH   6   7
HETATM    7  C   UNL     1      -8.963   8.788  68.320  1.00  0.00    -0.141 A  
HETATM    8  C   UNL     1     -11.214   9.677  68.296  1.00  0.00    -0.008 A  
HETATM    9  C   UNL     1     -10.095   9.177  67.610  1.00  0.00    -0.273 A  
HETATM   10  C   UNL     1     -11.216   9.793  69.697  1.00  0.00    -0.216 A  
HETATM   11  C   UNL     1      -8.952   8.917  69.710  1.00  0.00    -0.149 A  
HETATM   12  C   UNL     1     -10.061   9.423  70.393  1.00  0.00    -0.310 A  
BRANCH  10  13
HETATM   13  C   UNL     1     -12.461  10.229  70.451  1.00  0.00    -0.296 C  
BRANCH  13  14
HETATM   14  C   UNL     1     -12.448  11.708  70.787  1.00  0.00    -0.425 A  
HETATM   15  C   UNL     1     -13.208  12.281  71.816  1.00  0.00    -0.326 A  
HETATM   16 CL   UNL     1     -14.161  11.336  72.903  1.00  0.00     1.485 Cl 
HETATM   17  C   UNL     1     -13.250  13.671  71.975  1.00  0.00    -0.522 A  
HETATM   18  C   UNL     1     -12.598  14.505  71.063  1.00  0.00    -0.410 A  
HETATM   19  C   UNL     1     -11.873  13.962  69.995  1.00  0.00    -0.384 A  
HETATM   20  C   UNL     1     -11.737  12.566  69.928  1.00  0.00    -0.327 A  
BRANCH  19  21
HETATM   21  C   UNL     1     -11.445  14.851  68.834  1.00  0.00    -0.299 C  
HETATM   22  O   UNL     1     -11.347  14.030  67.654  1.00  0.00    -0.284 OA 
HETATM   23  C   UNL     1     -11.218  14.793  66.450  1.00  0.00    -0.342 C  
HETATM   24  H   UNL     1      -9.504  17.092  70.271  1.00  0.00     0.000 HD 
HETATM   25  C   UNL     1      -9.917  15.593  66.489  1.00  0.00    -0.273 C  
HETATM   26  O   UNL     1     -10.294  16.578  70.149  1.00  0.00    -0.070 OA 
HETATM   27  C   UNL     1      -9.899  16.489  67.736  1.00  0.00    -0.240 C  
HETATM   28  O   UNL     1      -9.744  16.410  65.327  1.00  0.00    -0.433 OA 
HETATM   29  H   UNL     1      -8.638  17.739  68.573  1.00  0.00     0.000 HD 
HETATM   30  C   UNL     1     -10.160  15.688  69.032  1.00  0.00    -0.227 C  
HETATM   31  H   UNL     1      -8.935  16.908  65.351  1.00  0.00     0.000 HD 
HETATM   32  O   UNL     1      -8.648  17.185  67.801  1.00  0.00    -0.210 OA 
BRANCH  23  33
HETATM   33  C   UNL     1     -11.252  13.815  65.270  1.00  0.00    -0.307 C  
HETATM   34  O   UNL     1      -9.913  13.572  64.816  1.00  0.00    -0.599 OA 
HETATM   35  H   UNL     1      -9.933  12.966  64.084  1.00  0.00     0.000 HD 
ENDBRANCH  23  33
ENDBRANCH  19  21
ENDBRANCH  13  14
ENDBRANCH  10  13
ENDBRANCH   6   7
ENDBRANCH   1   6
TORSDOF 6
ENDMDL
MODEL      220
REMARK 921   NORMALIZED FREE ENERGY PREDICTED BY IDOCK:   -4.57 KCAL/MOL
REMARK 922        TOTAL FREE ENERGY PREDICTED BY IDOCK:   -7.14 KCAL/MOL
REMARK 923 INTER-LIGAND FREE ENERGY PREDICTED BY IDOCK:   -6.27 KCAL/MOL
REMARK 924 INTRA-LIGAND FREE ENERGY PREDICTED BY IDOCK:   -0.87 KCAL/MOL
REMARK 927      BINDING AFFINITY PREDICTED BY RF-SCORE:    0.00 PKD
ROOT
HETATM    1  C   UNL     1      -8.208   7.642  71.777  1.00  0.00    -0.108 C  
HETATM    2  C   UNL     1      -7.516   7.984  73.084  1.00  0.00    -0.171 C  
HETATM    3  O   UNL     1      -9.823   8.104  73.494  1.00  0.00    -0.175 OA 
HETATM    4  C   UNL     1      -8.588   7.724  74.108  1.00  0.00    -0.254 C  
HETATM    5  C   UNL     1      -9.635   8.100  72.066  1.00  0.00    -0.219 C  
ENDROOT
BRANCH   1   6
HETATM    6  O   UNL     1      -7.566   8.379  70.742  1.00  0.00    -0.060 OA 
BRANCH   6   7
HETATM    7  C   UNL     1      -7.447   7.812  69.508  1.00  0.00    -0.094 A  
HETATM    8  C   UNL     1      -8.105   6.419  67.640  1.00  0.00    -0.114 A  
HETATM    9  C   UNL     1      -8.284   6.839  68.970  1.00  0.00    -0.117 A  
HETATM   10  C   UNL     1      -7.091   6.967  66.836  1.00  0.00    -0.075 A  
HETATM   11  C   UNL     1      -6.428   8.347  68.719  1.00  0.00    -0.053 A  
HETATM   12  C   UNL     1      -6.243   7.925  67.400  1.00  0.00    -0.054 A  
BRANCH  10  13
HETATM   13  C   UNL     1      -6.963   6.598  65.367  1.00  0.00    -0.056 C  
BRANCH  13  14
HETATM   14  C   UNL     1      -7.567   7.644  64.450  1.00  0.00    -0.107 A  
HETATM   15  C   UNL     1      -7.163   7.847  63.124  1.00  0.00    -0.091 A  
HETATM   16 CL   UNL     1      -6.002   6.835  62.343  1.00  0.00    -0.038 Cl 
HETATM   17  C   UNL     1      -7.670   8.923  62.387  1.00  0.00    -0.117 A  
HETATM   18  C   UNL     1      -8.525   9.850  62.989  1.00  0.00    -0.175 A  
HETATM   19  C   UNL     1      -8.906   9.702  64.328  1.00  0.00    -0.260 A  
HETATM   20  C   UNL     1      -8.490   8.547  65.011  1.00  0.00    -0.183 A  
BRANCH  19  21
HETATM   21  C   UNL     1      -9.556  10.863  65.068  1.00  0.00    -0.251 C  
HETATM   22  O   UNL     1     -10.041  10.372  66.333  1.00  0.00    -0.212 OA 
HETATM   23  C   UNL     1     -10.428  11.419  67.230  1.00  0.00    -0.206 C  
HETATM   24  H   UNL     1     -10.835  12.688  62.642  1.00  0.00     0.000 HD 
HETATM   25  C   UNL     1     -11.597  12.199  66.630  1.00  0.00    -0.350 C  
HETATM   26  O   UNL     1     -10.155  12.212  63.104  1.00  0.00    -0.383 OA 
HETATM   27  C   UNL     1     -11.198  12.748  65.252  1.00  0.00    -0.293 C  
HETATM   28  O   UNL     1     -12.009  13.289  67.462  1.00  0.00    -0.356 OA 
HETATM   29  H   UNL     1     -12.073  13.759  63.815  1.00  0.00     0.000 HD 
HETATM   30  C   UNL     1     -10.664  11.638  64.317  1.00  0.00    -0.341 C  
HETATM   31  H   UNL     1     -12.736  13.774  67.088  1.00  0.00     0.000 HD 
HETATM   32  O   UNL     1     -12.320  13.420  64.667  1.00  0.00    -0.447 OA 
BRANCH  23  33
HETATM   33  C   UNL     1     -10.799  10.775  68.570  1.00  0.00    -0.228 C  
HETATM   34  O   UNL     1     -12.153  10.302  68.511  1.00  0.00    -0.678 OA 
HETATM   35  H   UNL     1     -12.383   9.902  69.341  1.00  0.00     0.000 HD 
ENDBRANCH  23  33
ENDBRANCH  19  21
ENDBRANCH  13  14
ENDBRANCH  10  13
ENDBRANCH   6   7
ENDBRANCH   1   6
TORSDOF 6
ENDMDL
MODEL      221
REMARK 921   NORMALIZED FREE ENERGY PREDICTED BY IDOCK:   -4.56 KCAL/MOL
REMARK 922        TOTAL FREE ENERGY PREDICTED BY IDOCK:   -7.12 KCAL/MOL
REMARK 923 INTER-LIGAND FREE ENERGY PREDICTED BY IDOCK:   -6.50 KCAL/MOL
REMARK 924 INTRA-LIGAND FREE ENERGY PREDICTED BY IDOCK:   -0.62 KCAL/MOL
REMARK 927      BINDING AFFINITY PREDICTED BY RF-SCORE:    0.00 PKD
ROOT
HETATM    1  C   UNL     1      -6.913   8.340  64.853  1.00  0.00    -0.074 C  
HETATM    2  C   UNL     1      -6.484   9.307  63.766  1.00  0.00    -0.091 C  
HETATM    3  O   UNL     1      -5.392   7.277  63.328  1.00  0.00    -0.032 OA 
HETATM    4  C   UNL     1      -6.006   8.390  62.672  1.00  0.00    -0.086 C  
HETATM    5  C   UNL     1      -5.890   7.220  64.679  1.00  0.00    -0.037 C  
ENDROOT
BRANCH   1   6
HETATM    6  O   UNL     1      -6.813   9.019  66.100  1.00  0.00    -0.078 OA 
BRANCH   6   7
HETATM    7  C   UNL     1      -7.847   9.814  66.501  1.00  0.00    -0.109 A  
HETATM    8  C   UNL     1     -10.146  10.563  66.614  1.00  0.00    -0.275 A  
HETATM    9  C   UNL     1      -9.156   9.751  66.034  1.00  0.00    -0.201 A  
HETATM   10  C   UNL     1      -9.839  11.445  67.664  1.00  0.00    -0.189 A  
HETATM   11  C   UNL     1      -7.532  10.699  67.533  1.00  0.00    -0.093 A  
HETATM   12  C   UNL     1      -8.513  11.514  68.104  1.00  0.00    -0.154 A  
BRANCH  10  13
HETATM   13  C   UNL     1     -10.924  12.243  68.367  1.00  0.00    -0.270 C  
BRANCH  13  14
HETATM   14  C   UNL     1     -11.594  11.459  69.479  1.00  0.00    -0.399 A  
HETATM   15  C   UNL     1     -12.381  12.043  70.481  1.00  0.00    -0.282 A  
HETATM   16 CL   UNL     1     -12.777  13.723  70.488  1.00  0.00    -0.334 Cl 
HETATM   17  C   UNL     1     -12.850  11.272  71.550  1.00  0.00    -0.519 A  
HETATM   18  C   UNL     1     -12.474   9.932  71.673  1.00  0.00    -0.507 A  
HETATM   19  C   UNL     1     -11.646   9.335  70.715  1.00  0.00    -0.345 A  
HETATM   20  C   UNL     1     -11.293  10.088  69.583  1.00  0.00    -0.253 A  
BRANCH  19  21
HETATM   21  C   UNL     1     -10.978   7.999  71.010  1.00  0.00    -0.241 C  
HETATM   22  O   UNL     1     -11.073   7.179  69.830  1.00  0.00    -0.254 OA 
HETATM   23  C   UNL     1     -10.250   6.010  69.891  1.00  0.00    -0.205 C  
HETATM   24  H   UNL     1     -11.596   7.536  74.213  1.00  0.00     0.000 HD 
HETATM   25  C   UNL     1     -10.719   5.114  71.037  1.00  0.00    -0.063 C  
HETATM   26  O   UNL     1     -11.291   8.008  73.448  1.00  0.00    -0.181 OA 
HETATM   27  C   UNL     1     -10.688   5.903  72.355  1.00  0.00    -0.232 C  
HETATM   28  O   UNL     1      -9.911   3.942  71.179  1.00  0.00    -0.180 OA 
HETATM   29  H   UNL     1     -11.173   5.567  74.227  1.00  0.00     0.000 HD 
HETATM   30  C   UNL     1     -11.476   7.230  72.257  1.00  0.00    -0.278 C  
HETATM   31  H   UNL     1     -10.202   3.385  71.892  1.00  0.00     0.000 HD 
HETATM   32  O   UNL     1     -11.193   5.079  73.412  1.00  0.00    -0.315 OA 
BRANCH  23  33
HETATM   33  C   UNL     1     -10.343   5.299  68.537  1.00  0.00    -0.112 C  
HETATM   34  O   UNL     1      -9.572   6.023  67.566  1.00  0.00    -0.112 OA 
HETATM   35  H   UNL     1      -9.629   5.582  66.727  1.00  0.00     0.000 HD 
ENDBRANCH  23  33
ENDBRANCH  19  21
ENDBRANCH  13  14
ENDBRANCH  10  13
ENDBRANCH   6   7
ENDBRANCH   1   6
TORSDOF 6
ENDMDL
MODEL      222
REMARK 921   NORMALIZED FREE ENERGY PREDICTED BY IDOCK:   -4.55 KCAL/MOL
REMARK 922        TOTAL FREE ENERGY PREDICTED BY IDOCK:   -7.12 KCAL/MOL
REMARK 923 INTER-LIGAND FREE ENERGY PREDICTED BY IDOCK:   -6.21 KCAL/MOL
REMARK 924 INTRA-LIGAND FREE ENERGY PREDICTED BY IDOCK:   -0.91 KCAL/MOL
REMARK 927      BINDING AFFINITY PREDICTED BY RF-SCORE:    0.00 PKD
ROOT
HETATM    1  C   UNL     1      -8.662   6.477  66.373  1.00  0.00    -0.140 C  
HETATM    2  C   UNL     1      -9.831   5.621  66.824  1.00  0.00    -0.185 C  
HETATM    3  O   UNL     1     -10.247   7.793  67.606  1.00  0.00    -0.187 OA 
HETATM    4  C   UNL     1     -10.910   6.638  67.083  1.00  0.00    -0.401 C  
HETATM    5  C   UNL     1      -8.859   7.727  67.226  1.00  0.00    -0.128 C  
ENDROOT
BRANCH   1   6
HETATM    6  O   UNL     1      -7.465   5.764  66.668  1.00  0.00    -0.081 OA 
BRANCH   6   7
HETATM    7  C   UNL     1      -7.024   5.725  67.958  1.00  0.00    -0.065 A  
HETATM    8  C   UNL     1      -5.895   6.546  69.936  1.00  0.00    -0.018 A  
HETATM    9  C   UNL     1      -6.184   6.654  68.565  1.00  0.00    -0.026 A  
HETATM   10  C   UNL     1      -6.442   5.511  70.714  1.00  0.00    -0.035 A  
HETATM   11  C   UNL     1      -7.557   4.686  68.722  1.00  0.00    -0.068 A  
HETATM   12  C   UNL     1      -7.264   4.571  70.083  1.00  0.00    -0.049 A  
BRANCH  10  13
HETATM   13  C   UNL     1      -6.222   5.453  72.217  1.00  0.00    -0.035 C  
BRANCH  13  14
HETATM   14  C   UNL     1      -7.458   5.849  73.000  1.00  0.00    -0.095 A  
HETATM   15  C   UNL     1      -8.073   5.028  73.955  1.00  0.00    -0.101 A  
HETATM   16 CL   UNL     1      -7.411   3.507  74.435  1.00  0.00    -0.053 Cl 
HETATM   17  C   UNL     1      -9.289   5.405  74.535  1.00  0.00    -0.135 A  
HETATM   18  C   UNL     1      -9.942   6.566  74.112  1.00  0.00    -0.344 A  
HETATM   19  C   UNL     1      -9.377   7.379  73.123  1.00  0.00    -0.235 A  
HETATM   20  C   UNL     1      -8.097   7.052  72.647  1.00  0.00    -0.115 A  
BRANCH  19  21
HETATM   21  C   UNL     1     -10.223   8.444  72.436  1.00  0.00    -0.329 C  
HETATM   22  O   UNL     1     -11.587   7.983  72.407  1.00  0.00    -0.339 OA 
HETATM   23  C   UNL     1     -12.517   9.005  72.034  1.00  0.00    -0.390 C  
HETATM   24  H   UNL     1      -8.161   9.732  70.213  1.00  0.00     0.000 HD 
HETATM   25  C   UNL     1     -12.222   9.468  70.607  1.00  0.00    -0.123 C  
HETATM   26  O   UNL     1      -8.441   9.452  71.076  1.00  0.00    -0.285 OA 
HETATM   27  C   UNL     1     -10.769   9.957  70.513  1.00  0.00    -0.317 C  
HETATM   28  O   UNL     1     -13.095  10.520  70.184  1.00  0.00    -0.459 OA 
HETATM   29  H   UNL     1      -9.581  10.627  69.102  1.00  0.00     0.000 HD 
HETATM   30  C   UNL     1      -9.766   8.900  71.031  1.00  0.00    -0.252 C  
HETATM   31  H   UNL     1     -12.911  10.808  69.297  1.00  0.00     0.000 HD 
HETATM   32  O   UNL     1     -10.480  10.325  69.159  1.00  0.00    -0.196 OA 
BRANCH  23  33
HETATM   33  C   UNL     1     -13.929   8.425  72.165  1.00  0.00    -0.364 C  
HETATM   34  O   UNL     1     -14.344   7.893  70.899  1.00  0.00    -0.656 OA 
HETATM   35  H   UNL     1     -15.220   7.533  70.980  1.00  0.00     0.000 HD 
ENDBRANCH  23  33
ENDBRANCH  19  21
ENDBRANCH  13  14
ENDBRANCH  10  13
ENDBRANCH   6   7
ENDBRANCH   1   6
TORSDOF 6
ENDMDL
MODEL      223
REMARK 921   NORMALIZED FREE ENERGY PREDICTED BY IDOCK:   -4.53 KCAL/MOL
REMARK 922        TOTAL FREE ENERGY PREDICTED BY IDOCK:   -7.09 KCAL/MOL
REMARK 923 INTER-LIGAND FREE ENERGY PREDICTED BY IDOCK:   -6.72 KCAL/MOL
REMARK 924 INTRA-LIGAND FREE ENERGY PREDICTED BY IDOCK:   -0.36 KCAL/MOL
REMARK 927      BINDING AFFINITY PREDICTED BY RF-SCORE:    0.00 PKD
ROOT
HETATM    1  C   UNL     1      -8.934  20.400  66.375  1.00  0.00    -0.094 C  
HETATM    2  C   UNL     1      -8.601  20.208  67.843  1.00  0.00    -0.267 C  
HETATM    3  O   UNL     1      -6.602  19.896  66.654  1.00  0.00    -0.191 OA 
HETATM    4  C   UNL     1      -7.112  20.429  67.880  1.00  0.00    -0.292 C  
HETATM    5  C   UNL     1      -7.686  19.829  65.707  1.00  0.00    -0.258 C  
ENDROOT
BRANCH   1   6
HETATM    6  O   UNL     1     -10.120  19.663  66.101  1.00  0.00    -0.419 OA 
BRANCH   6   7
HETATM    7  C   UNL     1     -10.262  18.420  66.643  1.00  0.00    -0.394 A  
HETATM    8  C   UNL     1     -10.152  16.002  66.692  1.00  0.00    -0.287 A  
HETATM    9  C   UNL     1     -10.076  17.211  65.980  1.00  0.00    -0.303 A  
HETATM   10  C   UNL     1     -10.415  15.988  68.073  1.00  0.00    -0.275 A  
HETATM   11  C   UNL     1     -10.540  18.412  68.011  1.00  0.00    -0.346 A  
HETATM   12  C   UNL     1     -10.626  17.211  68.719  1.00  0.00    -0.336 A  
BRANCH  10  13
HETATM   13  C   UNL     1     -10.391  14.693  68.868  1.00  0.00    -0.245 C  
BRANCH  13  14
HETATM   14  C   UNL     1      -9.217  13.807  68.498  1.00  0.00    -0.138 A  
HETATM   15  C   UNL     1      -7.877  14.154  68.718  1.00  0.00    -0.114 A  
HETATM   16 CL   UNL     1      -7.417  15.593  69.554  1.00  0.00    -0.213 Cl 
HETATM   17  C   UNL     1      -6.847  13.347  68.223  1.00  0.00    -0.106 A  
HETATM   18  C   UNL     1      -7.141  12.229  67.438  1.00  0.00    -0.151 A  
HETATM   19  C   UNL     1      -8.470  11.886  67.158  1.00  0.00    -0.173 A  
HETATM   20  C   UNL     1      -9.489  12.633  67.770  1.00  0.00    -0.198 A  
BRANCH  19  21
HETATM   21  C   UNL     1      -8.782  10.885  66.055  1.00  0.00    -0.186 C  
HETATM   22  O   UNL     1      -7.598  10.102  65.810  1.00  0.00    -0.121 OA 
HETATM   23  C   UNL     1      -7.843   8.954  64.991  1.00  0.00    -0.112 C  
HETATM   24  H   UNL     1     -10.928  12.504  64.148  1.00  0.00     0.000 HD 
HETATM   25  C   UNL     1      -8.315   9.405  63.609  1.00  0.00    -0.184 C  
HETATM   26  O   UNL     1     -10.581  12.153  64.960  1.00  0.00    -0.271 OA 
HETATM   27  C   UNL     1      -9.568  10.281  63.752  1.00  0.00    -0.284 C  
HETATM   28  O   UNL     1      -8.615   8.301  62.749  1.00  0.00    -0.401 OA 
HETATM   29  H   UNL     1     -10.739  11.297  62.548  1.00  0.00     0.000 HD 
HETATM   30  C   UNL     1      -9.347  11.456  64.732  1.00  0.00    -0.099 C  
HETATM   31  H   UNL     1      -8.909   8.581  61.890  1.00  0.00     0.000 HD 
HETATM   32  O   UNL     1      -9.964  10.755  62.459  1.00  0.00    -0.143 OA 
BRANCH  23  33
HETATM   33  C   UNL     1      -6.543   8.146  64.915  1.00  0.00    -0.055 C  
HETATM   34  O   UNL     1      -5.951   8.320  63.620  1.00  0.00    -0.069 OA 
HETATM   35  H   UNL     1      -5.145   7.819  63.572  1.00  0.00     0.000 HD 
ENDBRANCH  23  33
ENDBRANCH  19  21
ENDBRANCH  13  14
ENDBRANCH  10  13
ENDBRANCH   6   7
ENDBRANCH   1   6
TORSDOF 6
ENDMDL
MODEL      224
REMARK 921   NORMALIZED FREE ENERGY PREDICTED BY IDOCK:   -4.52 KCAL/MOL
REMARK 922        TOTAL FREE ENERGY PREDICTED BY IDOCK:   -7.07 KCAL/MOL
REMARK 923 INTER-LIGAND FREE ENERGY PREDICTED BY IDOCK:   -6.10 KCAL/MOL
REMARK 924 INTRA-LIGAND FREE ENERGY PREDICTED BY IDOCK:   -0.97 KCAL/MOL
REMARK 927      BINDING AFFINITY PREDICTED BY RF-SCORE:    0.00 PKD
ROOT
HETATM    1  C   UNL     1     -10.658  13.938  65.917  1.00  0.00    -0.293 C  
HETATM    2  C   UNL     1     -10.624  15.275  65.200  1.00  0.00    -0.453 C  
HETATM    3  O   UNL     1     -11.313  15.709  67.401  1.00  0.00    -0.281 OA 
HETATM    4  C   UNL     1     -10.533  16.260  66.335  1.00  0.00    -0.294 C  
HETATM    5  C   UNL     1     -11.446  14.292  67.176  1.00  0.00    -0.359 C  
ENDROOT
BRANCH   1   6
HETATM    6  O   UNL     1     -11.323  13.009  65.067  1.00  0.00    -0.288 OA 
BRANCH   6   7
HETATM    7  C   UNL     1     -10.619  11.951  64.570  1.00  0.00    -0.311 A  
HETATM    8  C   UNL     1      -9.309  10.737  62.937  1.00  0.00    -0.355 A  
HETATM    9  C   UNL     1     -10.109  11.840  63.280  1.00  0.00    -0.448 A  
HETATM   10  C   UNL     1      -9.010   9.735  63.876  1.00  0.00    -0.277 A  
HETATM   11  C   UNL     1     -10.339  10.952  65.503  1.00  0.00    -0.316 A  
HETATM   12  C   UNL     1      -9.551   9.849  65.161  1.00  0.00    -0.367 A  
BRANCH  10  13
HETATM   13  C   UNL     1      -8.058   8.599  63.542  1.00  0.00    -0.167 C  
BRANCH  13  14
HETATM   14  C   UNL     1      -7.361   8.045  64.771  1.00  0.00    -0.082 A  
HETATM   15  C   UNL     1      -7.474   6.716  65.199  1.00  0.00    -0.087 A  
HETATM   16 CL   UNL     1      -8.331   5.520  64.295  1.00  0.00    -0.130 Cl 
HETATM   17  C   UNL     1      -6.915   6.315  66.417  1.00  0.00    -0.067 A  
HETATM   18  C   UNL     1      -6.307   7.252  67.256  1.00  0.00    -0.054 A  
HETATM   19  C   UNL     1      -6.225   8.598  66.879  1.00  0.00    -0.059 A  
HETATM   20  C   UNL     1      -6.676   8.955  65.597  1.00  0.00    -0.072 A  
BRANCH  19  21
HETATM   21  C   UNL     1      -5.867   9.659  67.911  1.00  0.00    -0.040 C  
HETATM   22  O   UNL     1      -5.944   9.057  69.218  1.00  0.00    -0.040 OA 
HETATM   23  C   UNL     1      -5.371   9.873  70.245  1.00  0.00    -0.043 C  
HETATM   24  H   UNL     1      -7.013  12.440  66.566  1.00  0.00     0.000 HD 
HETATM   25  C   UNL     1      -6.159  11.177  70.360  1.00  0.00    -0.126 C  
HETATM   26  O   UNL     1      -6.518  11.630  66.595  1.00  0.00    -0.132 OA 
HETATM   27  C   UNL     1      -6.169  11.895  69.002  1.00  0.00    -0.077 C  
HETATM   28  O   UNL     1      -5.613  12.059  71.347  1.00  0.00    -0.382 OA 
HETATM   29  H   UNL     1      -6.972  13.526  68.261  1.00  0.00     0.000 HD 
HETATM   30  C   UNL     1      -6.673  10.979  67.864  1.00  0.00    -0.063 C  
HETATM   31  H   UNL     1      -6.102  12.870  71.418  1.00  0.00     0.000 HD 
HETATM   32  O   UNL     1      -6.965  13.083  69.100  1.00  0.00    -0.094 OA 
BRANCH  23  33
HETATM   33  C   UNL     1      -5.401   9.071  71.551  1.00  0.00    -0.046 C  
HETATM   34  O   UNL     1      -6.698   9.193  72.154  1.00  0.00    -0.295 OA 
HETATM   35  H   UNL     1      -6.716   8.697  72.964  1.00  0.00     0.000 HD 
ENDBRANCH  23  33
ENDBRANCH  19  21
ENDBRANCH  13  14
ENDBRANCH  10  13
ENDBRANCH   6   7
ENDBRANCH   1   6
TORSDOF 6
ENDMDL
MODEL      225
REMARK 921   NORMALIZED FREE ENERGY PREDICTED BY IDOCK:   -4.51 KCAL/MOL
REMARK 922        TOTAL FREE ENERGY PREDICTED BY IDOCK:   -7.06 KCAL/MOL
REMARK 923 INTER-LIGAND FREE ENERGY PREDICTED BY IDOCK:   -7.19 KCAL/MOL
REMARK 924 INTRA-LIGAND FREE ENERGY PREDICTED BY IDOCK:    0.13 KCAL/MOL
REMARK 927      BINDING AFFINITY PREDICTED BY RF-SCORE:    0.00 PKD
ROOT
HETATM    1  C   UNL     1      -8.816  19.824  66.106  1.00  0.00    -0.336 C  
HETATM    2  C   UNL     1      -8.979  19.994  67.606  1.00  0.00    -0.420 C  
HETATM    3  O   UNL     1      -6.798  19.207  67.251  1.00  0.00    -0.196 OA 
HETATM    4  C   UNL     1      -7.556  20.085  68.088  1.00  0.00    -0.253 C  
HETATM    5  C   UNL     1      -7.540  18.990  66.036  1.00  0.00    -0.248 C  
ENDROOT
BRANCH   1   6
HETATM    6  O   UNL     1      -9.972  19.149  65.620  1.00  0.00    -0.418 OA 
BRANCH   6   7
HETATM    7  C   UNL     1     -10.336  17.969  66.199  1.00  0.00    -0.366 A  
HETATM    8  C   UNL     1     -10.567  15.566  66.367  1.00  0.00    -0.312 A  
HETATM    9  C   UNL     1     -10.255  16.710  65.613  1.00  0.00    -0.285 A  
HETATM   10  C   UNL     1     -10.962  15.667  67.712  1.00  0.00    -0.316 A  
HETATM   11  C   UNL     1     -10.744  18.078  67.529  1.00  0.00    -0.352 A  
HETATM   12  C   UNL     1     -11.064  16.942  68.278  1.00  0.00    -0.213 A  
BRANCH  10  13
HETATM   13  C   UNL     1     -11.194  14.429  68.562  1.00  0.00    -0.286 C  
BRANCH  13  14
HETATM   14  C   UNL     1     -10.001  13.493  68.562  1.00  0.00    -0.202 A  
HETATM   15  C   UNL     1      -8.688  13.902  68.830  1.00  0.00     0.006 A  
HETATM   16 CL   UNL     1      -8.299  15.513  69.313  1.00  0.00    -0.245 Cl 
HETATM   17  C   UNL     1      -7.623  13.008  68.674  1.00  0.00    -0.089 A  
HETATM   18  C   UNL     1      -7.848  11.722  68.176  1.00  0.00    -0.135 A  
HETATM   19  C   UNL     1      -9.144  11.302  67.851  1.00  0.00    -0.150 A  
HETATM   20  C   UNL     1     -10.212  12.168  68.136  1.00  0.00    -0.203 A  
BRANCH  19  21
HETATM   21  C   UNL     1      -9.350  10.046  67.015  1.00  0.00    -0.154 C  
HETATM   22  O   UNL     1      -9.588   8.944  67.912  1.00  0.00    -0.144 OA 
HETATM   23  C   UNL     1     -10.062   7.769  67.245  1.00  0.00    -0.238 C  
HETATM   24  H   UNL     1      -7.393  10.539  64.411  1.00  0.00     0.000 HD 
HETATM   25  C   UNL     1      -8.995   7.269  66.272  1.00  0.00    -0.156 C  
HETATM   26  O   UNL     1      -8.073  10.754  65.038  1.00  0.00    -0.094 OA 
HETATM   27  C   UNL     1      -8.639   8.385  65.278  1.00  0.00    -0.150 C  
HETATM   28  O   UNL     1      -9.422   6.115  65.541  1.00  0.00    -0.375 OA 
HETATM   29  H   UNL     1      -7.372   8.621  63.798  1.00  0.00     0.000 HD 
HETATM   30  C   UNL     1      -8.243   9.696  65.994  1.00  0.00    -0.119 C  
HETATM   31  H   UNL     1      -8.759   5.804  64.935  1.00  0.00     0.000 HD 
HETATM   32  O   UNL     1      -7.592   7.931  64.412  1.00  0.00    -0.100 OA 
BRANCH  23  33
HETATM   33  C   UNL     1     -10.393   6.724  68.315  1.00  0.00    -0.187 C  
HETATM   34  O   UNL     1     -11.211   7.325  69.330  1.00  0.00    -0.446 OA 
HETATM   35  H   UNL     1     -11.417   6.678  69.993  1.00  0.00     0.000 HD 
ENDBRANCH  23  33
ENDBRANCH  19  21
ENDBRANCH  13  14
ENDBRANCH  10  13
ENDBRANCH   6   7
ENDBRANCH   1   6
TORSDOF 6
ENDMDL
MODEL      226
REMARK 921   NORMALIZED FREE ENERGY PREDICTED BY IDOCK:   -4.47 KCAL/MOL
REMARK 922        TOTAL FREE ENERGY PREDICTED BY IDOCK:   -7.00 KCAL/MOL
REMARK 923 INTER-LIGAND FREE ENERGY PREDICTED BY IDOCK:   -6.56 KCAL/MOL
REMARK 924 INTRA-LIGAND FREE ENERGY PREDICTED BY IDOCK:   -0.44 KCAL/MOL
REMARK 927      BINDING AFFINITY PREDICTED BY RF-SCORE:    0.00 PKD
ROOT
HETATM    1  C   UNL     1     -11.212   7.091  72.809  1.00  0.00    -0.257 C  
HETATM    2  C   UNL     1     -11.176   8.522  72.303  1.00  0.00    -0.432 C  
HETATM    3  O   UNL     1     -13.082   7.525  71.367  1.00  0.00    -0.351 OA 
HETATM    4  C   UNL     1     -12.603   8.767  71.892  1.00  0.00    -0.371 C  
HETATM    5  C   UNL     1     -12.245   6.468  71.874  1.00  0.00    -0.324 C  
ENDROOT
BRANCH   1   6
HETATM    6  O   UNL     1      -9.904   6.548  72.664  1.00  0.00    -0.168 OA 
BRANCH   6   7
HETATM    7  C   UNL     1      -9.208   6.808  71.520  1.00  0.00    -0.149 A  
HETATM    8  C   UNL     1      -8.637   6.585  69.178  1.00  0.00    -0.129 A  
HETATM    9  C   UNL     1      -9.345   6.140  70.307  1.00  0.00    -0.172 A  
HETATM   10  C   UNL     1      -7.785   7.701  69.248  1.00  0.00    -0.104 A  
HETATM   11  C   UNL     1      -8.351   7.907  71.600  1.00  0.00    -0.137 A  
HETATM   12  C   UNL     1      -7.638   8.346  70.480  1.00  0.00    -0.074 A  
BRANCH  10  13
HETATM   13  C   UNL     1      -7.103   8.251  68.007  1.00  0.00    -0.086 C  
BRANCH  13  14
HETATM   14  C   UNL     1      -8.030   9.107  67.166  1.00  0.00    -0.106 A  
HETATM   15  C   UNL     1      -8.541   8.714  65.921  1.00  0.00    -0.157 A  
HETATM   16 CL   UNL     1      -8.261   7.145  65.258  1.00  0.00    -0.137 Cl 
HETATM   17  C   UNL     1      -9.277   9.614  65.143  1.00  0.00    -0.305 A  
HETATM   18  C   UNL     1      -9.445  10.936  65.562  1.00  0.00    -0.249 A  
HETATM   19  C   UNL     1      -8.903  11.372  66.777  1.00  0.00    -0.179 A  
HETATM   20  C   UNL     1      -8.279  10.422  67.602  1.00  0.00    -0.110 A  
BRANCH  19  21
HETATM   21  C   UNL     1      -8.801  12.861  67.076  1.00  0.00    -0.208 C  
HETATM   22  O   UNL     1      -9.606  13.569  66.113  1.00  0.00    -0.269 OA 
HETATM   23  C   UNL     1      -9.808  14.944  66.452  1.00  0.00    -0.274 C  
HETATM   24  H   UNL     1      -5.731  13.195  68.225  1.00  0.00     0.000 HD 
HETATM   25  C   UNL     1      -8.463  15.671  66.457  1.00  0.00    -0.276 C  
HETATM   26  O   UNL     1      -6.605  12.826  68.179  1.00  0.00    -0.070 OA 
HETATM   27  C   UNL     1      -7.506  14.977  67.437  1.00  0.00    -0.205 C  
HETATM   28  O   UNL     1      -8.590  17.048  66.828  1.00  0.00    -0.208 OA 
HETATM   29  H   UNL     1      -5.635  15.193  67.993  1.00  0.00     0.000 HD 
HETATM   30  C   UNL     1      -7.378  13.463  67.151  1.00  0.00     0.118 C  
HETATM   31  H   UNL     1      -7.753  17.500  66.832  1.00  0.00     0.000 HD 
HETATM   32  O   UNL     1      -6.227  15.622  67.387  1.00  0.00    -0.228 OA 
BRANCH  23  33
HETATM   33  C   UNL     1     -10.776  15.543  65.426  1.00  0.00    -0.405 C  
HETATM   34  O   UNL     1     -11.127  14.540  64.462  1.00  0.00    -0.543 OA 
HETATM   35  H   UNL     1     -11.727  14.910  63.825  1.00  0.00     0.000 HD 
ENDBRANCH  23  33
ENDBRANCH  19  21
ENDBRANCH  13  14
ENDBRANCH  10  13
ENDBRANCH   6   7
ENDBRANCH   1   6
TORSDOF 6
ENDMDL
MODEL      227
REMARK 921   NORMALIZED FREE ENERGY PREDICTED BY IDOCK:   -4.46 KCAL/MOL
REMARK 922        TOTAL FREE ENERGY PREDICTED BY IDOCK:   -6.99 KCAL/MOL
REMARK 923 INTER-LIGAND FREE ENERGY PREDICTED BY IDOCK:   -6.06 KCAL/MOL
REMARK 924 INTRA-LIGAND FREE ENERGY PREDICTED BY IDOCK:   -0.93 KCAL/MOL
REMARK 927      BINDING AFFINITY PREDICTED BY RF-SCORE:    0.00 PKD
ROOT
HETATM    1  C   UNL     1     -10.819   6.029  71.219  1.00  0.00    -0.272 C  
HETATM    2  C   UNL     1      -9.856   6.358  72.345  1.00  0.00    -0.176 C  
HETATM    3  O   UNL     1     -11.734   7.733  72.642  1.00  0.00    -0.349 OA 
HETATM    4  C   UNL     1     -10.751   6.995  73.375  1.00  0.00    -0.345 C  
HETATM    5  C   UNL     1     -11.793   7.201  71.305  1.00  0.00    -0.318 C  
ENDROOT
BRANCH   1   6
HETATM    6  O   UNL     1     -10.072   5.991  70.008  1.00  0.00    -0.169 OA 
BRANCH   6   7
HETATM    7  C   UNL     1     -10.090   7.083  69.190  1.00  0.00    -0.180 A  
HETATM    8  C   UNL     1      -9.485   9.311  68.461  1.00  0.00    -0.150 A  
HETATM    9  C   UNL     1      -9.474   8.305  69.443  1.00  0.00    -0.159 A  
HETATM   10  C   UNL     1     -10.111   9.106  67.219  1.00  0.00    -0.295 A  
HETATM   11  C   UNL     1     -10.726   6.880  67.965  1.00  0.00    -0.276 A  
HETATM   12  C   UNL     1     -10.747   7.882  66.991  1.00  0.00    -0.289 A  
BRANCH  10  13
HETATM   13  C   UNL     1     -10.031  10.148  66.115  1.00  0.00    -0.310 C  
BRANCH  13  14
HETATM   14  C   UNL     1      -9.259   9.655  64.906  1.00  0.00    -0.306 A  
HETATM   15  C   UNL     1      -9.380  10.206  63.624  1.00  0.00    -0.290 A  
HETATM   16 CL   UNL     1     -10.345  11.602  63.302  1.00  0.00    -0.438 Cl 
HETATM   17  C   UNL     1      -8.741   9.608  62.533  1.00  0.00    -0.232 A  
HETATM   18  C   UNL     1      -8.038   8.412  62.696  1.00  0.00    -0.176 A  
HETATM   19  C   UNL     1      -7.942   7.809  63.956  1.00  0.00    -0.104 A  
HETATM   20  C   UNL     1      -8.481   8.492  65.059  1.00  0.00    -0.183 A  
BRANCH  19  21
HETATM   21  C   UNL     1      -7.471   6.367  64.078  1.00  0.00    -0.084 C  
HETATM   22  O   UNL     1      -8.629   5.530  64.269  1.00  0.00    -0.109 OA 
HETATM   23  C   UNL     1      -8.343   4.135  64.126  1.00  0.00    -0.099 C  
HETATM   24  H   UNL     1      -4.542   6.649  65.562  1.00  0.00     0.000 HD 
HETATM   25  C   UNL     1      -7.356   3.702  65.209  1.00  0.00    -0.072 C  
HETATM   26  O   UNL     1      -5.203   6.831  64.904  1.00  0.00    -0.025 OA 
HETATM   27  C   UNL     1      -6.083   4.557  65.119  1.00  0.00    -0.023 C  
HETATM   28  O   UNL     1      -6.997   2.321  65.099  1.00  0.00    -0.045 OA 
HETATM   29  H   UNL     1      -4.404   4.721  66.123  1.00  0.00     0.000 HD 
HETATM   30  C   UNL     1      -6.395   6.071  65.150  1.00  0.00    -0.038 C  
HETATM   31  H   UNL     1      -6.383   2.052  65.773  1.00  0.00     0.000 HD 
HETATM   32  O   UNL     1      -5.191   4.192  66.179  1.00  0.00    -0.008 OA 
BRANCH  23  33
HETATM   33  C   UNL     1      -9.669   3.373  64.224  1.00  0.00    -0.166 C  
HETATM   34  O   UNL     1      -9.827   2.865  65.557  1.00  0.00    -0.373 OA 
HETATM   35  H   UNL     1     -10.649   2.392  65.618  1.00  0.00     0.000 HD 
ENDBRANCH  23  33
ENDBRANCH  19  21
ENDBRANCH  13  14
ENDBRANCH  10  13
ENDBRANCH   6   7
ENDBRANCH   1   6
TORSDOF 6
ENDMDL
MODEL      228
REMARK 921   NORMALIZED FREE ENERGY PREDICTED BY IDOCK:   -4.44 KCAL/MOL
REMARK 922        TOTAL FREE ENERGY PREDICTED BY IDOCK:   -6.96 KCAL/MOL
REMARK 923 INTER-LIGAND FREE ENERGY PREDICTED BY IDOCK:   -6.38 KCAL/MOL
REMARK 924 INTRA-LIGAND FREE ENERGY PREDICTED BY IDOCK:   -0.59 KCAL/MOL
REMARK 927      BINDING AFFINITY PREDICTED BY RF-SCORE:    0.00 PKD
ROOT
HETATM    1  C   UNL     1      -7.200   2.979  67.280  1.00  0.00    -0.058 C  
HETATM    2  C   UNL     1      -8.535   2.931  68.001  1.00  0.00    -0.103 C  
HETATM    3  O   UNL     1      -8.720   1.506  66.146  1.00  0.00    -0.107 OA 
HETATM    4  C   UNL     1      -9.133   1.640  67.509  1.00  0.00    -0.132 C  
HETATM    5  C   UNL     1      -7.557   2.332  65.945  1.00  0.00    -0.068 C  
ENDROOT
BRANCH   1   6
HETATM    6  O   UNL     1      -6.817   4.346  67.171  1.00  0.00    -0.050 OA 
BRANCH   6   7
HETATM    7  C   UNL     1      -7.253   5.228  68.116  1.00  0.00    -0.071 A  
HETATM    8  C   UNL     1      -8.873   6.583  69.299  1.00  0.00    -0.132 A  
HETATM    9  C   UNL     1      -8.533   5.765  68.208  1.00  0.00    -0.113 A  
HETATM   10  C   UNL     1      -7.940   6.872  70.309  1.00  0.00    -0.115 A  
HETATM   11  C   UNL     1      -6.316   5.525  69.107  1.00  0.00    -0.034 A  
HETATM   12  C   UNL     1      -6.649   6.346  70.188  1.00  0.00    -0.045 A  
BRANCH  10  13
HETATM   13  C   UNL     1      -8.334   7.664  71.544  1.00  0.00    -0.114 C  
BRANCH  13  14
HETATM   14  C   UNL     1      -9.537   8.555  71.304  1.00  0.00    -0.264 A  
HETATM   15  C   UNL     1     -10.761   8.411  71.971  1.00  0.00    -0.317 A  
HETATM   16 CL   UNL     1     -10.995   7.265  73.241  1.00  0.00    -0.390 Cl 
HETATM   17  C   UNL     1     -11.867   9.181  71.595  1.00  0.00    -0.443 A  
HETATM   18  C   UNL     1     -11.785  10.045  70.500  1.00  0.00    -0.400 A  
HETATM   19  C   UNL     1     -10.590  10.173  69.782  1.00  0.00    -0.298 A  
HETATM   20  C   UNL     1      -9.457   9.489  70.254  1.00  0.00    -0.307 A  
BRANCH  19  21
HETATM   21  C   UNL     1     -10.589  10.848  68.417  1.00  0.00    -0.194 C  
HETATM   22  O   UNL     1      -9.640  10.161  67.578  1.00  0.00    -0.153 OA 
HETATM   23  C   UNL     1      -9.743  10.527  66.198  1.00  0.00    -0.209 C  
HETATM   24  H   UNL     1     -11.194  14.006  69.133  1.00  0.00     0.000 HD 
HETATM   25  C   UNL     1      -9.417  12.011  66.037  1.00  0.00    -0.219 C  
HETATM   26  O   UNL     1     -11.345  13.069  69.148  1.00  0.00    -0.261 OA 
HETATM   27  C   UNL     1     -10.357  12.845  66.920  1.00  0.00    -0.243 C  
HETATM   28  O   UNL     1      -9.540  12.453  64.681  1.00  0.00    -0.471 OA 
HETATM   29  H   UNL     1     -10.583  14.744  67.362  1.00  0.00     0.000 HD 
HETATM   30  C   UNL     1     -10.342  12.375  68.392  1.00  0.00    -0.229 C  
HETATM   31  H   UNL     1      -9.338  13.376  64.581  1.00  0.00     0.000 HD 
HETATM   32  O   UNL     1     -10.002  14.229  66.816  1.00  0.00    -0.252 OA 
BRANCH  23  33
HETATM   33  C   UNL     1      -8.778   9.641  65.404  1.00  0.00    -0.158 C  
HETATM   34  O   UNL     1      -9.350   9.344  64.122  1.00  0.00    -0.426 OA 
HETATM   35  H   UNL     1      -8.751   8.794  63.630  1.00  0.00     0.000 HD 
ENDBRANCH  23  33
ENDBRANCH  19  21
ENDBRANCH  13  14
ENDBRANCH  10  13
ENDBRANCH   6   7
ENDBRANCH   1   6
TORSDOF 6
ENDMDL
MODEL      229
REMARK 921   NORMALIZED FREE ENERGY PREDICTED BY IDOCK:   -4.41 KCAL/MOL
REMARK 922        TOTAL FREE ENERGY PREDICTED BY IDOCK:   -6.92 KCAL/MOL
REMARK 923 INTER-LIGAND FREE ENERGY PREDICTED BY IDOCK:   -6.32 KCAL/MOL
REMARK 924 INTRA-LIGAND FREE ENERGY PREDICTED BY IDOCK:   -0.61 KCAL/MOL
REMARK 927      BINDING AFFINITY PREDICTED BY RF-SCORE:    0.00 PKD
ROOT
HETATM    1  C   UNL     1      -7.234   6.564  69.043  1.00  0.00    -0.091 C  
HETATM    2  C   UNL     1      -8.719   6.661  69.340  1.00  0.00    -0.135 C  
HETATM    3  O   UNL     1      -8.509   5.423  67.358  1.00  0.00    -0.107 OA 
HETATM    4  C   UNL     1      -9.293   5.515  68.551  1.00  0.00    -0.121 C  
HETATM    5  C   UNL     1      -7.248   6.078  67.596  1.00  0.00    -0.076 C  
ENDROOT
BRANCH   1   6
HETATM    6  O   UNL     1      -6.674   7.862  69.207  1.00  0.00    -0.042 OA 
BRANCH   6   7
HETATM    7  C   UNL     1      -7.306   8.927  68.636  1.00  0.00    -0.077 A  
HETATM    8  C   UNL     1      -8.106  10.310  66.817  1.00  0.00    -0.121 A  
HETATM    9  C   UNL     1      -7.324   9.238  67.279  1.00  0.00    -0.091 A  
HETATM   10  C   UNL     1      -8.877  11.082  67.703  1.00  0.00    -0.131 A  
HETATM   11  C   UNL     1      -8.056   9.701  69.522  1.00  0.00    -0.129 A  
HETATM   12  C   UNL     1      -8.828  10.773  69.066  1.00  0.00    -0.135 A  
BRANCH  10  13
HETATM   13  C   UNL     1      -9.809  12.170  67.195  1.00  0.00    -0.205 C  
BRANCH  13  14
HETATM   14  C   UNL     1     -10.102  13.221  68.249  1.00  0.00    -0.250 A  
HETATM   15  C   UNL     1     -11.122  13.106  69.203  1.00  0.00    -0.196 A  
HETATM   16 CL   UNL     1     -12.089  11.684  69.360  1.00  0.00    -0.351 Cl 
HETATM   17  C   UNL     1     -11.420  14.177  70.052  1.00  0.00    -0.258 A  
HETATM   18  C   UNL     1     -10.758  15.399  69.906  1.00  0.00    -0.315 A  
HETATM   19  C   UNL     1      -9.770  15.560  68.927  1.00  0.00    -0.223 A  
HETATM   20  C   UNL     1      -9.395  14.436  68.173  1.00  0.00    -0.203 A  
BRANCH  19  21
HETATM   21  C   UNL     1      -9.289  16.955  68.552  1.00  0.00    -0.259 C  
HETATM   22  O   UNL     1      -9.951  17.345  67.333  1.00  0.00    -0.286 OA 
HETATM   23  C   UNL     1      -9.789  18.734  67.026  1.00  0.00    -0.325 C  
HETATM   24  H   UNL     1      -6.169  16.992  69.612  1.00  0.00     0.000 HD 
HETATM   25  C   UNL     1      -8.310  19.036  66.790  1.00  0.00    -0.288 C  
HETATM   26  O   UNL     1      -7.108  16.866  69.682  1.00  0.00    -0.112 OA 
HETATM   27  C   UNL     1      -7.496  18.627  68.027  1.00  0.00    -0.251 C  
HETATM   28  O   UNL     1      -8.073  20.420  66.516  1.00  0.00    -0.478 OA 
HETATM   29  H   UNL     1      -5.601  18.596  68.538  1.00  0.00     0.000 HD 
HETATM   30  C   UNL     1      -7.760  17.160  68.437  1.00  0.00    -0.237 C  
HETATM   31  H   UNL     1      -7.153  20.608  66.369  1.00  0.00     0.000 HD 
HETATM   32  O   UNL     1      -6.104  18.850  67.773  1.00  0.00    -0.197 OA 
BRANCH  23  33
HETATM   33  C   UNL     1     -10.639  19.042  65.789  1.00  0.00    -0.318 C  
HETATM   34  O   UNL     1     -10.614  20.455  65.536  1.00  0.00    -0.310 OA 
HETATM   35  H   UNL     1     -11.141  20.646  64.769  1.00  0.00     0.000 HD 
ENDBRANCH  23  33
ENDBRANCH  19  21
ENDBRANCH  13  14
ENDBRANCH  10  13
ENDBRANCH   6   7
ENDBRANCH   1   6
TORSDOF 6
ENDMDL
MODEL      230
REMARK 921   NORMALIZED FREE ENERGY PREDICTED BY IDOCK:   -4.41 KCAL/MOL
REMARK 922        TOTAL FREE ENERGY PREDICTED BY IDOCK:   -6.92 KCAL/MOL
REMARK 923 INTER-LIGAND FREE ENERGY PREDICTED BY IDOCK:   -5.77 KCAL/MOL
REMARK 924 INTRA-LIGAND FREE ENERGY PREDICTED BY IDOCK:   -1.14 KCAL/MOL
REMARK 927      BINDING AFFINITY PREDICTED BY RF-SCORE:    0.00 PKD
ROOT
HETATM    1  C   UNL     1     -10.983   6.039  72.611  1.00  0.00    -0.264 C  
HETATM    2  C   UNL     1     -10.327   4.735  72.195  1.00  0.00    -0.256 C  
HETATM    3  O   UNL     1     -10.375   4.744  74.540  1.00  0.00    -0.245 OA 
HETATM    4  C   UNL     1     -10.498   3.870  73.415  1.00  0.00    -0.176 C  
HETATM    5  C   UNL     1     -10.632   6.090  74.096  1.00  0.00    -0.134 C  
ENDROOT
BRANCH   1   6
HETATM    6  O   UNL     1     -10.392   7.084  71.845  1.00  0.00    -0.193 OA 
BRANCH   6   7
HETATM    7  C   UNL     1     -10.269   6.921  70.496  1.00  0.00    -0.192 A  
HETATM    8  C   UNL     1     -11.047   6.705  68.214  1.00  0.00    -0.283 A  
HETATM    9  C   UNL     1     -11.315   6.755  69.593  1.00  0.00    -0.326 A  
HETATM   10  C   UNL     1      -9.735   6.820  67.724  1.00  0.00    -0.140 A  
HETATM   11  C   UNL     1      -8.962   7.019  70.017  1.00  0.00    -0.142 A  
HETATM   12  C   UNL     1      -8.693   6.960  68.647  1.00  0.00    -0.122 A  
BRANCH  10  13
HETATM   13  C   UNL     1      -9.451   6.876  66.232  1.00  0.00    -0.122 C  
BRANCH  13  14
HETATM   14  C   UNL     1      -8.513   8.008  65.862  1.00  0.00    -0.154 A  
HETATM   15  C   UNL     1      -7.120   7.875  65.787  1.00  0.00    -0.060 A  
HETATM   16 CL   UNL     1      -6.321   6.358  65.993  1.00  0.00    -0.038 Cl 
HETATM   17  C   UNL     1      -6.312   8.998  65.575  1.00  0.00    -0.067 A  
HETATM   18  C   UNL     1      -6.879  10.273  65.514  1.00  0.00    -0.134 A  
HETATM   19  C   UNL     1      -8.263  10.443  65.637  1.00  0.00    -0.158 A  
HETATM   20  C   UNL     1      -9.067   9.294  65.719  1.00  0.00    -0.260 A  
BRANCH  19  21
HETATM   21  C   UNL     1      -8.841  11.828  65.898  1.00  0.00    -0.003 C  
HETATM   22  O   UNL     1      -8.184  12.378  67.056  1.00  0.00    -0.178 OA 
HETATM   23  C   UNL     1      -8.445  13.773  67.240  1.00  0.00    -0.194 C  
HETATM   24  H   UNL     1     -11.977  11.534  64.930  1.00  0.00     0.000 HD 
HETATM   25  C   UNL     1      -9.937  13.985  67.490  1.00  0.00    -0.236 C  
HETATM   26  O   UNL     1     -11.033  11.473  64.845  1.00  0.00    -0.298 OA 
HETATM   27  C   UNL     1     -10.745  13.403  66.320  1.00  0.00    -0.287 C  
HETATM   28  O   UNL     1     -10.273  15.368  67.644  1.00  0.00    -0.241 OA 
HETATM   29  H   UNL     1     -12.643  13.186  65.870  1.00  0.00     0.000 HD 
HETATM   30  C   UNL     1     -10.379  11.928  66.038  1.00  0.00    -0.233 C  
HETATM   31  H   UNL     1     -11.201  15.500  67.800  1.00  0.00     0.000 HD 
HETATM   32  O   UNL     1     -12.144  13.545  66.594  1.00  0.00    -0.399 OA 
BRANCH  23  33
HETATM   33  C   UNL     1      -7.593  14.257  68.418  1.00  0.00    -0.124 C  
HETATM   34  O   UNL     1      -7.590  15.692  68.444  1.00  0.00    -0.116 OA 
HETATM   35  H   UNL     1      -7.062  15.993  69.174  1.00  0.00     0.000 HD 
ENDBRANCH  23  33
ENDBRANCH  19  21
ENDBRANCH  13  14
ENDBRANCH  10  13
ENDBRANCH   6   7
ENDBRANCH   1   6
TORSDOF 6
ENDMDL
MODEL      231
REMARK 921   NORMALIZED FREE ENERGY PREDICTED BY IDOCK:   -4.38 KCAL/MOL
REMARK 922        TOTAL FREE ENERGY PREDICTED BY IDOCK:   -6.88 KCAL/MOL
REMARK 923 INTER-LIGAND FREE ENERGY PREDICTED BY IDOCK:   -7.34 KCAL/MOL
REMARK 924 INTRA-LIGAND FREE ENERGY PREDICTED BY IDOCK:    0.46 KCAL/MOL
REMARK 927      BINDING AFFINITY PREDICTED BY RF-SCORE:    0.00 PKD
ROOT
HETATM    1  C   UNL     1     -10.311  17.058  65.992  1.00  0.00    -0.315 C  
HETATM    2  C   UNL     1      -9.763  18.323  66.627  1.00  0.00    -0.339 C  
HETATM    3  O   UNL     1      -7.912  17.082  65.891  1.00  0.00    -0.465 OA 
HETATM    4  C   UNL     1      -8.385  18.426  66.029  1.00  0.00    -0.023 C  
HETATM    5  C   UNL     1      -9.052  16.201  65.894  1.00  0.00    -0.233 C  
ENDROOT
BRANCH   1   6
HETATM    6  O   UNL     1     -11.299  16.528  66.870  1.00  0.00     0.183 OA 
BRANCH   6   7
HETATM    7  C   UNL     1     -11.107  15.287  67.403  1.00  0.00    -0.326 A  
HETATM    8  C   UNL     1     -11.281  12.875  67.514  1.00  0.00    -0.329 A  
HETATM    9  C   UNL     1     -11.651  14.098  66.927  1.00  0.00    -0.410 A  
HETATM   10  C   UNL     1     -10.366  12.827  68.579  1.00  0.00    -0.231 A  
HETATM   11  C   UNL     1     -10.210  15.248  68.471  1.00  0.00    -0.224 A  
HETATM   12  C   UNL     1      -9.848  14.034  69.062  1.00  0.00     0.005 A  
BRANCH  10  13
HETATM   13  C   UNL     1      -9.880  11.503  69.143  1.00  0.00     0.085 C  
BRANCH  13  14
HETATM   14  C   UNL     1     -10.995  10.702  69.788  1.00  0.00    -0.340 A  
HETATM   15  C   UNL     1     -12.021  11.271  70.555  1.00  0.00    -0.371 A  
HETATM   16 CL   UNL     1     -12.197  12.978  70.750  1.00  0.00    -0.425 Cl 
HETATM   17  C   UNL     1     -12.934  10.455  71.232  1.00  0.00    -0.517 A  
HETATM   18  C   UNL     1     -12.785   9.065  71.215  1.00  0.00    -0.316 A  
HETATM   19  C   UNL     1     -11.739   8.471  70.500  1.00  0.00    -0.082 A  
HETATM   20  C   UNL     1     -10.913   9.299  69.723  1.00  0.00    -0.213 A  
BRANCH  19  21
HETATM   21  C   UNL     1     -11.384   7.010  70.743  1.00  0.00    -0.298 C  
HETATM   22  O   UNL     1     -10.846   6.894  72.074  1.00  0.00    -0.218 OA 
HETATM   23  C   UNL     1     -10.727   5.538  72.516  1.00  0.00    -0.240 C  
HETATM   24  H   UNL     1     -10.453   5.951  67.764  1.00  0.00     0.000 HD 
HETATM   25  C   UNL     1      -9.738   4.794  71.621  1.00  0.00    -0.169 C  
HETATM   26  O   UNL     1     -11.028   6.364  68.398  1.00  0.00    -0.287 OA 
HETATM   27  C   UNL     1     -10.200   4.879  70.158  1.00  0.00    -0.240 C  
HETATM   28  O   UNL     1      -9.602   3.416  71.985  1.00  0.00    -0.124 OA 
HETATM   29  H   UNL     1      -9.519   4.290  68.414  1.00  0.00     0.000 HD 
HETATM   30  C   UNL     1     -10.448   6.338  69.711  1.00  0.00    -0.232 C  
HETATM   31  H   UNL     1      -8.986   2.954  71.428  1.00  0.00     0.000 HD 
HETATM   32  O   UNL     1      -9.233   4.238  69.318  1.00  0.00    -0.118 OA 
BRANCH  23  33
HETATM   33  C   UNL     1     -10.270   5.559  73.978  1.00  0.00    -0.255 C  
HETATM   34  O   UNL     1      -9.755   6.861  74.296  1.00  0.00    -0.267 OA 
HETATM   35  H   UNL     1      -9.471   6.875  75.202  1.00  0.00     0.000 HD 
ENDBRANCH  23  33
ENDBRANCH  19  21
ENDBRANCH  13  14
ENDBRANCH  10  13
ENDBRANCH   6   7
ENDBRANCH   1   6
TORSDOF 6
ENDMDL
MODEL      232
REMARK 921   NORMALIZED FREE ENERGY PREDICTED BY IDOCK:   -4.31 KCAL/MOL
REMARK 922        TOTAL FREE ENERGY PREDICTED BY IDOCK:   -6.78 KCAL/MOL
REMARK 923 INTER-LIGAND FREE ENERGY PREDICTED BY IDOCK:   -5.26 KCAL/MOL
REMARK 924 INTRA-LIGAND FREE ENERGY PREDICTED BY IDOCK:   -1.52 KCAL/MOL
REMARK 927      BINDING AFFINITY PREDICTED BY RF-SCORE:    0.00 PKD
ROOT
HETATM    1  C   UNL     1      -9.145   5.993  72.126  1.00  0.00    -0.142 C  
HETATM    2  C   UNL     1     -10.387   6.639  71.540  1.00  0.00    -0.233 C  
HETATM    3  O   UNL     1     -10.502   6.945  73.864  1.00  0.00    -0.366 OA 
HETATM    4  C   UNL     1     -10.812   7.592  72.626  1.00  0.00    -0.340 C  
HETATM    5  C   UNL     1      -9.508   5.935  73.608  1.00  0.00    -0.140 C  
ENDROOT
BRANCH   1   6
HETATM    6  O   UNL     1      -8.997   4.713  71.520  1.00  0.00    -0.127 OA 
BRANCH   6   7
HETATM    7  C   UNL     1      -8.934   4.633  70.160  1.00  0.00    -0.089 A  
HETATM    8  C   UNL     1      -9.808   4.601  67.903  1.00  0.00    -0.177 A  
HETATM    9  C   UNL     1     -10.020   4.574  69.292  1.00  0.00    -0.192 A  
HETATM   10  C   UNL     1      -8.511   4.687  67.368  1.00  0.00    -0.104 A  
HETATM   11  C   UNL     1      -7.643   4.702  69.635  1.00  0.00    -0.058 A  
HETATM   12  C   UNL     1      -7.429   4.719  68.254  1.00  0.00    -0.073 A  
BRANCH  10  13
HETATM   13  C   UNL     1      -8.283   4.827  65.872  1.00  0.00    -0.112 C  
BRANCH  13  14
HETATM   14  C   UNL     1      -7.752   6.196  65.491  1.00  0.00    -0.094 A  
HETATM   15  C   UNL     1      -6.423   6.442  65.120  1.00  0.00    -0.038 A  
HETATM   16 CL   UNL     1      -5.262   5.177  64.937  1.00  0.00    -0.009 Cl 
HETATM   17  C   UNL     1      -5.977   7.752  64.918  1.00  0.00    -0.038 A  
HETATM   18  C   UNL     1      -6.828   8.833  65.159  1.00  0.00    -0.075 A  
HETATM   19  C   UNL     1      -8.146   8.620  65.581  1.00  0.00    -0.110 A  
HETATM   20  C   UNL     1      -8.613   7.297  65.653  1.00  0.00    -0.123 A  
BRANCH  19  21
HETATM   21  C   UNL     1      -8.960   9.773  66.152  1.00  0.00    -0.152 C  
HETATM   22  O   UNL     1      -9.723   9.274  67.268  1.00  0.00    -0.152 OA 
HETATM   23  C   UNL     1     -10.316  10.314  68.052  1.00  0.00    -0.181 C  
HETATM   24  H   UNL     1      -9.652  11.601  63.500  1.00  0.00     0.000 HD 
HETATM   25  C   UNL     1     -11.319  11.090  67.198  1.00  0.00    -0.136 C  
HETATM   26  O   UNL     1      -9.095  11.127  64.106  1.00  0.00    -0.150 OA 
HETATM   27  C   UNL     1     -10.614  11.647  65.953  1.00  0.00    -0.271 C  
HETATM   28  O   UNL     1     -11.922  12.173  67.914  1.00  0.00    -0.489 OA 
HETATM   29  H   UNL     1     -11.137  12.658  64.354  1.00  0.00     0.000 HD 
HETATM   30  C   UNL     1      -9.867  10.545  65.166  1.00  0.00    -0.297 C  
HETATM   31  H   UNL     1     -12.545  12.655  67.383  1.00  0.00     0.000 HD 
HETATM   32  O   UNL     1     -11.573  12.314  65.124  1.00  0.00    -0.340 OA 
BRANCH  23  33
HETATM   33  C   UNL     1     -10.985   9.662  69.267  1.00  0.00    -0.168 C  
HETATM   34  O   UNL     1     -11.378  10.681  70.197  1.00  0.00    -0.286 OA 
HETATM   35  H   UNL     1     -11.793  10.277  70.950  1.00  0.00     0.000 HD 
ENDBRANCH  23  33
ENDBRANCH  19  21
ENDBRANCH  13  14
ENDBRANCH  10  13
ENDBRANCH   6   7
ENDBRANCH   1   6
TORSDOF 6
ENDMDL
MODEL      233
REMARK 921   NORMALIZED FREE ENERGY PREDICTED BY IDOCK:   -4.29 KCAL/MOL
REMARK 922        TOTAL FREE ENERGY PREDICTED BY IDOCK:   -6.76 KCAL/MOL
REMARK 923 INTER-LIGAND FREE ENERGY PREDICTED BY IDOCK:   -5.91 KCAL/MOL
REMARK 924 INTRA-LIGAND FREE ENERGY PREDICTED BY IDOCK:   -0.85 KCAL/MOL
REMARK 927      BINDING AFFINITY PREDICTED BY RF-SCORE:    0.00 PKD
ROOT
HETATM    1  C   UNL     1      -7.307   3.628  67.646  1.00  0.00    -0.062 C  
HETATM    2  C   UNL     1      -8.094   3.181  68.864  1.00  0.00    -0.072 C  
HETATM    3  O   UNL     1      -9.406   2.663  66.990  1.00  0.00    -0.141 OA 
HETATM    4  C   UNL     1      -9.059   2.178  68.290  1.00  0.00    -0.168 C  
HETATM    5  C   UNL     1      -8.381   3.580  66.562  1.00  0.00    -0.101 C  
ENDROOT
BRANCH   1   6
HETATM    6  O   UNL     1      -6.813   4.937  67.906  1.00  0.00    -0.057 OA 
BRANCH   6   7
HETATM    7  C   UNL     1      -7.504   5.741  68.765  1.00  0.00    -0.085 A  
HETATM    8  C   UNL     1      -9.390   7.044  69.542  1.00  0.00    -0.148 A  
HETATM    9  C   UNL     1      -8.745   6.322  68.523  1.00  0.00    -0.112 A  
HETATM   10  C   UNL     1      -8.803   7.194  70.810  1.00  0.00    -0.148 A  
HETATM   11  C   UNL     1      -6.908   5.901  70.017  1.00  0.00    -0.057 A  
HETATM   12  C   UNL     1      -7.543   6.627  71.028  1.00  0.00    -0.085 A  
BRANCH  10  13
HETATM   13  C   UNL     1      -9.544   7.879  71.946  1.00  0.00    -0.226 C  
BRANCH  13  14
HETATM   14  C   UNL     1     -10.659   8.780  71.453  1.00  0.00    -0.349 A  
HETATM   15  C   UNL     1     -12.020   8.454  71.531  1.00  0.00    -0.299 A  
HETATM   16 CL   UNL     1     -12.586   7.025  72.319  1.00  0.00    -0.128 Cl 
HETATM   17  C   UNL     1     -12.980   9.274  70.929  1.00  0.00    -0.070 A  
HETATM   18  C   UNL     1     -12.588  10.384  70.176  1.00  0.00    -0.197 A  
HETATM   19  C   UNL     1     -11.233  10.706  70.037  1.00  0.00    -0.382 A  
HETATM   20  C   UNL     1     -10.294   9.947  70.755  1.00  0.00    -0.198 A  
BRANCH  19  21
HETATM   21  C   UNL     1     -10.791  11.698  68.969  1.00  0.00    -0.203 C  
HETATM   22  O   UNL     1     -11.369  12.981  69.282  1.00  0.00    -0.267 OA 
HETATM   23  C   UNL     1     -10.813  14.050  68.510  1.00  0.00    -0.254 C  
HETATM   24  H   UNL     1     -10.586   9.846  66.252  1.00  0.00     0.000 HD 
HETATM   25  C   UNL     1     -11.119  13.825  67.030  1.00  0.00    -0.302 C  
HETATM   26  O   UNL     1     -10.414  10.083  67.155  1.00  0.00    -0.227 OA 
HETATM   27  C   UNL     1     -10.570  12.460  66.591  1.00  0.00    -0.231 C  
HETATM   28  O   UNL     1     -10.555  14.842  66.196  1.00  0.00    -0.298 OA 
HETATM   29  H   UNL     1     -10.580  11.382  64.950  1.00  0.00     0.000 HD 
HETATM   30  C   UNL     1     -11.072  11.312  67.498  1.00  0.00    -0.286 C  
HETATM   31  H   UNL     1     -10.746  14.702  65.276  1.00  0.00     0.000 HD 
HETATM   32  O   UNL     1     -10.920  12.227  65.222  1.00  0.00    -0.289 OA 
BRANCH  23  33
HETATM   33  C   UNL     1     -11.414  15.362  69.025  1.00  0.00    -0.337 C  
HETATM   34  O   UNL     1     -12.247  15.934  68.007  1.00  0.00    -0.135 OA 
HETATM   35  H   UNL     1     -12.621  16.748  68.325  1.00  0.00     0.000 HD 
ENDBRANCH  23  33
ENDBRANCH  19  21
ENDBRANCH  13  14
ENDBRANCH  10  13
ENDBRANCH   6   7
ENDBRANCH   1   6
TORSDOF 6
ENDMDL
MODEL      234
REMARK 921   NORMALIZED FREE ENERGY PREDICTED BY IDOCK:   -4.28 KCAL/MOL
REMARK 922        TOTAL FREE ENERGY PREDICTED BY IDOCK:   -6.75 KCAL/MOL
REMARK 923 INTER-LIGAND FREE ENERGY PREDICTED BY IDOCK:   -5.96 KCAL/MOL
REMARK 924 INTRA-LIGAND FREE ENERGY PREDICTED BY IDOCK:   -0.79 KCAL/MOL
REMARK 927      BINDING AFFINITY PREDICTED BY RF-SCORE:    0.00 PKD
ROOT
HETATM    1  C   UNL     1     -11.520  12.196  64.524  1.00  0.00    -0.334 C  
HETATM    2  C   UNL     1     -10.715  13.474  64.672  1.00  0.00    -0.429 C  
HETATM    3  O   UNL     1     -12.660  14.038  63.487  1.00  0.00    -0.842 OA 
HETATM    4  C   UNL     1     -11.751  14.547  64.468  1.00  0.00    -0.410 C  
HETATM    5  C   UNL     1     -12.536  12.603  63.460  1.00  0.00    -0.418 C  
ENDROOT
BRANCH   1   6
HETATM    6  O   UNL     1     -10.628  11.170  64.103  1.00  0.00    -0.346 OA 
BRANCH   6   7
HETATM    7  C   UNL     1      -9.958  10.452  65.050  1.00  0.00    -0.330 A  
HETATM    8  C   UNL     1      -8.044   9.370  66.062  1.00  0.00    -0.111 A  
HETATM    9  C   UNL     1      -8.642  10.009  64.963  1.00  0.00    -0.173 A  
HETATM   10  C   UNL     1      -8.753   9.166  67.259  1.00  0.00    -0.122 A  
HETATM   11  C   UNL     1     -10.673  10.239  66.230  1.00  0.00    -0.070 A  
HETATM   12  C   UNL     1     -10.083   9.595  67.321  1.00  0.00    -0.267 A  
BRANCH  10  13
HETATM   13  C   UNL     1      -8.079   8.575  68.485  1.00  0.00    -0.122 C  
BRANCH  13  14
HETATM   14  C   UNL     1      -7.025   9.497  69.069  1.00  0.00    -0.058 A  
HETATM   15  C   UNL     1      -6.003   9.069  69.928  1.00  0.00    -0.031 A  
HETATM   16 CL   UNL     1      -5.758   7.406  70.321  1.00  0.00    -0.024 Cl 
HETATM   17  C   UNL     1      -5.154  10.000  70.535  1.00  0.00    -0.037 A  
HETATM   18  C   UNL     1      -5.365  11.370  70.355  1.00  0.00    -0.113 A  
HETATM   19  C   UNL     1      -6.410  11.828  69.544  1.00  0.00    -0.123 A  
HETATM   20  C   UNL     1      -7.169  10.878  68.842  1.00  0.00    -0.095 A  
BRANCH  19  21
HETATM   21  C   UNL     1      -6.840  13.288  69.607  1.00  0.00     0.151 C  
HETATM   22  O   UNL     1      -7.503  13.614  68.371  1.00  0.00    -0.107 OA 
HETATM   23  C   UNL     1      -8.188  14.870  68.415  1.00  0.00    -0.151 C  
HETATM   24  H   UNL     1      -4.472  14.698  71.413  1.00  0.00     0.000 HD 
HETATM   25  C   UNL     1      -7.178  15.995  68.635  1.00  0.00    -0.146 C  
HETATM   26  O   UNL     1      -5.147  14.060  71.212  1.00  0.00    -0.113 OA 
HETATM   27  C   UNL     1      -6.384  15.733  69.923  1.00  0.00    -0.146 C  
HETATM   28  O   UNL     1      -7.803  17.279  68.729  1.00  0.00    -0.260 OA 
HETATM   29  H   UNL     1      -4.903  16.592  70.883  1.00  0.00     0.000 HD 
HETATM   30  C   UNL     1      -5.741  14.327  69.934  1.00  0.00    -0.111 C  
HETATM   31  H   UNL     1      -7.175  17.979  68.865  1.00  0.00     0.000 HD 
HETATM   32  O   UNL     1      -5.394  16.755  70.087  1.00  0.00    -0.177 OA 
BRANCH  23  33
HETATM   33  C   UNL     1      -8.950  15.036  67.096  1.00  0.00    -0.217 C  
HETATM   34  O   UNL     1      -9.637  16.296  67.099  1.00  0.00    -0.228 OA 
HETATM   35  H   UNL     1     -10.109  16.399  66.281  1.00  0.00     0.000 HD 
ENDBRANCH  23  33
ENDBRANCH  19  21
ENDBRANCH  13  14
ENDBRANCH  10  13
ENDBRANCH   6   7
ENDBRANCH   1   6
TORSDOF 6
ENDMDL
MODEL      235
REMARK 921   NORMALIZED FREE ENERGY PREDICTED BY IDOCK:   -4.26 KCAL/MOL
REMARK 922        TOTAL FREE ENERGY PREDICTED BY IDOCK:   -6.72 KCAL/MOL
REMARK 923 INTER-LIGAND FREE ENERGY PREDICTED BY IDOCK:   -6.46 KCAL/MOL
REMARK 924 INTRA-LIGAND FREE ENERGY PREDICTED BY IDOCK:   -0.26 KCAL/MOL
REMARK 927      BINDING AFFINITY PREDICTED BY RF-SCORE:    0.00 PKD
ROOT
HETATM    1  C   UNL     1     -12.286   9.332  70.615  1.00  0.00     0.006 C  
HETATM    2  C   UNL     1     -11.140   9.237  71.606  1.00  0.00    -0.438 C  
HETATM    3  O   UNL     1     -13.046   8.414  72.700  1.00  0.00    -0.228 OA 
HETATM    4  C   UNL     1     -11.634   8.210  72.590  1.00  0.00    -0.375 C  
HETATM    5  C   UNL     1     -13.491   9.125  71.529  1.00  0.00    -0.356 C  
ENDROOT
BRANCH   1   6
HETATM    6  O   UNL     1     -12.234  10.623  70.017  1.00  0.00    -0.304 OA 
BRANCH   6   7
HETATM    7  C   UNL     1     -11.185  10.928  69.201  1.00  0.00    -0.256 A  
HETATM    8  C   UNL     1      -9.994  12.171  67.499  1.00  0.00    -0.202 A  
HETATM    9  C   UNL     1     -11.182  11.889  68.195  1.00  0.00    -0.316 A  
HETATM   10  C   UNL     1      -8.798  11.497  67.801  1.00  0.00    -0.153 A  
HETATM   11  C   UNL     1     -10.004  10.243  69.493  1.00  0.00    -0.252 A  
HETATM   12  C   UNL     1      -8.824  10.516  68.797  1.00  0.00    -0.158 A  
BRANCH  10  13
HETATM   13  C   UNL     1      -7.488  11.875  67.129  1.00  0.00    -0.146 C  
BRANCH  13  14
HETATM   14  C   UNL     1      -6.843  13.095  67.758  1.00  0.00    -0.149 A  
HETATM   15  C   UNL     1      -5.897  13.034  68.790  1.00  0.00    -0.074 A  
HETATM   16 CL   UNL     1      -5.265  11.539  69.380  1.00  0.00    -0.048 Cl 
HETATM   17  C   UNL     1      -5.452  14.205  69.413  1.00  0.00    -0.083 A  
HETATM   18  C   UNL     1      -6.004  15.441  69.068  1.00  0.00    -0.103 A  
HETATM   19  C   UNL     1      -6.989  15.528  68.076  1.00  0.00    -0.144 A  
HETATM   20  C   UNL     1      -7.328  14.360  67.374  1.00  0.00    -0.167 A  
BRANCH  19  21
HETATM   21  C   UNL     1      -7.814  16.800  67.931  1.00  0.00    -0.172 C  
HETATM   22  O   UNL     1      -9.197  16.424  67.785  1.00  0.00    -0.200 OA 
HETATM   23  C   UNL     1     -10.096  17.530  67.911  1.00  0.00    -0.330 C  
HETATM   24  H   UNL     1      -5.782  18.841  66.329  1.00  0.00     0.000 HD 
HETATM   25  C   UNL     1      -9.834  18.532  66.786  1.00  0.00    -0.342 C  
HETATM   26  O   UNL     1      -6.043  18.237  67.014  1.00  0.00    -0.156 OA 
HETATM   27  C   UNL     1      -8.366  18.982  66.827  1.00  0.00    -0.288 C  
HETATM   28  O   UNL     1     -10.677  19.685  66.877  1.00  0.00    -0.469 OA 
HETATM   29  H   UNL     1      -7.204  20.146  65.756  1.00  0.00     0.000 HD 
HETATM   30  C   UNL     1      -7.390  17.784  66.814  1.00  0.00    -0.206 C  
HETATM   31  H   UNL     1     -10.514  20.308  66.178  1.00  0.00     0.000 HD 
HETATM   32  O   UNL     1      -8.112  19.868  65.731  1.00  0.00    -0.335 OA 
BRANCH  23  33
HETATM   33  C   UNL     1     -11.525  16.981  67.864  1.00  0.00     0.363 C  
HETATM   34  O   UNL     1     -11.699  16.019  68.915  1.00  0.00    -0.381 OA 
HETATM   35  H   UNL     1     -12.585  15.678  68.886  1.00  0.00     0.000 HD 
ENDBRANCH  23  33
ENDBRANCH  19  21
ENDBRANCH  13  14
ENDBRANCH  10  13
ENDBRANCH   6   7
ENDBRANCH   1   6
TORSDOF 6
ENDMDL
MODEL      236
REMARK 921   NORMALIZED FREE ENERGY PREDICTED BY IDOCK:   -4.21 KCAL/MOL
REMARK 922        TOTAL FREE ENERGY PREDICTED BY IDOCK:   -6.65 KCAL/MOL
REMARK 923 INTER-LIGAND FREE ENERGY PREDICTED BY IDOCK:   -6.50 KCAL/MOL
REMARK 924 INTRA-LIGAND FREE ENERGY PREDICTED BY IDOCK:   -0.16 KCAL/MOL
REMARK 927      BINDING AFFINITY PREDICTED BY RF-SCORE:    0.00 PKD
ROOT
HETATM    1  C   UNL     1     -12.935  15.314  71.383  1.00  0.00    -0.431 C  
HETATM    2  C   UNL     1     -14.405  14.943  71.472  1.00  0.00    -0.631 C  
HETATM    3  O   UNL     1     -13.192  13.048  72.135  1.00  0.00    -0.458 OA 
HETATM    4  C   UNL     1     -14.397  13.768  72.412  1.00  0.00    -0.285 C  
HETATM    5  C   UNL     1     -12.274  13.941  71.476  1.00  0.00    -0.142 C  
ENDROOT
BRANCH   1   6
HETATM    6  O   UNL     1     -12.729  15.967  70.135  1.00  0.00    -0.301 OA 
BRANCH   6   7
HETATM    7  C   UNL     1     -11.722  15.532  69.324  1.00  0.00    -0.365 A  
HETATM    8  C   UNL     1      -9.462  14.869  68.765  1.00  0.00    -0.214 A  
HETATM    9  C   UNL     1     -10.377  15.436  69.668  1.00  0.00    -0.283 A  
HETATM   10  C   UNL     1      -9.879  14.393  67.510  1.00  0.00    -0.220 A  
HETATM   11  C   UNL     1     -12.140  15.075  68.073  1.00  0.00    -0.045 A  
HETATM   12  C   UNL     1     -11.230  14.520  67.170  1.00  0.00    -0.341 A  
BRANCH  10  13
HETATM   13  C   UNL     1      -8.916  13.681  66.576  1.00  0.00    -0.068 C  
BRANCH  13  14
HETATM   14  C   UNL     1      -9.014  12.171  66.680  1.00  0.00    -0.198 A  
HETATM   15  C   UNL     1     -10.075  11.419  66.158  1.00  0.00    -0.231 A  
HETATM   16 CL   UNL     1     -11.340  12.129  65.220  1.00  0.00    -0.380 Cl 
HETATM   17  C   UNL     1     -10.164  10.047  66.415  1.00  0.00    -0.290 A  
HETATM   18  C   UNL     1      -9.241   9.427  67.261  1.00  0.00    -0.151 A  
HETATM   19  C   UNL     1      -8.200  10.162  67.839  1.00  0.00    -0.109 A  
HETATM   20  C   UNL     1      -8.052  11.508  67.466  1.00  0.00    -0.137 A  
BRANCH  19  21
HETATM   21  C   UNL     1      -7.405   9.575  68.998  1.00  0.00    -0.072 C  
HETATM   22  O   UNL     1      -8.254   8.647  69.701  1.00  0.00    -0.109 OA 
HETATM   23  C   UNL     1      -7.541   7.834  70.639  1.00  0.00    -0.078 C  
HETATM   24  H   UNL     1      -5.435  12.058  69.899  1.00  0.00     0.000 HD 
HETATM   25  C   UNL     1      -6.934   8.721  71.725  1.00  0.00    -0.056 C  
HETATM   26  O   UNL     1      -5.834  11.442  69.296  1.00  0.00    -0.045 OA 
HETATM   27  C   UNL     1      -6.025   9.778  71.081  1.00  0.00    -0.058 C  
HETATM   28  O   UNL     1      -6.172   7.972  72.678  1.00  0.00    -0.056 OA 
HETATM   29  H   UNL     1      -4.951  11.301  71.700  1.00  0.00     0.000 HD 
HETATM   30  C   UNL     1      -6.756  10.580  69.979  1.00  0.00    -0.151 C  
HETATM   31  H   UNL     1      -5.795   8.523  73.353  1.00  0.00     0.000 HD 
HETATM   32  O   UNL     1      -5.513  10.647  72.099  1.00  0.00    -0.315 OA 
BRANCH  23  33
HETATM   33  C   UNL     1      -8.526   6.814  71.219  1.00  0.00    -0.124 C  
HETATM   34  O   UNL     1      -9.269   6.210  70.150  1.00  0.00    -0.153 OA 
HETATM   35  H   UNL     1      -9.880   5.578  70.509  1.00  0.00     0.000 HD 
ENDBRANCH  23  33
ENDBRANCH  19  21
ENDBRANCH  13  14
ENDBRANCH  10  13
ENDBRANCH   6   7
ENDBRANCH   1   6
TORSDOF 6
ENDMDL
MODEL      237
REMARK 921   NORMALIZED FREE ENERGY PREDICTED BY IDOCK:   -4.17 KCAL/MOL
REMARK 922        TOTAL FREE ENERGY PREDICTED BY IDOCK:   -6.60 KCAL/MOL
REMARK 923 INTER-LIGAND FREE ENERGY PREDICTED BY IDOCK:   -5.84 KCAL/MOL
REMARK 924 INTRA-LIGAND FREE ENERGY PREDICTED BY IDOCK:   -0.76 KCAL/MOL
REMARK 927      BINDING AFFINITY PREDICTED BY RF-SCORE:    0.00 PKD
ROOT
HETATM    1  C   UNL     1      -5.482  11.863  69.949  1.00  0.00    -0.096 C  
HETATM    2  C   UNL     1      -5.893  11.065  71.173  1.00  0.00     0.156 C  
HETATM    3  O   UNL     1      -6.049   9.611  69.339  1.00  0.00    -0.036 OA 
HETATM    4  C   UNL     1      -5.697   9.641  70.725  1.00  0.00    -0.066 C  
HETATM    5  C   UNL     1      -5.964  10.953  68.823  1.00  0.00    -0.039 C  
ENDROOT
BRANCH   1   6
HETATM    6  O   UNL     1      -6.157  13.115  70.004  1.00  0.00    -0.136 OA 
BRANCH   6   7
HETATM    7  C   UNL     1      -7.079  13.408  69.042  1.00  0.00    -0.053 A  
HETATM    8  C   UNL     1      -9.231  13.314  67.939  1.00  0.00    -0.213 A  
HETATM    9  C   UNL     1      -8.343  12.839  68.919  1.00  0.00     0.276 A  
HETATM   10  C   UNL     1      -8.868  14.359  67.073  1.00  0.00    -0.256 A  
HETATM   11  C   UNL     1      -6.705  14.435  68.174  1.00  0.00    -0.129 A  
HETATM   12  C   UNL     1      -7.584  14.902  67.193  1.00  0.00    -0.145 A  
BRANCH  10  13
HETATM   13  C   UNL     1      -9.862  14.949  66.086  1.00  0.00    -0.332 C  
BRANCH  13  14
HETATM   14  C   UNL     1     -10.401  13.914  65.117  1.00  0.00    -0.403 A  
HETATM   15  C   UNL     1     -11.545  14.103  64.331  1.00  0.00    -0.362 A  
HETATM   16 CL   UNL     1     -12.407  15.598  64.292  1.00  0.00    -0.134 Cl 
HETATM   17  C   UNL     1     -12.058  13.050  63.565  1.00  0.00    -0.617 A  
HETATM   18  C   UNL     1     -11.482  11.779  63.636  1.00  0.00    -0.524 A  
HETATM   19  C   UNL     1     -10.368  11.548  64.452  1.00  0.00    -0.364 A  
HETATM   20  C   UNL     1      -9.791  12.646  65.112  1.00  0.00    -0.112 A  
BRANCH  19  21
HETATM   21  C   UNL     1      -9.948  10.122  64.782  1.00  0.00    -0.264 C  
HETATM   22  O   UNL     1     -10.188   9.897  66.185  1.00  0.00    -0.250 OA 
HETATM   23  C   UNL     1     -10.088   8.518  66.557  1.00  0.00    -0.258 C  
HETATM   24  H   UNL     1      -7.412   9.589  62.747  1.00  0.00     0.000 HD 
HETATM   25  C   UNL     1      -8.662   8.025  66.313  1.00  0.00    -0.153 C  
HETATM   26  O   UNL     1      -8.297   9.842  62.984  1.00  0.00    -0.142 OA 
HETATM   27  C   UNL     1      -8.285   8.247  64.840  1.00  0.00    -0.151 C  
HETATM   28  O   UNL     1      -8.503   6.639  66.629  1.00  0.00    -0.113 OA 
HETATM   29  H   UNL     1      -6.693   7.983  63.723  1.00  0.00     0.000 HD 
HETATM   30  C   UNL     1      -8.507   9.712  64.397  1.00  0.00    -0.181 C  
HETATM   31  H   UNL     1      -7.617   6.332  66.476  1.00  0.00     0.000 HD 
HETATM   32  O   UNL     1      -6.926   7.845  64.634  1.00  0.00    -0.064 OA 
BRANCH  23  33
HETATM   33  C   UNL     1     -10.487   8.401  68.032  1.00  0.00    -0.184 C  
HETATM   34  O   UNL     1     -11.359   9.487  68.376  1.00  0.00    -0.496 OA 
HETATM   35  H   UNL     1     -11.607   9.415  69.291  1.00  0.00     0.000 HD 
ENDBRANCH  23  33
ENDBRANCH  19  21
ENDBRANCH  13  14
ENDBRANCH  10  13
ENDBRANCH   6   7
ENDBRANCH   1   6
TORSDOF 6
ENDMDL
MODEL      238
REMARK 921   NORMALIZED FREE ENERGY PREDICTED BY IDOCK:   -4.14 KCAL/MOL
REMARK 922        TOTAL FREE ENERGY PREDICTED BY IDOCK:   -6.56 KCAL/MOL
REMARK 923 INTER-LIGAND FREE ENERGY PREDICTED BY IDOCK:   -5.45 KCAL/MOL
REMARK 924 INTRA-LIGAND FREE ENERGY PREDICTED BY IDOCK:   -1.11 KCAL/MOL
REMARK 927      BINDING AFFINITY PREDICTED BY RF-SCORE:    0.00 PKD
ROOT
HETATM    1  C   UNL     1     -10.164  11.170  66.548  1.00  0.00    -0.231 C  
HETATM    2  C   UNL     1     -10.924   9.917  66.943  1.00  0.00    -0.047 C  
HETATM    3  O   UNL     1      -8.926   9.205  65.938  1.00  0.00    -0.163 OA 
HETATM    4  C   UNL     1      -9.842   8.871  66.985  1.00  0.00    -0.214 C  
HETATM    5  C   UNL     1      -9.105  10.596  65.611  1.00  0.00    -0.183 C  
ENDROOT
BRANCH   1   6
HETATM    6  O   UNL     1     -11.084  12.048  65.906  1.00  0.00    -0.301 OA 
BRANCH   6   7
HETATM    7  C   UNL     1     -11.164  13.341  66.332  1.00  0.00    -0.302 A  
HETATM    8  C   UNL     1     -11.148  15.143  67.949  1.00  0.00    -0.322 A  
HETATM    9  C   UNL     1     -11.166  13.768  67.657  1.00  0.00    -0.316 A  
HETATM   10  C   UNL     1     -11.126  16.104  66.923  1.00  0.00     0.011 A  
HETATM   11  C   UNL     1     -11.159  14.291  65.310  1.00  0.00    -0.335 A  
HETATM   12  C   UNL     1     -11.150  15.658  65.598  1.00  0.00    -0.195 A  
BRANCH  10  13
HETATM   13  C   UNL     1     -10.995  17.586  67.233  1.00  0.00    -0.016 C  
BRANCH  13  14
HETATM   14  C   UNL     1      -9.564  17.993  67.526  1.00  0.00    -0.273 A  
HETATM   15  C   UNL     1      -8.894  19.028  66.859  1.00  0.00    -0.301 A  
HETATM   16 CL   UNL     1      -9.676  20.043  65.702  1.00  0.00    -0.273 Cl 
HETATM   17  C   UNL     1      -7.533  19.253  67.088  1.00  0.00    -0.243 A  
HETATM   18  C   UNL     1      -6.807  18.399  67.923  1.00  0.00    -0.219 A  
HETATM   19  C   UNL     1      -7.438  17.326  68.563  1.00  0.00    -0.241 A  
HETATM   20  C   UNL     1      -8.829  17.195  68.423  1.00  0.00    -0.255 A  
BRANCH  19  21
HETATM   21  C   UNL     1      -6.604  16.221  69.197  1.00  0.00    -0.185 C  
HETATM   22  O   UNL     1      -7.288  14.969  68.994  1.00  0.00    -0.127 OA 
HETATM   23  C   UNL     1      -6.479  13.830  69.304  1.00  0.00    -0.112 C  
HETATM   24  H   UNL     1      -5.214  17.711  71.786  1.00  0.00     0.000 HD 
HETATM   25  C   UNL     1      -6.117  13.850  70.789  1.00  0.00    -0.117 C  
HETATM   26  O   UNL     1      -5.451  17.600  70.873  1.00  0.00    -0.229 OA 
HETATM   27  C   UNL     1      -5.403  15.166  71.129  1.00  0.00    -0.089 C  
HETATM   28  O   UNL     1      -5.274  12.754  71.159  1.00  0.00    -0.151 OA 
HETATM   29  H   UNL     1      -4.686  16.021  72.744  1.00  0.00     0.000 HD 
HETATM   30  C   UNL     1      -6.219  16.402  70.685  1.00  0.00     0.573 C  
HETATM   31  H   UNL     1      -5.049  12.767  72.082  1.00  0.00     0.000 HD 
HETATM   32  O   UNL     1      -5.127  15.207  72.534  1.00  0.00    -0.171 OA 
BRANCH  23  33
HETATM   33  C   UNL     1      -7.273  12.575  68.927  1.00  0.00    -0.050 C  
HETATM   34  O   UNL     1      -7.154  11.604  69.977  1.00  0.00    -0.374 OA 
HETATM   35  H   UNL     1      -7.645  10.825  69.743  1.00  0.00     0.000 HD 
ENDBRANCH  23  33
ENDBRANCH  19  21
ENDBRANCH  13  14
ENDBRANCH  10  13
ENDBRANCH   6   7
ENDBRANCH   1   6
TORSDOF 6
ENDMDL
MODEL      239
REMARK 921   NORMALIZED FREE ENERGY PREDICTED BY IDOCK:   -4.13 KCAL/MOL
REMARK 922        TOTAL FREE ENERGY PREDICTED BY IDOCK:   -6.55 KCAL/MOL
REMARK 923 INTER-LIGAND FREE ENERGY PREDICTED BY IDOCK:   -5.16 KCAL/MOL
REMARK 924 INTRA-LIGAND FREE ENERGY PREDICTED BY IDOCK:   -1.39 KCAL/MOL
REMARK 927      BINDING AFFINITY PREDICTED BY RF-SCORE:    0.00 PKD
ROOT
HETATM    1  C   UNL     1      -8.945   6.251  72.220  1.00  0.00    -0.136 C  
HETATM    2  C   UNL     1      -8.164   6.396  73.513  1.00  0.00    -0.119 C  
HETATM    3  O   UNL     1     -10.411   6.829  74.032  1.00  0.00    -0.364 OA 
HETATM    4  C   UNL     1      -9.228   6.228  74.566  1.00  0.00    -0.184 C  
HETATM    5  C   UNL     1     -10.276   6.895  72.599  1.00  0.00    -0.188 C  
ENDROOT
BRANCH   1   6
HETATM    6  O   UNL     1      -8.235   6.955  71.206  1.00  0.00    -0.112 OA 
BRANCH   6   7
HETATM    7  C   UNL     1      -8.256   6.469  69.931  1.00  0.00    -0.126 A  
HETATM    8  C   UNL     1      -9.267   5.584  67.918  1.00  0.00    -0.112 A  
HETATM    9  C   UNL     1      -9.366   5.951  69.271  1.00  0.00    -0.147 A  
HETATM   10  C   UNL     1      -8.061   5.730  67.212  1.00  0.00    -0.102 A  
HETATM   11  C   UNL     1      -7.051   6.602  69.240  1.00  0.00    -0.084 A  
HETATM   12  C   UNL     1      -6.948   6.228  67.897  1.00  0.00    -0.072 A  
BRANCH  10  13
HETATM   13  C   UNL     1      -7.978   5.438  65.723  1.00  0.00    -0.106 C  
BRANCH  13  14
HETATM   14  C   UNL     1      -8.167   6.681  64.875  1.00  0.00    -0.085 A  
HETATM   15  C   UNL     1      -7.752   6.788  63.541  1.00  0.00    -0.114 A  
HETATM   16 CL   UNL     1      -7.079   5.457  62.671  1.00  0.00    -0.036 Cl 
HETATM   17  C   UNL     1      -7.836   8.012  62.870  1.00  0.00    -0.144 A  
HETATM   18  C   UNL     1      -8.261   9.159  63.545  1.00  0.00    -0.178 A  
HETATM   19  C   UNL     1      -8.634   9.094  64.893  1.00  0.00    -0.208 A  
HETATM   20  C   UNL     1      -8.666   7.834  65.511  1.00  0.00    -0.102 A  
BRANCH  19  21
HETATM   21  C   UNL     1      -8.779  10.373  65.707  1.00  0.00    -0.168 C  
HETATM   22  O   UNL     1      -8.061  10.202  66.944  1.00  0.00    -0.119 OA 
HETATM   23  C   UNL     1      -7.897  11.423  67.671  1.00  0.00    -0.122 C  
HETATM   24  H   UNL     1     -11.787  11.449  64.899  1.00  0.00     0.000 HD 
HETATM   25  C   UNL     1      -9.267  11.965  68.077  1.00  0.00    -0.190 C  
HETATM   26  O   UNL     1     -10.903  11.141  64.737  1.00  0.00    -0.289 OA 
HETATM   27  C   UNL     1     -10.136  12.159  66.826  1.00  0.00    -0.200 C  
HETATM   28  O   UNL     1      -9.175  13.210  68.777  1.00  0.00    -0.388 OA 
HETATM   29  H   UNL     1     -11.978  12.723  66.446  1.00  0.00     0.000 HD 
HETATM   30  C   UNL     1     -10.219  10.874  65.970  1.00  0.00    -0.254 C  
HETATM   31  H   UNL     1     -10.027  13.547  69.029  1.00  0.00     0.000 HD 
HETATM   32  O   UNL     1     -11.440  12.603  67.220  1.00  0.00    -0.301 OA 
BRANCH  23  33
HETATM   33  C   UNL     1      -7.016  11.128  68.890  1.00  0.00    -0.095 C  
HETATM   34  O   UNL     1      -7.837  11.064  70.065  1.00  0.00    -0.310 OA 
HETATM   35  H   UNL     1      -7.291  10.881  70.821  1.00  0.00     0.000 HD 
ENDBRANCH  23  33
ENDBRANCH  19  21
ENDBRANCH  13  14
ENDBRANCH  10  13
ENDBRANCH   6   7
ENDBRANCH   1   6
TORSDOF 6
ENDMDL
MODEL      240
REMARK 921   NORMALIZED FREE ENERGY PREDICTED BY IDOCK:   -4.10 KCAL/MOL
REMARK 922        TOTAL FREE ENERGY PREDICTED BY IDOCK:   -6.50 KCAL/MOL
REMARK 923 INTER-LIGAND FREE ENERGY PREDICTED BY IDOCK:   -7.40 KCAL/MOL
REMARK 924 INTRA-LIGAND FREE ENERGY PREDICTED BY IDOCK:    0.89 KCAL/MOL
REMARK 927      BINDING AFFINITY PREDICTED BY RF-SCORE:    0.00 PKD
ROOT
HETATM    1  C   UNL     1      -8.273   3.344  68.758  1.00  0.00    -0.060 C  
HETATM    2  C   UNL     1      -9.419   3.946  69.551  1.00  0.00    -0.259 C  
HETATM    3  O   UNL     1      -9.380   1.655  70.058  1.00  0.00    -0.098 OA 
HETATM    4  C   UNL     1      -9.636   2.935  70.645  1.00  0.00    -0.113 C  
HETATM    5  C   UNL     1      -8.575   1.853  68.880  1.00  0.00    -0.063 C  
ENDROOT
BRANCH   1   6
HETATM    6  O   UNL     1      -8.361   3.840  67.427  1.00  0.00    -0.093 OA 
BRANCH   6   7
HETATM    7  C   UNL     1      -8.321   5.189  67.224  1.00  0.00    -0.106 A  
HETATM    8  C   UNL     1      -7.708   7.481  67.704  1.00  0.00    -0.115 A  
HETATM    9  C   UNL     1      -7.775   6.131  68.090  1.00  0.00    -0.103 A  
HETATM   10  C   UNL     1      -8.185   7.902  66.450  1.00  0.00    -0.121 A  
HETATM   11  C   UNL     1      -8.811   5.603  65.985  1.00  0.00    -0.147 A  
HETATM   12  C   UNL     1      -8.754   6.946  65.603  1.00  0.00    -0.086 A  
BRANCH  10  13
HETATM   13  C   UNL     1      -8.015   9.339  65.984  1.00  0.00    -0.110 C  
BRANCH  13  14
HETATM   14  C   UNL     1      -9.035  10.275  66.604  1.00  0.00    -0.156 A  
HETATM   15  C   UNL     1     -10.262   9.853  67.133  1.00  0.00    -0.228 A  
HETATM   16 CL   UNL     1     -10.699   8.186  67.246  1.00  0.00    -0.334 Cl 
HETATM   17  C   UNL     1     -11.208  10.790  67.561  1.00  0.00    -0.346 A  
HETATM   18  C   UNL     1     -10.972  12.157  67.394  1.00  0.00    -0.308 A  
HETATM   19  C   UNL     1      -9.776  12.608  66.822  1.00  0.00    -0.240 A  
HETATM   20  C   UNL     1      -8.788  11.658  66.518  1.00  0.00    -0.188 A  
BRANCH  19  21
HETATM   21  C   UNL     1      -9.656  14.049  66.343  1.00  0.00    -0.283 C  
HETATM   22  O   UNL     1      -9.546  14.898  67.502  1.00  0.00    -0.202 OA 
HETATM   23  C   UNL     1      -9.157  16.238  67.181  1.00  0.00    -0.202 C  
HETATM   24  H   UNL     1     -11.479  14.092  63.599  1.00  0.00     0.000 HD 
HETATM   25  C   UNL     1     -10.233  16.887  66.311  1.00  0.00    -0.329 C  
HETATM   26  O   UNL     1     -10.802  13.777  64.187  1.00  0.00    -0.302 OA 
HETATM   27  C   UNL     1     -10.457  16.041  65.049  1.00  0.00    -0.220 C  
HETATM   28  O   UNL     1      -9.887  18.220  65.921  1.00  0.00    -0.527 OA 
HETATM   29  H   UNL     1     -11.651  16.095  63.493  1.00  0.00     0.000 HD 
HETATM   30  C   UNL     1     -10.758  14.562  65.387  1.00  0.00    -0.361 C  
HETATM   31  H   UNL     1     -10.555  18.624  65.380  1.00  0.00     0.000 HD 
HETATM   32  O   UNL     1     -11.513  16.618  64.273  1.00  0.00    -1.075 OA 
BRANCH  23  33
HETATM   33  C   UNL     1      -8.953  16.995  68.497  1.00  0.00    -0.263 C  
HETATM   34  O   UNL     1      -9.920  18.051  68.593  1.00  0.00    -0.357 OA 
HETATM   35  H   UNL     1      -9.794  18.521  69.409  1.00  0.00     0.000 HD 
ENDBRANCH  23  33
ENDBRANCH  19  21
ENDBRANCH  13  14
ENDBRANCH  10  13
ENDBRANCH   6   7
ENDBRANCH   1   6
TORSDOF 6
ENDMDL
MODEL      241
REMARK 921   NORMALIZED FREE ENERGY PREDICTED BY IDOCK:   -4.09 KCAL/MOL
REMARK 922        TOTAL FREE ENERGY PREDICTED BY IDOCK:   -6.49 KCAL/MOL
REMARK 923 INTER-LIGAND FREE ENERGY PREDICTED BY IDOCK:   -6.36 KCAL/MOL
REMARK 924 INTRA-LIGAND FREE ENERGY PREDICTED BY IDOCK:   -0.13 KCAL/MOL
REMARK 927      BINDING AFFINITY PREDICTED BY RF-SCORE:    0.00 PKD
ROOT
HETATM    1  C   UNL     1     -10.922  13.760  66.079  1.00  0.00    -0.284 C  
HETATM    2  C   UNL     1     -10.310  15.126  65.824  1.00  0.00    -0.359 C  
HETATM    3  O   UNL     1     -11.803  15.381  67.615  1.00  0.00    -0.217 OA 
HETATM    4  C   UNL     1     -10.540  15.843  67.127  1.00  0.00    -0.316 C  
HETATM    5  C   UNL     1     -12.099  14.123  66.980  1.00  0.00    -0.414 C  
ENDROOT
BRANCH   1   6
HETATM    6  O   UNL     1     -11.308  13.218  64.820  1.00  0.00    -0.307 OA 
BRANCH   6   7
HETATM    7  C   UNL     1     -10.591  12.179  64.304  1.00  0.00    -0.345 A  
HETATM    8  C   UNL     1      -9.099  11.079  62.748  1.00  0.00    -0.361 A  
HETATM    9  C   UNL     1      -9.882  12.189  63.106  1.00  0.00     0.006 A  
HETATM   10  C   UNL     1      -9.015   9.949  63.580  1.00  0.00    -0.277 A  
HETATM   11  C   UNL     1     -10.525  11.054  65.127  1.00  0.00    -0.329 A  
HETATM   12  C   UNL     1      -9.754   9.946  64.768  1.00  0.00    -0.305 A  
BRANCH  10  13
HETATM   13  C   UNL     1      -8.085   8.794  63.251  1.00  0.00    -0.170 C  
BRANCH  13  14
HETATM   14  C   UNL     1      -8.002   7.777  64.373  1.00  0.00    -0.126 A  
HETATM   15  C   UNL     1      -8.123   6.394  64.184  1.00  0.00    -0.052 A  
HETATM   16 CL   UNL     1      -8.261   5.681  62.618  1.00  0.00    -0.105 Cl 
HETATM   17  C   UNL     1      -8.175   5.531  65.285  1.00  0.00    -0.136 A  
HETATM   18  C   UNL     1      -8.186   6.045  66.584  1.00  0.00    -0.106 A  
HETATM   19  C   UNL     1      -8.117   7.426  66.803  1.00  0.00    -0.123 A  
HETATM   20  C   UNL     1      -7.935   8.265  65.691  1.00  0.00    -0.113 A  
BRANCH  19  21
HETATM   21  C   UNL     1      -8.455   7.998  68.173  1.00  0.00    -0.123 C  
HETATM   22  O   UNL     1      -9.344   7.079  68.837  1.00  0.00    -0.140 OA 
HETATM   23  C   UNL     1      -9.517   7.370  70.227  1.00  0.00    -0.165 C  
HETATM   24  H   UNL     1      -8.441  11.253  67.660  1.00  0.00     0.000 HD 
HETATM   25  C   UNL     1     -10.171   8.742  70.385  1.00  0.00    -0.197 C  
HETATM   26  O   UNL     1      -8.093  10.369  67.638  1.00  0.00    -0.106 OA 
HETATM   27  C   UNL     1      -9.315   9.806  69.682  1.00  0.00    -0.219 C  
HETATM   28  O   UNL     1     -10.338   9.112  71.758  1.00  0.00    -0.344 OA 
HETATM   29  H   UNL     1      -9.439  11.735  69.341  1.00  0.00     0.000 HD 
HETATM   30  C   UNL     1      -9.022   9.437  68.210  1.00  0.00    -0.128 C  
HETATM   31  H   UNL     1     -10.744   9.965  71.856  1.00  0.00     0.000 HD 
HETATM   32  O   UNL     1      -9.968  11.077  69.776  1.00  0.00     0.099 OA 
BRANCH  23  33
HETATM   33  C   UNL     1     -10.374   6.255  70.836  1.00  0.00    -0.205 C  
HETATM   34  O   UNL     1     -11.571   6.098  70.060  1.00  0.00    -0.392 OA 
HETATM   35  H   UNL     1     -12.102   5.407  70.437  1.00  0.00     0.000 HD 
ENDBRANCH  23  33
ENDBRANCH  19  21
ENDBRANCH  13  14
ENDBRANCH  10  13
ENDBRANCH   6   7
ENDBRANCH   1   6
TORSDOF 6
ENDMDL
MODEL      242
REMARK 921   NORMALIZED FREE ENERGY PREDICTED BY IDOCK:   -3.99 KCAL/MOL
REMARK 922        TOTAL FREE ENERGY PREDICTED BY IDOCK:   -6.35 KCAL/MOL
REMARK 923 INTER-LIGAND FREE ENERGY PREDICTED BY IDOCK:   -5.77 KCAL/MOL
REMARK 924 INTRA-LIGAND FREE ENERGY PREDICTED BY IDOCK:   -0.58 KCAL/MOL
REMARK 927      BINDING AFFINITY PREDICTED BY RF-SCORE:    0.00 PKD
ROOT
HETATM    1  C   UNL     1      -7.256   3.031  63.766  1.00  0.00    -0.053 C  
HETATM    2  C   UNL     1      -6.254   3.534  64.790  1.00  0.00    -0.023 C  
HETATM    3  O   UNL     1      -7.052   1.475  65.584  1.00  0.00    -0.044 OA 
HETATM    4  C   UNL     1      -5.869   2.278  65.525  1.00  0.00    -0.018 C  
HETATM    5  C   UNL     1      -7.948   1.917  64.546  1.00  0.00    -0.069 C  
ENDROOT
BRANCH   1   6
HETATM    6  O   UNL     1      -8.114   4.117  63.432  1.00  0.00    -0.082 OA 
BRANCH   6   7
HETATM    7  C   UNL     1      -8.873   4.682  64.414  1.00  0.00    -0.152 A  
HETATM    8  C   UNL     1     -10.656   4.786  66.048  1.00  0.00    -0.300 A  
HETATM    9  C   UNL     1     -10.032   4.144  64.964  1.00  0.00    -0.216 A  
HETATM   10  C   UNL     1     -10.129   5.969  66.593  1.00  0.00    -0.226 A  
HETATM   11  C   UNL     1      -8.353   5.865  64.941  1.00  0.00    -0.115 A  
HETATM   12  C   UNL     1      -8.977   6.510  66.012  1.00  0.00    -0.139 A  
BRANCH  10  13
HETATM   13  C   UNL     1     -10.736   6.606  67.832  1.00  0.00    -0.341 C  
BRANCH  13  14
HETATM   14  C   UNL     1      -9.829   7.652  68.451  1.00  0.00    -0.176 A  
HETATM   15  C   UNL     1      -8.790   7.355  69.344  1.00  0.00    -0.137 A  
HETATM   16 CL   UNL     1      -8.349   5.735  69.748  1.00  0.00    -0.111 Cl 
HETATM   17  C   UNL     1      -8.088   8.385  69.979  1.00  0.00    -0.115 A  
HETATM   18  C   UNL     1      -8.465   9.717  69.791  1.00  0.00    -0.200 A  
HETATM   19  C   UNL     1      -9.531  10.041  68.944  1.00  0.00    -0.172 A  
HETATM   20  C   UNL     1     -10.139   9.005  68.217  1.00  0.00    -0.223 A  
BRANCH  19  21
HETATM   21  C   UNL     1     -10.145  11.434  68.991  1.00  0.00    -0.090 C  
HETATM   22  O   UNL     1     -11.230  11.415  69.939  1.00  0.00    -0.235 OA 
HETATM   23  C   UNL     1     -11.709  12.722  70.270  1.00  0.00    -0.107 C  
HETATM   24  H   UNL     1      -9.780  12.527  65.904  1.00  0.00     0.000 HD 
HETATM   25  C   UNL     1     -12.284  13.388  69.021  1.00  0.00    -0.148 C  
HETATM   26  O   UNL     1      -9.500  12.154  66.731  1.00  0.00    -0.200 OA 
HETATM   27  C   UNL     1     -11.212  13.435  67.922  1.00  0.00    -0.275 C  
HETATM   28  O   UNL     1     -12.747  14.718  69.276  1.00  0.00    -0.556 OA 
HETATM   29  H   UNL     1     -11.114  14.028  66.053  1.00  0.00     0.000 HD 
HETATM   30  C   UNL     1     -10.602  12.042  67.644  1.00  0.00    -0.210 C  
HETATM   31  H   UNL     1     -13.104  15.132  68.498  1.00  0.00     0.000 HD 
HETATM   32  O   UNL     1     -11.777  13.999  66.732  1.00  0.00    -0.364 OA 
BRANCH  23  33
HETATM   33  C   UNL     1     -12.763  12.569  71.372  1.00  0.00    -0.243 C  
HETATM   34  O   UNL     1     -13.141  11.189  71.481  1.00  0.00    -0.425 OA 
HETATM   35  H   UNL     1     -13.794  11.094  72.164  1.00  0.00     0.000 HD 
ENDBRANCH  23  33
ENDBRANCH  19  21
ENDBRANCH  13  14
ENDBRANCH  10  13
ENDBRANCH   6   7
ENDBRANCH   1   6
TORSDOF 6
ENDMDL
MODEL      243
REMARK 921   NORMALIZED FREE ENERGY PREDICTED BY IDOCK:   -3.89 KCAL/MOL
REMARK 922        TOTAL FREE ENERGY PREDICTED BY IDOCK:   -6.23 KCAL/MOL
REMARK 923 INTER-LIGAND FREE ENERGY PREDICTED BY IDOCK:   -6.04 KCAL/MOL
REMARK 924 INTRA-LIGAND FREE ENERGY PREDICTED BY IDOCK:   -0.18 KCAL/MOL
REMARK 927      BINDING AFFINITY PREDICTED BY RF-SCORE:    0.00 PKD
ROOT
HETATM    1  C   UNL     1      -6.305   7.600  69.906  1.00  0.00    -0.027 C  
HETATM    2  C   UNL     1      -7.774   7.774  69.568  1.00  0.00    -0.105 C  
HETATM    3  O   UNL     1      -6.910   6.225  68.032  1.00  0.00    -0.065 OA 
HETATM    4  C   UNL     1      -8.088   6.526  68.787  1.00  0.00    -0.118 C  
HETATM    5  C   UNL     1      -5.793   6.885  68.658  1.00  0.00    -0.018 C  
ENDROOT
BRANCH   1   6
HETATM    6  O   UNL     1      -5.748   8.897  70.094  1.00  0.00    -0.030 OA 
BRANCH   6   7
HETATM    7  C   UNL     1      -6.137   9.906  69.263  1.00  0.00    -0.040 A  
HETATM    8  C   UNL     1      -6.128  11.233  67.238  1.00  0.00    -0.076 A  
HETATM    9  C   UNL     1      -5.555  10.232  68.042  1.00  0.00    -0.037 A  
HETATM   10  C   UNL     1      -7.286  11.917  67.645  1.00  0.00    -0.123 A  
HETATM   11  C   UNL     1      -7.278  10.593  69.680  1.00  0.00    -0.139 A  
HETATM   12  C   UNL     1      -7.844  11.595  68.887  1.00  0.00    -0.040 A  
BRANCH  10  13
HETATM   13  C   UNL     1      -7.971  12.921  66.733  1.00  0.00     0.194 C  
BRANCH  13  14
HETATM   14  C   UNL     1      -8.664  14.028  67.505  1.00  0.00    -0.201 A  
HETATM   15  C   UNL     1      -8.051  15.237  67.856  1.00  0.00    -0.138 A  
HETATM   16 CL   UNL     1      -6.457  15.653  67.337  1.00  0.00    -0.201 Cl 
HETATM   17  C   UNL     1      -8.709  16.150  68.687  1.00  0.00    -0.214 A  
HETATM   18  C   UNL     1      -9.953  15.831  69.239  1.00  0.00    -0.262 A  
HETATM   19  C   UNL     1     -10.568  14.608  68.947  1.00  0.00    -0.253 A  
HETATM   20  C   UNL     1      -9.951  13.763  68.010  1.00  0.00    -0.246 A  
BRANCH  19  21
HETATM   21  C   UNL     1     -11.742  14.125  69.788  1.00  0.00    -0.311 C  
HETATM   22  O   UNL     1     -11.733  14.855  71.031  1.00  0.00    -0.301 OA 
HETATM   23  C   UNL     1     -12.936  14.687  71.789  1.00  0.00    -0.335 C  
HETATM   24  H   UNL     1     -12.007  10.946  68.966  1.00  0.00     0.000 HD 
HETATM   25  C   UNL     1     -13.087  13.220  72.189  1.00  0.00    -0.385 C  
HETATM   26  O   UNL     1     -11.947  11.881  68.809  1.00  0.00    -0.309 OA 
HETATM   27  C   UNL     1     -13.078  12.338  70.931  1.00  0.00     0.167 C  
HETATM   28  O   UNL     1     -14.293  12.975  72.919  1.00  0.00    -0.545 OA 
HETATM   29  H   UNL     1     -13.145  10.416  70.540  1.00  0.00     0.000 HD 
HETATM   30  C   UNL     1     -11.839  12.603  70.045  1.00  0.00    -0.285 C  
HETATM   31  H   UNL     1     -14.387  12.063  73.167  1.00  0.00     0.000 HD 
HETATM   32  O   UNL     1     -13.151  10.961  71.318  1.00  0.00    -0.374 OA 
BRANCH  23  33
HETATM   33  C   UNL     1     -12.852  15.606  73.011  1.00  0.00    -0.490 C  
HETATM   34  O   UNL     1     -14.161  16.108  73.320  1.00  0.00    -0.733 OA 
HETATM   35  H   UNL     1     -14.109  16.678  74.078  1.00  0.00     0.000 HD 
ENDBRANCH  23  33
ENDBRANCH  19  21
ENDBRANCH  13  14
ENDBRANCH  10  13
ENDBRANCH   6   7
ENDBRANCH   1   6
TORSDOF 6
ENDMDL
MODEL      244
REMARK 921   NORMALIZED FREE ENERGY PREDICTED BY IDOCK:   -3.87 KCAL/MOL
REMARK 922        TOTAL FREE ENERGY PREDICTED BY IDOCK:   -6.19 KCAL/MOL
REMARK 923 INTER-LIGAND FREE ENERGY PREDICTED BY IDOCK:   -5.45 KCAL/MOL
REMARK 924 INTRA-LIGAND FREE ENERGY PREDICTED BY IDOCK:   -0.75 KCAL/MOL
REMARK 927      BINDING AFFINITY PREDICTED BY RF-SCORE:    0.00 PKD
ROOT
HETATM    1  C   UNL     1      -8.534   7.426  71.713  1.00  0.00    -0.107 C  
HETATM    2  C   UNL     1      -8.142   7.864  73.112  1.00  0.00    -0.213 C  
HETATM    3  O   UNL     1      -7.529   5.608  72.918  1.00  0.00    -0.093 OA 
HETATM    4  C   UNL     1      -7.108   6.842  73.505  1.00  0.00    -0.074 C  
HETATM    5  C   UNL     1      -8.429   5.908  71.834  1.00  0.00    -0.126 C  
ENDROOT
BRANCH   1   6
HETATM    6  O   UNL     1      -9.856   7.892  71.469  1.00  0.00    -0.161 OA 
BRANCH   6   7
HETATM    7  C   UNL     1     -10.026   9.059  70.782  1.00  0.00    -0.245 A  
HETATM    8  C   UNL     1      -9.571  10.698  69.060  1.00  0.00    -0.207 A  
HETATM    9  C   UNL     1      -9.217   9.527  69.752  1.00  0.00    -0.224 A  
HETATM   10  C   UNL     1     -10.736  11.412  69.390  1.00  0.00    -0.152 A  
HETATM   11  C   UNL     1     -11.175   9.772  71.125  1.00  0.00    -0.444 A  
HETATM   12  C   UNL     1     -11.525  10.942  70.445  1.00  0.00    -0.367 A  
BRANCH  10  13
HETATM   13  C   UNL     1     -11.182  12.615  68.575  1.00  0.00    -0.315 C  
BRANCH  13  14
HETATM   14  C   UNL     1     -10.855  13.930  69.255  1.00  0.00    -0.170 A  
HETATM   15  C   UNL     1     -11.778  14.674  70.002  1.00  0.00    -0.294 A  
HETATM   16 CL   UNL     1     -13.375  14.106  70.332  1.00  0.00     0.065 Cl 
HETATM   17  C   UNL     1     -11.441  15.944  70.481  1.00  0.00    -0.412 A  
HETATM   18  C   UNL     1     -10.209  16.517  70.155  1.00  0.00     0.314 A  
HETATM   19  C   UNL     1      -9.286  15.819  69.368  1.00  0.00    -0.263 A  
HETATM   20  C   UNL     1      -9.590  14.497  69.006  1.00  0.00    -0.105 A  
BRANCH  19  21
HETATM   21  C   UNL     1      -8.104  16.552  68.747  1.00  0.00    -0.244 C  
HETATM   22  O   UNL     1      -8.151  17.926  69.180  1.00  0.00    -0.102 OA 
HETATM   23  C   UNL     1      -6.952  18.649  68.885  1.00  0.00    -0.291 C  
HETATM   24  H   UNL     1      -7.719  15.046  65.842  1.00  0.00     0.000 HD 
HETATM   25  C   UNL     1      -6.754  18.714  67.371  1.00  0.00    -0.202 C  
HETATM   26  O   UNL     1      -7.810  15.101  66.786  1.00  0.00    -0.148 OA 
HETATM   27  C   UNL     1      -6.719  17.291  66.793  1.00  0.00    -0.214 C  
HETATM   28  O   UNL     1      -5.547  19.392  67.008  1.00  0.00    -0.171 OA 
HETATM   29  H   UNL     1      -6.580  16.482  65.010  1.00  0.00     0.000 HD 
HETATM   30  C   UNL     1      -7.957  16.464  67.210  1.00  0.00    -0.168 C  
HETATM   31  H   UNL     1      -5.424  19.433  66.066  1.00  0.00     0.000 HD 
HETATM   32  O   UNL     1      -6.601  17.362  65.367  1.00  0.00     0.126 OA 
BRANCH  23  33
HETATM   33  C   UNL     1      -7.081  20.044  69.504  1.00  0.00    -0.113 C  
HETATM   34  O   UNL     1      -6.115  20.921  68.906  1.00  0.00    -0.324 OA 
HETATM   35  H   UNL     1      -6.195  21.786  69.290  1.00  0.00     0.000 HD 
ENDBRANCH  23  33
ENDBRANCH  19  21
ENDBRANCH  13  14
ENDBRANCH  10  13
ENDBRANCH   6   7
ENDBRANCH   1   6
TORSDOF 6
ENDMDL
MODEL      245
REMARK 921   NORMALIZED FREE ENERGY PREDICTED BY IDOCK:   -3.71 KCAL/MOL
REMARK 922        TOTAL FREE ENERGY PREDICTED BY IDOCK:   -5.98 KCAL/MOL
REMARK 923 INTER-LIGAND FREE ENERGY PREDICTED BY IDOCK:   -5.37 KCAL/MOL
REMARK 924 INTRA-LIGAND FREE ENERGY PREDICTED BY IDOCK:   -0.61 KCAL/MOL
REMARK 927      BINDING AFFINITY PREDICTED BY RF-SCORE:    0.00 PKD
ROOT
HETATM    1  C   UNL     1      -7.277   6.647  69.053  1.00  0.00    -0.091 C  
HETATM    2  C   UNL     1      -8.779   6.752  69.251  1.00  0.00    -0.135 C  
HETATM    3  O   UNL     1      -8.444   5.488  67.303  1.00  0.00    -0.111 OA 
HETATM    4  C   UNL     1      -9.304   5.597  68.441  1.00  0.00    -0.119 C  
HETATM    5  C   UNL     1      -7.200   6.142  67.614  1.00  0.00    -0.079 C  
ENDROOT
BRANCH   1   6
HETATM    6  O   UNL     1      -6.725   7.946  69.236  1.00  0.00    -0.042 OA 
BRANCH   6   7
HETATM    7  C   UNL     1      -7.344   9.012  68.653  1.00  0.00    -0.077 A  
HETATM    8  C   UNL     1      -8.162  10.364  66.819  1.00  0.00    -0.126 A  
HETATM    9  C   UNL     1      -7.396   9.283  67.289  1.00  0.00    -0.091 A  
HETATM   10  C   UNL     1      -8.883  11.183  67.704  1.00  0.00    -0.136 A  
HETATM   11  C   UNL     1      -8.045   9.832  69.539  1.00  0.00    -0.141 A  
HETATM   12  C   UNL     1      -8.800  10.912  69.074  1.00  0.00    -0.105 A  
BRANCH  10  13
HETATM   13  C   UNL     1      -9.799  12.283  67.193  1.00  0.00    -0.207 C  
BRANCH  13  14
HETATM   14  C   UNL     1     -10.029  13.372  68.224  1.00  0.00    -0.240 A  
HETATM   15  C   UNL     1     -11.032  13.322  69.201  1.00  0.00    -0.161 A  
HETATM   16 CL   UNL     1     -12.049  11.943  69.417  1.00  0.00    -0.310 Cl 
HETATM   17  C   UNL     1     -11.271  14.426  70.026  1.00  0.00    -0.193 A  
HETATM   18  C   UNL     1     -10.566  15.617  69.833  1.00  0.00    -0.328 A  
HETATM   19  C   UNL     1      -9.594  15.713  68.831  1.00  0.00    -0.224 A  
HETATM   20  C   UNL     1      -9.279  14.556  68.100  1.00  0.00    -0.195 A  
BRANCH  19  21
HETATM   21  C   UNL     1      -9.068  17.079  68.408  1.00  0.00    -0.256 C  
HETATM   22  O   UNL     1      -8.003  17.447  69.305  1.00  0.00    -0.074 OA 
HETATM   23  C   UNL     1      -7.252  18.578  68.851  1.00  0.00    -0.279 C  
HETATM   24  H   UNL     1     -11.750  18.596  67.243  1.00  0.00     0.000 HD 
HETATM   25  C   UNL     1      -8.162  19.804  68.787  1.00  0.00    -0.173 C  
HETATM   26  O   UNL     1     -11.114  17.896  67.318  1.00  0.00    -0.144 OA 
HETATM   27  C   UNL     1      -9.360  19.510  67.873  1.00  0.00    -0.333 C  
HETATM   28  O   UNL     1      -7.480  20.964  68.301  1.00  0.00     0.064 OA 
HETATM   29  H   UNL     1     -10.984  20.457  67.306  1.00  0.00     0.000 HD 
HETATM   30  C   UNL     1     -10.105  18.220  68.286  1.00  0.00    -0.386 C  
HETATM   31  H   UNL     1      -8.046  21.727  68.262  1.00  0.00     0.000 HD 
HETATM   32  O   UNL     1     -10.243  20.639  67.872  1.00  0.00    -0.257 OA 
BRANCH  23  33
HETATM   33  C   UNL     1      -6.083  18.784  69.820  1.00  0.00    -0.242 C  
HETATM   34  O   UNL     1      -5.159  19.726  69.256  1.00  0.00    -0.181 OA 
HETATM   35  H   UNL     1      -4.434  19.855  69.856  1.00  0.00     0.000 HD 
ENDBRANCH  23  33
ENDBRANCH  19  21
ENDBRANCH  13  14
ENDBRANCH  10  13
ENDBRANCH   6   7
ENDBRANCH   1   6
TORSDOF 6
ENDMDL
MODEL      246
REMARK 921   NORMALIZED FREE ENERGY PREDICTED BY IDOCK:   -3.68 KCAL/MOL
REMARK 922        TOTAL FREE ENERGY PREDICTED BY IDOCK:   -5.93 KCAL/MOL
REMARK 923 INTER-LIGAND FREE ENERGY PREDICTED BY IDOCK:   -4.59 KCAL/MOL
REMARK 924 INTRA-LIGAND FREE ENERGY PREDICTED BY IDOCK:   -1.34 KCAL/MOL
REMARK 927      BINDING AFFINITY PREDICTED BY RF-SCORE:    0.00 PKD
ROOT
HETATM    1  C   UNL     1     -10.589   4.599  73.271  1.00  0.00    -0.219 C  
HETATM    2  C   UNL     1      -9.101   4.408  73.043  1.00  0.00    -0.129 C  
HETATM    3  O   UNL     1      -9.847   2.523  74.223  1.00  0.00    -0.091 OA 
HETATM    4  C   UNL     1      -8.926   2.922  73.204  1.00  0.00    -0.082 C  
HETATM    5  C   UNL     1     -10.869   3.532  74.326  1.00  0.00    -0.076 C  
ENDROOT
BRANCH   1   6
HETATM    6  O   UNL     1     -10.788   5.930  73.734  1.00  0.00    -0.245 OA 
BRANCH   6   7
HETATM    7  C   UNL     1     -10.292   6.964  72.994  1.00  0.00    -0.244 A  
HETATM    8  C   UNL     1      -8.577   8.402  72.074  1.00  0.00    -0.254 A  
HETATM    9  C   UNL     1      -8.968   7.388  72.965  1.00  0.00    -0.190 A  
HETATM   10  C   UNL     1      -9.504   9.002  71.204  1.00  0.00    -0.348 A  
HETATM   11  C   UNL     1     -11.221   7.567  72.145  1.00  0.00    -0.313 A  
HETATM   12  C   UNL     1     -10.837   8.582  71.265  1.00  0.00    -0.312 A  
BRANCH  10  13
HETATM   13  C   UNL     1      -9.066  10.020  70.164  1.00  0.00    -0.063 C  
BRANCH  13  14
HETATM   14  C   UNL     1      -9.413   9.593  68.751  1.00  0.00    -0.148 A  
HETATM   15  C   UNL     1     -10.414  10.195  67.977  1.00  0.00    -0.209 A  
HETATM   16 CL   UNL     1     -11.289  11.585  68.511  1.00  0.00    -0.306 Cl 
HETATM   17  C   UNL     1     -10.770   9.655  66.737  1.00  0.00    -0.149 A  
HETATM   18  C   UNL     1     -10.187   8.466  66.291  1.00  0.00    -0.017 A  
HETATM   19  C   UNL     1      -9.221   7.814  67.066  1.00  0.00    -0.176 A  
HETATM   20  C   UNL     1      -8.785   8.439  68.246  1.00  0.00    -0.143 A  
BRANCH  19  21
HETATM   21  C   UNL     1      -8.832   6.376  66.748  1.00  0.00    -0.124 C  
HETATM   22  O   UNL     1      -8.504   5.715  67.986  1.00  0.00    -0.103 OA 
HETATM   23  C   UNL     1      -8.386   4.295  67.850  1.00  0.00    -0.094 C  
HETATM   24  H   UNL     1      -7.392   6.617  63.794  1.00  0.00     0.000 HD 
HETATM   25  C   UNL     1      -7.230   3.968  66.905  1.00  0.00    -0.068 C  
HETATM   26  O   UNL     1      -8.079   6.743  64.437  1.00  0.00    -0.122 OA 
HETATM   27  C   UNL     1      -7.461   4.653  65.550  1.00  0.00    -0.081 C  
HETATM   28  O   UNL     1      -7.081   2.560  66.695  1.00  0.00    -0.048 OA 
HETATM   29  H   UNL     1      -6.485   4.820  63.855  1.00  0.00     0.000 HD 
HETATM   30  C   UNL     1      -7.712   6.171  65.701  1.00  0.00    -0.092 C  
HETATM   31  H   UNL     1      -6.362   2.356  66.107  1.00  0.00     0.000 HD 
HETATM   32  O   UNL     1      -6.342   4.396  64.693  1.00  0.00    -0.032 OA 
BRANCH  23  33
HETATM   33  C   UNL     1      -8.164   3.708  69.248  1.00  0.00    -0.056 C  
HETATM   34  O   UNL     1      -8.590   2.337  69.260  1.00  0.00    -0.059 OA 
HETATM   35  H   UNL     1      -8.453   1.973  70.126  1.00  0.00     0.000 HD 
ENDBRANCH  23  33
ENDBRANCH  19  21
ENDBRANCH  13  14
ENDBRANCH  10  13
ENDBRANCH   6   7
ENDBRANCH   1   6
TORSDOF 6
ENDMDL
MODEL      247
REMARK 921   NORMALIZED FREE ENERGY PREDICTED BY IDOCK:   -3.51 KCAL/MOL
REMARK 922        TOTAL FREE ENERGY PREDICTED BY IDOCK:   -5.71 KCAL/MOL
REMARK 923 INTER-LIGAND FREE ENERGY PREDICTED BY IDOCK:   -5.29 KCAL/MOL
REMARK 924 INTRA-LIGAND FREE ENERGY PREDICTED BY IDOCK:   -0.42 KCAL/MOL
REMARK 927      BINDING AFFINITY PREDICTED BY RF-SCORE:    0.00 PKD
ROOT
HETATM    1  C   UNL     1      -7.250   3.019  63.771  1.00  0.00    -0.053 C  
HETATM    2  C   UNL     1      -6.214   3.620  64.704  1.00  0.00    -0.023 C  
HETATM    3  O   UNL     1      -6.960   1.639  65.715  1.00  0.00    -0.040 OA 
HETATM    4  C   UNL     1      -5.788   2.440  65.536  1.00  0.00    -0.018 C  
HETATM    5  C   UNL     1      -7.900   1.977  64.677  1.00  0.00    -0.069 C  
ENDROOT
BRANCH   1   6
HETATM    6  O   UNL     1      -8.131   4.063  63.373  1.00  0.00    -0.085 OA 
BRANCH   6   7
HETATM    7  C   UNL     1      -8.775   4.783  64.336  1.00  0.00    -0.149 A  
HETATM    8  C   UNL     1     -10.317   5.146  66.167  1.00  0.00    -0.280 A  
HETATM    9  C   UNL     1      -9.816   4.328  65.139  1.00  0.00    -0.208 A  
HETATM   10  C   UNL     1      -9.784   6.425  66.402  1.00  0.00    -0.140 A  
HETATM   11  C   UNL     1      -8.253   6.059  64.553  1.00  0.00    -0.095 A  
HETATM   12  C   UNL     1      -8.755   6.877  65.568  1.00  0.00    -0.041 A  
BRANCH  10  13
HETATM   13  C   UNL     1     -10.246   7.269  67.578  1.00  0.00    -0.284 C  
BRANCH  13  14
HETATM   14  C   UNL     1      -9.363   8.481  67.806  1.00  0.00    -0.153 A  
HETATM   15  C   UNL     1      -8.187   8.458  68.568  1.00  0.00    -0.124 A  
HETATM   16 CL   UNL     1      -7.544   7.003  69.238  1.00  0.00    -0.094 Cl 
HETATM   17  C   UNL     1      -7.502   9.646  68.847  1.00  0.00    -0.075 A  
HETATM   18  C   UNL     1      -8.025  10.875  68.436  1.00  0.00    -0.127 A  
HETATM   19  C   UNL     1      -9.225  10.933  67.717  1.00  0.00    -0.155 A  
HETATM   20  C   UNL     1      -9.828   9.723  67.336  1.00  0.00    -0.219 A  
BRANCH  19  21
HETATM   21  C   UNL     1      -9.954  12.260  67.558  1.00  0.00    -0.199 C  
HETATM   22  O   UNL     1      -8.968  13.307  67.475  1.00  0.00    -0.186 OA 
HETATM   23  C   UNL     1      -9.514  14.562  67.055  1.00  0.00    -0.239 C  
HETATM   24  H   UNL     1     -12.726  11.814  69.283  1.00  0.00     0.000 HD 
HETATM   25  C   UNL     1     -10.528  15.049  68.089  1.00  0.00    -0.245 C  
HETATM   26  O   UNL     1     -12.066  11.607  68.632  1.00  0.00    -0.449 OA 
HETATM   27  C   UNL     1     -11.621  13.987  68.282  1.00  0.00    -0.329 C  
HETATM   28  O   UNL     1     -11.143  16.285  67.709  1.00  0.00    -0.310 OA 
HETATM   29  H   UNL     1     -13.204  13.765  69.421  1.00  0.00     0.000 HD 
HETATM   30  C   UNL     1     -11.029  12.599  68.618  1.00  0.00    -0.256 C  
HETATM   31  H   UNL     1     -11.774  16.588  68.353  1.00  0.00     0.000 HD 
HETATM   32  O   UNL     1     -12.529  14.422  69.301  1.00  0.00    -0.218 OA 
BRANCH  23  33
HETATM   33  C   UNL     1      -8.353  15.546  66.886  1.00  0.00    -0.255 C  
HETATM   34  O   UNL     1      -7.171  14.994  67.485  1.00  0.00    -0.174 OA 
HETATM   35  H   UNL     1      -6.450  15.604  67.380  1.00  0.00     0.000 HD 
ENDBRANCH  23  33
ENDBRANCH  19  21
ENDBRANCH  13  14
ENDBRANCH  10  13
ENDBRANCH   6   7
ENDBRANCH   1   6
TORSDOF 6
ENDMDL
MODEL      248
REMARK 921   NORMALIZED FREE ENERGY PREDICTED BY IDOCK:   -3.49 KCAL/MOL
REMARK 922        TOTAL FREE ENERGY PREDICTED BY IDOCK:   -5.68 KCAL/MOL
REMARK 923 INTER-LIGAND FREE ENERGY PREDICTED BY IDOCK:   -5.13 KCAL/MOL
REMARK 924 INTRA-LIGAND FREE ENERGY PREDICTED BY IDOCK:   -0.55 KCAL/MOL
REMARK 927      BINDING AFFINITY PREDICTED BY RF-SCORE:    0.00 PKD
ROOT
HETATM    1  C   UNL     1      -6.952   4.995  64.745  1.00  0.00    -0.050 C  
HETATM    2  C   UNL     1      -7.048   4.981  66.260  1.00  0.00    -0.072 C  
HETATM    3  O   UNL     1      -8.086   3.019  65.502  1.00  0.00    -0.085 OA 
HETATM    4  C   UNL     1      -7.276   3.525  66.567  1.00  0.00    -0.067 C  
HETATM    5  C   UNL     1      -7.948   3.900  64.371  1.00  0.00    -0.086 C  
ENDROOT
BRANCH   1   6
HETATM    6  O   UNL     1      -7.331   6.293  64.299  1.00  0.00    -0.063 OA 
BRANCH   6   7
HETATM    7  C   UNL     1      -7.756   7.206  65.220  1.00  0.00    -0.114 A  
HETATM    8  C   UNL     1      -9.259   8.157  66.861  1.00  0.00    -0.198 A  
HETATM    9  C   UNL     1      -8.995   7.215  65.852  1.00  0.00    -0.098 A  
HETATM   10  C   UNL     1      -8.290   9.098  67.248  1.00  0.00    -0.121 A  
HETATM   11  C   UNL     1      -6.795   8.148  65.588  1.00  0.00    -0.066 A  
HETATM   12  C   UNL     1      -7.059   9.092  66.585  1.00  0.00    -0.081 A  
BRANCH  10  13
HETATM   13  C   UNL     1      -8.530  10.046  68.412  1.00  0.00    -0.112 C  
BRANCH  13  14
HETATM   14  C   UNL     1      -7.631  11.266  68.362  1.00  0.00    -0.120 A  
HETATM   15  C   UNL     1      -6.515  11.448  69.188  1.00  0.00    -0.085 A  
HETATM   16 CL   UNL     1      -5.965  10.232  70.284  1.00  0.00    -0.076 Cl 
HETATM   17  C   UNL     1      -5.817  12.661  69.179  1.00  0.00    -0.080 A  
HETATM   18  C   UNL     1      -6.273  13.730  68.405  1.00  0.00    -0.100 A  
HETATM   19  C   UNL     1      -7.415  13.596  67.607  1.00  0.00    -0.191 A  
HETATM   20  C   UNL     1      -8.025  12.333  67.531  1.00  0.00    -0.166 A  
BRANCH  19  21
HETATM   21  C   UNL     1      -8.092  14.832  67.030  1.00  0.00    -0.144 C  
HETATM   22  O   UNL     1      -7.098  15.865  66.894  1.00  0.00    -0.198 OA 
HETATM   23  C   UNL     1      -7.548  16.978  66.115  1.00  0.00    -0.245 C  
HETATM   24  H   UNL     1     -11.133  14.689  68.289  1.00  0.00     0.000 HD 
HETATM   25  C   UNL     1      -8.727  17.650  66.818  1.00  0.00    -0.258 C  
HETATM   26  O   UNL     1     -10.368  14.364  67.829  1.00  0.00    -0.235 OA 
HETATM   27  C   UNL     1      -9.846  16.622  67.044  1.00  0.00    -0.260 C  
HETATM   28  O   UNL     1      -9.253  18.751  66.070  1.00  0.00    -0.476 OA 
HETATM   29  H   UNL     1     -11.611  16.606  67.903  1.00  0.00     0.000 HD 
HETATM   30  C   UNL     1      -9.338  15.361  67.779  1.00  0.00    -0.195 C  
HETATM   31  H   UNL     1      -9.986  19.168  66.507  1.00  0.00     0.000 HD 
HETATM   32  O   UNL     1     -10.920  17.241  67.763  1.00  0.00    -0.318 OA 
BRANCH  23  33
HETATM   33  C   UNL     1      -6.366  17.938  65.941  1.00  0.00    -0.252 C  
HETATM   34  O   UNL     1      -6.632  18.825  64.845  1.00  0.00    -0.516 OA 
HETATM   35  H   UNL     1      -5.899  19.420  64.736  1.00  0.00     0.000 HD 
ENDBRANCH  23  33
ENDBRANCH  19  21
ENDBRANCH  13  14
ENDBRANCH  10  13
ENDBRANCH   6   7
ENDBRANCH   1   6
TORSDOF 6
ENDMDL
MODEL      249
REMARK 921   NORMALIZED FREE ENERGY PREDICTED BY IDOCK:   -3.48 KCAL/MOL
REMARK 922        TOTAL FREE ENERGY PREDICTED BY IDOCK:   -5.67 KCAL/MOL
REMARK 923 INTER-LIGAND FREE ENERGY PREDICTED BY IDOCK:   -4.74 KCAL/MOL
REMARK 924 INTRA-LIGAND FREE ENERGY PREDICTED BY IDOCK:   -0.93 KCAL/MOL
REMARK 927      BINDING AFFINITY PREDICTED BY RF-SCORE:    0.00 PKD
ROOT
HETATM    1  C   UNL     1     -11.164   5.562  72.267  1.00  0.00    -0.220 C  
HETATM    2  C   UNL     1     -10.323   4.498  72.949  1.00  0.00    -0.243 C  
HETATM    3  O   UNL     1     -10.350   6.356  74.382  1.00  0.00    -0.332 OA 
HETATM    4  C   UNL     1     -10.351   4.926  74.393  1.00  0.00    -0.284 C  
HETATM    5  C   UNL     1     -10.810   6.797  73.090  1.00  0.00    -0.284 C  
ENDROOT
BRANCH   1   6
HETATM    6  O   UNL     1     -10.744   5.638  70.908  1.00  0.00    -0.255 OA 
BRANCH   6   7
HETATM    7  C   UNL     1     -10.188   6.798  70.456  1.00  0.00    -0.192 A  
HETATM    8  C   UNL     1      -8.391   8.340  69.953  1.00  0.00    -0.125 A  
HETATM    9  C   UNL     1      -8.847   7.157  70.559  1.00  0.00    -0.154 A  
HETATM   10  C   UNL     1      -9.268   9.176  69.239  1.00  0.00    -0.146 A  
HETATM   11  C   UNL     1     -11.066   7.632  69.763  1.00  0.00    -0.115 A  
HETATM   12  C   UNL     1     -10.617   8.813  69.168  1.00  0.00    -0.200 A  
BRANCH  10  13
HETATM   13  C   UNL     1      -8.760  10.397  68.491  1.00  0.00    -0.135 C  
BRANCH  13  14
HETATM   14  C   UNL     1      -8.805  10.216  66.986  1.00  0.00    -0.144 A  
HETATM   15  C   UNL     1      -9.333  11.165  66.100  1.00  0.00    -0.206 A  
HETATM   16 CL   UNL     1      -9.886  12.715  66.624  1.00  0.00    -0.238 Cl 
HETATM   17  C   UNL     1      -9.466  10.866  64.740  1.00  0.00    -0.279 A  
HETATM   18  C   UNL     1      -9.148   9.592  64.263  1.00  0.00    -0.267 A  
HETATM   19  C   UNL     1      -8.666   8.607  65.132  1.00  0.00    -0.179 A  
HETATM   20  C   UNL     1      -8.418   8.965  66.467  1.00  0.00    -0.124 A  
BRANCH  19  21
HETATM   21  C   UNL     1      -8.632   7.150  64.690  1.00  0.00     0.285 C  
HETATM   22  O   UNL     1      -8.638   6.323  65.869  1.00  0.00    -0.141 OA 
HETATM   23  C   UNL     1      -8.880   4.941  65.584  1.00  0.00    -0.139 C  
HETATM   24  H   UNL     1      -6.840   7.240  61.926  1.00  0.00     0.000 HD 
HETATM   25  C   UNL     1      -7.747   4.392  64.718  1.00  0.00    -0.078 C  
HETATM   26  O   UNL     1      -7.542   7.493  62.514  1.00  0.00    -0.096 OA 
HETATM   27  C   UNL     1      -7.628   5.227  63.434  1.00  0.00    -0.066 C  
HETATM   28  O   UNL     1      -7.948   3.020  64.363  1.00  0.00    -0.081 OA 
HETATM   29  H   UNL     1      -6.449   5.266  61.865  1.00  0.00     0.000 HD 
HETATM   30  C   UNL     1      -7.489   6.737  63.733  1.00  0.00    -0.091 C  
HETATM   31  H   UNL     1      -7.243   2.679  63.824  1.00  0.00     0.000 HD 
HETATM   32  O   UNL     1      -6.522   4.749  62.659  1.00  0.00    -0.025 OA 
BRANCH  23  33
HETATM   33  C   UNL     1      -8.987   4.199  66.921  1.00  0.00    -0.127 C  
HETATM   34  O   UNL     1     -10.285   4.426  67.487  1.00  0.00    -0.061 OA 
HETATM   35  H   UNL     1     -10.353   3.966  68.316  1.00  0.00     0.000 HD 
ENDBRANCH  23  33
ENDBRANCH  19  21
ENDBRANCH  13  14
ENDBRANCH  10  13
ENDBRANCH   6   7
ENDBRANCH   1   6
TORSDOF 6
ENDMDL
MODEL      250
REMARK 921   NORMALIZED FREE ENERGY PREDICTED BY IDOCK:   -3.48 KCAL/MOL
REMARK 922        TOTAL FREE ENERGY PREDICTED BY IDOCK:   -5.67 KCAL/MOL
REMARK 923 INTER-LIGAND FREE ENERGY PREDICTED BY IDOCK:   -4.95 KCAL/MOL
REMARK 924 INTRA-LIGAND FREE ENERGY PREDICTED BY IDOCK:   -0.72 KCAL/MOL
REMARK 927      BINDING AFFINITY PREDICTED BY RF-SCORE:    0.00 PKD
ROOT
HETATM    1  C   UNL     1      -6.826   3.508  65.245  1.00  0.00    -0.049 C  
HETATM    2  C   UNL     1      -6.132   4.189  66.410  1.00  0.00    -0.031 C  
HETATM    3  O   UNL     1      -7.149   2.257  67.269  1.00  0.00    -0.046 OA 
HETATM    4  C   UNL     1      -5.982   3.072  67.408  1.00  0.00    -0.024 C  
HETATM    5  C   UNL     1      -7.723   2.509  65.972  1.00  0.00    -0.080 C  
ENDROOT
BRANCH   1   6
HETATM    6  O   UNL     1      -7.543   4.506  64.526  1.00  0.00    -0.071 OA 
BRANCH   6   7
HETATM    7  C   UNL     1      -8.294   5.406  65.223  1.00  0.00    -0.142 A  
HETATM    8  C   UNL     1      -9.977   6.128  66.807  1.00  0.00    -0.218 A  
HETATM    9  C   UNL     1      -9.359   5.105  66.067  1.00  0.00    -0.165 A  
HETATM   10  C   UNL     1      -9.539   7.460  66.711  1.00  0.00    -0.249 A  
HETATM   11  C   UNL     1      -7.865   6.730  65.112  1.00  0.00    -0.119 A  
HETATM   12  C   UNL     1      -8.485   7.750  65.839  1.00  0.00    -0.151 A  
BRANCH  10  13
HETATM   13  C   UNL     1     -10.131   8.550  67.589  1.00  0.00    -0.271 C  
BRANCH  13  14
HETATM   14  C   UNL     1      -9.086   9.539  68.071  1.00  0.00    -0.126 A  
HETATM   15  C   UNL     1      -8.011   9.196  68.902  1.00  0.00    -0.099 A  
HETATM   16 CL   UNL     1      -7.688   7.567  69.375  1.00  0.00    -0.109 Cl 
HETATM   17  C   UNL     1      -7.170  10.189  69.416  1.00  0.00    -0.096 A  
HETATM   18  C   UNL     1      -7.439  11.538  69.170  1.00  0.00    -0.025 A  
HETATM   19  C   UNL     1      -8.536  11.913  68.386  1.00  0.00    -0.155 A  
HETATM   20  C   UNL     1      -9.290  10.900  67.774  1.00  0.00    -0.162 A  
BRANCH  19  21
HETATM   21  C   UNL     1      -9.015  13.359  68.388  1.00  0.00    -0.136 C  
HETATM   22  O   UNL     1     -10.441  13.358  68.599  1.00  0.00    -0.243 OA 
HETATM   23  C   UNL     1     -10.966  14.657  68.891  1.00  0.00    -0.253 C  
HETATM   24  H   UNL     1      -6.987  14.834  66.252  1.00  0.00     0.000 HD 
HETATM   25  C   UNL     1     -10.741  15.579  67.693  1.00  0.00    -0.302 C  
HETATM   26  O   UNL     1      -7.217  14.305  67.006  1.00  0.00    -0.032 OA 
HETATM   27  C   UNL     1      -9.243  15.632  67.356  1.00  0.00    -0.198 C  
HETATM   28  O   UNL     1     -11.209  16.910  67.934  1.00  0.00    -0.239 OA 
HETATM   29  H   UNL     1      -8.121  16.476  65.984  1.00  0.00     0.000 HD 
HETATM   30  C   UNL     1      -8.641  14.222  67.160  1.00  0.00    -0.216 C  
HETATM   31  H   UNL     1     -11.069  17.484  67.189  1.00  0.00     0.000 HD 
HETATM   32  O   UNL     1      -9.047  16.444  66.192  1.00  0.00    -0.298 OA 
BRANCH  23  33
HETATM   33  C   UNL     1     -12.454  14.499  69.217  1.00  0.00    -0.031 C  
HETATM   34  O   UNL     1     -12.832  15.475  70.199  1.00  0.00    -0.617 OA 
HETATM   35  H   UNL     1     -13.755  15.377  70.402  1.00  0.00     0.000 HD 
ENDBRANCH  23  33
ENDBRANCH  19  21
ENDBRANCH  13  14
ENDBRANCH  10  13
ENDBRANCH   6   7
ENDBRANCH   1   6
TORSDOF 6
ENDMDL
MODEL      251
REMARK 921   NORMALIZED FREE ENERGY PREDICTED BY IDOCK:   -3.34 KCAL/MOL
REMARK 922        TOTAL FREE ENERGY PREDICTED BY IDOCK:   -5.47 KCAL/MOL
REMARK 923 INTER-LIGAND FREE ENERGY PREDICTED BY IDOCK:   -4.88 KCAL/MOL
REMARK 924 INTRA-LIGAND FREE ENERGY PREDICTED BY IDOCK:   -0.59 KCAL/MOL
REMARK 927      BINDING AFFINITY PREDICTED BY RF-SCORE:    0.00 PKD
ROOT
HETATM    1  C   UNL     1     -12.131   7.882  70.562  1.00  0.00     0.121 C  
HETATM    2  C   UNL     1     -10.795   7.524  71.188  1.00  0.00    -0.254 C  
HETATM    3  O   UNL     1     -12.350   7.639  72.941  1.00  0.00     0.055 OA 
HETATM    4  C   UNL     1     -11.196   6.915  72.505  1.00  0.00    -0.267 C  
HETATM    5  C   UNL     1     -12.943   8.276  71.793  1.00  0.00    -0.344 C  
ENDROOT
BRANCH   1   6
HETATM    6  O   UNL     1     -11.909   8.955  69.653  1.00  0.00     0.402 OA 
BRANCH   6   7
HETATM    7  C   UNL     1     -10.630   9.247  69.281  1.00  0.00    -0.222 A  
HETATM    8  C   UNL     1      -8.746   9.402  67.769  1.00  0.00    -0.116 A  
HETATM    9  C   UNL     1     -10.044   8.945  68.056  1.00  0.00    -0.239 A  
HETATM   10  C   UNL     1      -8.021  10.163  68.701  1.00  0.00    -0.103 A  
HETATM   11  C   UNL     1      -9.908   9.988  70.218  1.00  0.00    -0.144 A  
HETATM   12  C   UNL     1      -8.614  10.435  69.939  1.00  0.00     0.121 A  
BRANCH  10  13
HETATM   13  C   UNL     1      -6.663  10.751  68.355  1.00  0.00    -0.059 C  
BRANCH  13  14
HETATM   14  C   UNL     1      -6.426  12.094  69.017  1.00  0.00    -0.092 A  
HETATM   15  C   UNL     1      -5.816  12.252  70.269  1.00  0.00    -0.166 A  
HETATM   16 CL   UNL     1      -5.151  10.923  71.149  1.00  0.00    -0.098 Cl 
HETATM   17  C   UNL     1      -5.758  13.511  70.874  1.00  0.00    -0.189 A  
HETATM   18  C   UNL     1      -6.377  14.611  70.275  1.00  0.00    -0.171 A  
HETATM   19  C   UNL     1      -7.039  14.474  69.049  1.00  0.00    -0.124 A  
HETATM   20  C   UNL     1      -6.974  13.233  68.396  1.00  0.00    -0.105 A  
BRANCH  19  21
HETATM   21  C   UNL     1      -7.978  15.570  68.563  1.00  0.00    -0.137 C  
HETATM   22  O   UNL     1      -7.461  16.837  69.015  1.00  0.00    -0.229 OA 
HETATM   23  C   UNL     1      -8.102  17.958  68.397  1.00  0.00    -0.299 C  
HETATM   24  H   UNL     1     -10.934  14.117  68.621  1.00  0.00     0.000 HD 
HETATM   25  C   UNL     1      -9.582  17.973  68.777  1.00  0.00    -0.301 C  
HETATM   26  O   UNL     1     -10.016  14.207  68.396  1.00  0.00    -0.224 OA 
HETATM   27  C   UNL     1     -10.234  16.645  68.365  1.00  0.00    -0.284 C  
HETATM   28  O   UNL     1     -10.293  19.050  68.158  1.00  0.00    -0.376 OA 
HETATM   29  H   UNL     1     -12.007  15.818  68.530  1.00  0.00     0.000 HD 
HETATM   30  C   UNL     1      -9.473  15.423  68.931  1.00  0.00    -0.219 C  
HETATM   31  H   UNL     1     -11.213  19.059  68.394  1.00  0.00     0.000 HD 
HETATM   32  O   UNL     1     -11.604  16.639  68.785  1.00  0.00    -0.178 OA 
BRANCH  23  33
HETATM   33  C   UNL     1      -7.380  19.226  68.863  1.00  0.00    -0.356 C  
HETATM   34  O   UNL     1      -7.436  20.214  67.823  1.00  0.00    -0.282 OA 
HETATM   35  H   UNL     1      -6.988  21.001  68.112  1.00  0.00     0.000 HD 
ENDBRANCH  23  33
ENDBRANCH  19  21
ENDBRANCH  13  14
ENDBRANCH  10  13
ENDBRANCH   6   7
ENDBRANCH   1   6
TORSDOF 6
ENDMDL
MODEL      252
REMARK 921   NORMALIZED FREE ENERGY PREDICTED BY IDOCK:   -3.32 KCAL/MOL
REMARK 922        TOTAL FREE ENERGY PREDICTED BY IDOCK:   -5.45 KCAL/MOL
REMARK 923 INTER-LIGAND FREE ENERGY PREDICTED BY IDOCK:   -5.22 KCAL/MOL
REMARK 924 INTRA-LIGAND FREE ENERGY PREDICTED BY IDOCK:   -0.23 KCAL/MOL
REMARK 927      BINDING AFFINITY PREDICTED BY RF-SCORE:    0.00 PKD
ROOT
HETATM    1  C   UNL     1      -7.955  17.654  67.513  1.00  0.00    -0.203 C  
HETATM    2  C   UNL     1      -7.847  18.223  66.110  1.00  0.00    -0.239 C  
HETATM    3  O   UNL     1      -6.520  19.580  67.490  1.00  0.00    -0.202 OA 
HETATM    4  C   UNL     1      -6.575  19.026  66.172  1.00  0.00    -0.215 C  
HETATM    5  C   UNL     1      -7.374  18.795  68.344  1.00  0.00    -0.291 C  
ENDROOT
BRANCH   1   6
HETATM    6  O   UNL     1      -9.332  17.400  67.771  1.00  0.00    -0.249 OA 
BRANCH   6   7
HETATM    7  C   UNL     1      -9.959  16.409  67.074  1.00  0.00    -0.261 A  
HETATM    8  C   UNL     1     -10.469  15.047  65.139  1.00  0.00    -0.438 A  
HETATM    9  C   UNL     1      -9.847  16.172  65.708  1.00  0.00    -0.354 A  
HETATM   10  C   UNL     1     -11.208  14.149  65.928  1.00  0.00    -0.313 A  
HETATM   11  C   UNL     1     -10.706  15.530  67.860  1.00  0.00    -0.294 A  
HETATM   12  C   UNL     1     -11.332  14.416  67.295  1.00  0.00    -0.357 A  
BRANCH  10  13
HETATM   13  C   UNL     1     -11.790  12.875  65.338  1.00  0.00    -0.444 C  
BRANCH  13  14
HETATM   14  C   UNL     1     -10.719  11.869  64.960  1.00  0.00    -0.341 A  
HETATM   15  C   UNL     1     -10.721  11.141  63.763  1.00  0.00    -0.329 A  
HETATM   16 CL   UNL     1     -11.891  11.401  62.520  1.00  0.00     1.096 Cl 
HETATM   17  C   UNL     1      -9.776  10.132  63.547  1.00  0.00    -0.145 A  
HETATM   18  C   UNL     1      -8.871   9.786  64.554  1.00  0.00    -0.248 A  
HETATM   19  C   UNL     1      -8.879  10.461  65.781  1.00  0.00    -0.186 A  
HETATM   20  C   UNL     1      -9.748  11.555  65.928  1.00  0.00    -0.260 A  
BRANCH  19  21
HETATM   21  C   UNL     1      -8.134   9.882  66.975  1.00  0.00    -0.110 C  
HETATM   22  O   UNL     1      -7.360   8.756  66.518  1.00  0.00    -0.080 OA 
HETATM   23  C   UNL     1      -6.411   8.296  67.487  1.00  0.00    -0.058 C  
HETATM   24  H   UNL     1     -10.200  10.410  69.487  1.00  0.00     0.000 HD 
HETATM   25  C   UNL     1      -7.150   7.794  68.727  1.00  0.00    -0.076 C  
HETATM   26  O   UNL     1      -9.679  10.644  68.728  1.00  0.00    -0.173 OA 
HETATM   27  C   UNL     1      -8.039   8.915  69.286  1.00  0.00    -0.109 C  
HETATM   28  O   UNL     1      -6.256   7.355  69.754  1.00  0.00    -0.030 OA 
HETATM   29  H   UNL     1      -9.329   9.110  70.753  1.00  0.00     0.000 HD 
HETATM   30  C   UNL     1      -8.983   9.500  68.211  1.00  0.00    -0.124 C  
HETATM   31  H   UNL     1      -6.715   7.043  70.525  1.00  0.00     0.000 HD 
HETATM   32  O   UNL     1      -8.779   8.417  70.408  1.00  0.00    -0.133 OA 
BRANCH  23  33
HETATM   33  C   UNL     1      -5.574   7.191  66.835  1.00  0.00    -0.022 C  
HETATM   34  O   UNL     1      -5.810   7.188  65.419  1.00  0.00    -0.035 OA 
HETATM   35  H   UNL     1      -5.291   6.503  65.015  1.00  0.00     0.000 HD 
ENDBRANCH  23  33
ENDBRANCH  19  21
ENDBRANCH  13  14
ENDBRANCH  10  13
ENDBRANCH   6   7
ENDBRANCH   1   6
TORSDOF 6
ENDMDL
MODEL      253
REMARK 921   NORMALIZED FREE ENERGY PREDICTED BY IDOCK:   -3.31 KCAL/MOL
REMARK 922        TOTAL FREE ENERGY PREDICTED BY IDOCK:   -5.43 KCAL/MOL
REMARK 923 INTER-LIGAND FREE ENERGY PREDICTED BY IDOCK:   -5.98 KCAL/MOL
REMARK 924 INTRA-LIGAND FREE ENERGY PREDICTED BY IDOCK:    0.55 KCAL/MOL
REMARK 927      BINDING AFFINITY PREDICTED BY RF-SCORE:    0.00 PKD
ROOT
HETATM    1  C   UNL     1     -12.809  13.026  64.569  1.00  0.00    -0.152 C  
HETATM    2  C   UNL     1     -12.536  13.892  65.785  1.00  0.00    -0.530 C  
HETATM    3  O   UNL     1     -12.484  15.315  63.921  1.00  0.00    -0.737 OA 
HETATM    4  C   UNL     1     -12.878  15.273  65.295  1.00  0.00     0.799 C  
HETATM    5  C   UNL     1     -12.396  13.961  63.436  1.00  0.00     0.114 C  
ENDROOT
BRANCH   1   6
HETATM    6  O   UNL     1     -11.997  11.861  64.677  1.00  0.00    -0.274 OA 
BRANCH   6   7
HETATM    7  C   UNL     1     -11.022  11.825  65.630  1.00  0.00    -0.295 A  
HETATM    8  C   UNL     1      -8.754  11.767  66.473  1.00  0.00    -0.173 A  
HETATM    9  C   UNL     1      -9.657  11.680  65.400  1.00  0.00    -0.228 A  
HETATM   10  C   UNL     1      -9.203  12.000  67.785  1.00  0.00    -0.190 A  
HETATM   11  C   UNL     1     -11.476  12.041  66.932  1.00  0.00    -0.402 A  
HETATM   12  C   UNL     1     -10.580  12.118  68.002  1.00  0.00    -0.232 A  
BRANCH  10  13
HETATM   13  C   UNL     1      -8.225  12.203  68.929  1.00  0.00     0.161 C  
BRANCH  13  14
HETATM   14  C   UNL     1      -7.307  13.390  68.705  1.00  0.00    -0.106 A  
HETATM   15  C   UNL     1      -5.950  13.404  69.053  1.00  0.00    -0.083 A  
HETATM   16 CL   UNL     1      -5.137  12.012  69.672  1.00  0.00    -0.069 Cl 
HETATM   17  C   UNL     1      -5.203  14.582  68.942  1.00  0.00    -0.088 A  
HETATM   18  C   UNL     1      -5.821  15.775  68.559  1.00  0.00    -0.100 A  
HETATM   19  C   UNL     1      -7.187  15.803  68.254  1.00  0.00    -0.118 A  
HETATM   20  C   UNL     1      -7.889  14.587  68.246  1.00  0.00    -0.131 A  
BRANCH  19  21
HETATM   21  C   UNL     1      -7.919  17.135  68.159  1.00  0.00    -0.216 C  
HETATM   22  O   UNL     1      -8.688  17.138  66.940  1.00  0.00    -0.213 OA 
HETATM   23  C   UNL     1      -9.626  18.217  66.871  1.00  0.00    -0.299 C  
HETATM   24  H   UNL     1      -5.841  19.248  69.597  1.00  0.00     0.000 HD 
HETATM   25  C   UNL     1      -8.875  19.547  66.872  1.00  0.00    -0.314 C  
HETATM   26  O   UNL     1      -6.369  18.462  69.528  1.00  0.00    -0.261 OA 
HETATM   27  C   UNL     1      -7.991  19.640  68.125  1.00  0.00    -0.318 C  
HETATM   28  O   UNL     1      -9.759  20.673  66.844  1.00  0.00    -0.601 OA 
HETATM   29  H   UNL     1      -6.693  20.916  68.860  1.00  0.00     0.000 HD 
HETATM   30  C   UNL     1      -7.059  18.415  68.271  1.00  0.00    -0.259 C  
HETATM   31  H   UNL     1      -9.292  21.500  66.845  1.00  0.00     0.000 HD 
HETATM   32  O   UNL     1      -7.239  20.859  68.085  1.00  0.00    -0.121 OA 
BRANCH  23  33
HETATM   33  C   UNL     1     -10.459  18.033  65.598  1.00  0.00    -0.097 C  
HETATM   34  O   UNL     1     -11.002  19.299  65.198  1.00  0.00    -0.448 OA 
HETATM   35  H   UNL     1     -11.518  19.185  64.409  1.00  0.00     0.000 HD 
ENDBRANCH  23  33
ENDBRANCH  19  21
ENDBRANCH  13  14
ENDBRANCH  10  13
ENDBRANCH   6   7
ENDBRANCH   1   6
TORSDOF 6
ENDMDL
MODEL      254
REMARK 921   NORMALIZED FREE ENERGY PREDICTED BY IDOCK:   -3.22 KCAL/MOL
REMARK 922        TOTAL FREE ENERGY PREDICTED BY IDOCK:   -5.32 KCAL/MOL
REMARK 923 INTER-LIGAND FREE ENERGY PREDICTED BY IDOCK:   -4.78 KCAL/MOL
REMARK 924 INTRA-LIGAND FREE ENERGY PREDICTED BY IDOCK:   -0.54 KCAL/MOL
REMARK 927      BINDING AFFINITY PREDICTED BY RF-SCORE:    0.00 PKD
ROOT
HETATM    1  C   UNL     1     -11.171   5.770  71.805  1.00  0.00    -0.211 C  
HETATM    2  C   UNL     1      -9.753   5.446  71.372  1.00  0.00    -0.213 C  
HETATM    3  O   UNL     1     -10.446   3.693  72.768  1.00  0.00    -0.164 OA 
HETATM    4  C   UNL     1      -9.664   3.961  71.600  1.00  0.00    -0.170 C  
HETATM    5  C   UNL     1     -11.364   4.787  72.956  1.00  0.00    -0.240 C  
ENDROOT
BRANCH   1   6
HETATM    6  O   UNL     1     -11.200   7.136  72.205  1.00  0.00    -0.240 OA 
BRANCH   6   7
HETATM    7  C   UNL     1     -10.303   8.002  71.652  1.00  0.00    -0.214 A  
HETATM    8  C   UNL     1      -8.119   8.967  71.249  1.00  0.00    -0.185 A  
HETATM    9  C   UNL     1      -8.953   8.099  71.976  1.00  0.00    -0.236 A  
HETATM   10  C   UNL     1      -8.625   9.744  70.193  1.00  0.00    -0.214 A  
HETATM   11  C   UNL     1     -10.814   8.784  70.616  1.00  0.00    -0.273 A  
HETATM   12  C   UNL     1      -9.989   9.654  69.898  1.00  0.00    -0.273 A  
BRANCH  10  13
HETATM   13  C   UNL     1      -7.708  10.600  69.335  1.00  0.00    -0.132 C  
BRANCH  13  14
HETATM   14  C   UNL     1      -7.641  10.119  67.898  1.00  0.00    -0.089 A  
HETATM   15  C   UNL     1      -7.924  10.928  66.790  1.00  0.00    -0.143 A  
HETATM   16 CL   UNL     1      -8.266  12.614  66.936  1.00  0.00    -0.104 Cl 
HETATM   17  C   UNL     1      -7.977  10.375  65.506  1.00  0.00    -0.153 A  
HETATM   18  C   UNL     1      -7.825   8.998  65.323  1.00  0.00    -0.102 A  
HETATM   19  C   UNL     1      -7.592   8.157  66.418  1.00  0.00    -0.091 A  
HETATM   20  C   UNL     1      -7.415   8.747  67.680  1.00  0.00    -0.093 A  
BRANCH  19  21
HETATM   21  C   UNL     1      -7.752   6.650  66.269  1.00  0.00    -0.098 C  
HETATM   22  O   UNL     1      -8.060   6.365  64.891  1.00  0.00    -0.121 OA 
HETATM   23  C   UNL     1      -7.967   4.973  64.571  1.00  0.00    -0.106 C  
HETATM   24  H   UNL     1      -9.025   5.734  69.167  1.00  0.00     0.000 HD 
HETATM   25  C   UNL     1      -9.003   4.193  65.379  1.00  0.00    -0.132 C  
HETATM   26  O   UNL     1      -8.404   6.158  68.587  1.00  0.00    -0.113 OA 
HETATM   27  C   UNL     1      -8.787   4.449  66.878  1.00  0.00    -0.114 C  
HETATM   28  O   UNL     1      -8.937   2.785  65.135  1.00  0.00    -0.126 OA 
HETATM   29  H   UNL     1      -9.669   3.928  68.553  1.00  0.00     0.000 HD 
HETATM   30  C   UNL     1      -8.765   5.958  67.213  1.00  0.00    -0.108 C  
HETATM   31  H   UNL     1      -9.581   2.299  65.638  1.00  0.00     0.000 HD 
HETATM   32  O   UNL     1      -9.802   3.769  67.626  1.00  0.00    -0.134 OA 
BRANCH  23  33
HETATM   33  C   UNL     1      -8.189   4.823  63.062  1.00  0.00    -0.096 C  
HETATM   34  O   UNL     1      -8.137   6.117  62.443  1.00  0.00    -0.095 OA 
HETATM   35  H   UNL     1      -8.275   6.024  61.508  1.00  0.00     0.000 HD 
ENDBRANCH  23  33
ENDBRANCH  19  21
ENDBRANCH  13  14
ENDBRANCH  10  13
ENDBRANCH   6   7
ENDBRANCH   1   6
TORSDOF 6
ENDMDL
MODEL      255
REMARK 921   NORMALIZED FREE ENERGY PREDICTED BY IDOCK:   -3.21 KCAL/MOL
REMARK 922        TOTAL FREE ENERGY PREDICTED BY IDOCK:   -5.30 KCAL/MOL
REMARK 923 INTER-LIGAND FREE ENERGY PREDICTED BY IDOCK:   -6.29 KCAL/MOL
REMARK 924 INTRA-LIGAND FREE ENERGY PREDICTED BY IDOCK:    0.99 KCAL/MOL
REMARK 927      BINDING AFFINITY PREDICTED BY RF-SCORE:    0.00 PKD
ROOT
HETATM    1  C   UNL     1      -8.516   9.019  67.852  1.00  0.00    -0.121 C  
HETATM    2  C   UNL     1      -9.099   9.920  66.778  1.00  0.00    -0.164 C  
HETATM    3  O   UNL     1      -7.943   8.209  65.665  1.00  0.00    -0.096 OA 
HETATM    4  C   UNL     1      -9.111   9.030  65.565  1.00  0.00    -0.214 C  
HETATM    5  C   UNL     1      -7.519   8.194  67.041  1.00  0.00    -0.088 C  
ENDROOT
BRANCH   1   6
HETATM    6  O   UNL     1      -7.907   9.853  68.832  1.00  0.00    -0.083 OA 
BRANCH   6   7
HETATM    7  C   UNL     1      -7.597  11.139  68.500  1.00  0.00    -0.120 A  
HETATM    8  C   UNL     1      -6.308  12.907  67.464  1.00  0.00    -0.161 A  
HETATM    9  C   UNL     1      -6.448  11.559  67.837  1.00  0.00    -0.056 A  
HETATM   10  C   UNL     1      -7.313  13.848  67.750  1.00  0.00    -0.170 A  
HETATM   11  C   UNL     1      -8.591  12.072  68.801  1.00  0.00     0.076 A  
HETATM   12  C   UNL     1      -8.449  13.414  68.440  1.00  0.00    -0.135 A  
BRANCH  10  13
HETATM   13  C   UNL     1      -7.216  15.281  67.254  1.00  0.00    -0.213 C  
BRANCH  13  14
HETATM   14  C   UNL     1      -8.293  16.173  67.841  1.00  0.00    -0.165 A  
HETATM   15  C   UNL     1      -8.100  17.524  68.160  1.00  0.00    -0.249 A  
HETATM   16 CL   UNL     1      -6.632  18.360  67.803  1.00  0.00    -0.210 Cl 
HETATM   17  C   UNL     1      -9.098  18.242  68.827  1.00  0.00    -0.247 A  
HETATM   18  C   UNL     1     -10.265  17.602  69.250  1.00  0.00    -0.147 A  
HETATM   19  C   UNL     1     -10.464  16.241  68.990  1.00  0.00    -0.276 A  
HETATM   20  C   UNL     1      -9.510  15.570  68.208  1.00  0.00    -0.200 A  
BRANCH  19  21
HETATM   21  C   UNL     1     -11.560  15.478  69.722  1.00  0.00    -0.334 C  
HETATM   22  O   UNL     1     -11.426  15.742  71.132  1.00  0.00    -0.350 OA 
HETATM   23  C   UNL     1     -12.554  15.302  71.895  1.00  0.00    -0.353 C  
HETATM   24  H   UNL     1     -11.939  12.761  67.897  1.00  0.00     0.000 HD 
HETATM   25  C   UNL     1     -12.684  13.783  71.785  1.00  0.00    -0.282 C  
HETATM   26  O   UNL     1     -11.883  13.695  68.062  1.00  0.00    -0.335 OA 
HETATM   27  C   UNL     1     -12.804  13.381  70.308  1.00  0.00     0.109 C  
HETATM   28  O   UNL     1     -13.820  13.281  72.496  1.00  0.00    -0.668 OA 
HETATM   29  H   UNL     1     -12.931  11.705  69.294  1.00  0.00     0.000 HD 
HETATM   30  C   UNL     1     -11.651  13.957  69.454  1.00  0.00    -0.297 C  
HETATM   31  H   UNL     1     -13.901  12.336  72.428  1.00  0.00     0.000 HD 
HETATM   32  O   UNL     1     -12.857  11.953  70.208  1.00  0.00     0.049 OA 
BRANCH  23  33
HETATM   33  C   UNL     1     -12.345  15.753  73.344  1.00  0.00    -0.528 C  
HETATM   34  O   UNL     1     -11.804  17.083  73.355  1.00  0.00    -0.265 OA 
HETATM   35  H   UNL     1     -11.674  17.363  74.253  1.00  0.00     0.000 HD 
ENDBRANCH  23  33
ENDBRANCH  19  21
ENDBRANCH  13  14
ENDBRANCH  10  13
ENDBRANCH   6   7
ENDBRANCH   1   6
TORSDOF 6
ENDMDL
MODEL      256
REMARK 921   NORMALIZED FREE ENERGY PREDICTED BY IDOCK:   -3.15 KCAL/MOL
REMARK 922        TOTAL FREE ENERGY PREDICTED BY IDOCK:   -5.22 KCAL/MOL
REMARK 923 INTER-LIGAND FREE ENERGY PREDICTED BY IDOCK:   -4.22 KCAL/MOL
REMARK 924 INTRA-LIGAND FREE ENERGY PREDICTED BY IDOCK:   -1.01 KCAL/MOL
REMARK 927      BINDING AFFINITY PREDICTED BY RF-SCORE:    0.00 PKD
ROOT
HETATM    1  C   UNL     1     -10.407  15.610  65.070  1.00  0.00    -0.256 C  
HETATM    2  C   UNL     1     -11.196  16.762  64.474  1.00  0.00     0.211 C  
HETATM    3  O   UNL     1     -10.511  17.449  66.610  1.00  0.00    -0.310 OA 
HETATM    4  C   UNL     1     -10.729  17.941  65.284  1.00  0.00     0.277 C  
HETATM    5  C   UNL     1     -10.339  16.021  66.538  1.00  0.00    -0.299 C  
ENDROOT
BRANCH   1   6
HETATM    6  O   UNL     1     -11.147  14.415  64.842  1.00  0.00    -0.359 OA 
BRANCH   6   7
HETATM    7  C   UNL     1     -10.499  13.217  64.910  1.00  0.00    -0.371 A  
HETATM    8  C   UNL     1      -9.164  11.480  65.940  1.00  0.00    -0.223 A  
HETATM    9  C   UNL     1      -9.685  12.786  65.953  1.00  0.00    -0.203 A  
HETATM   10  C   UNL     1      -9.451  10.594  64.888  1.00  0.00    -0.293 A  
HETATM   11  C   UNL     1     -10.775  12.347  63.854  1.00  0.00    -0.465 A  
HETATM   12  C   UNL     1     -10.250  11.052  63.835  1.00  0.00    -0.425 A  
BRANCH  10  13
HETATM   13  C   UNL     1      -8.982   9.149  64.923  1.00  0.00    -0.201 C  
BRANCH  13  14
HETATM   14  C   UNL     1      -7.691   8.976  65.699  1.00  0.00    -0.091 A  
HETATM   15  C   UNL     1      -6.430   9.339  65.208  1.00  0.00    -0.069 A  
HETATM   16 CL   UNL     1      -6.221  10.142  63.693  1.00  0.00    -0.136 Cl 
HETATM   17  C   UNL     1      -5.272   9.021  65.926  1.00  0.00    -0.036 A  
HETATM   18  C   UNL     1      -5.355   8.271  67.102  1.00  0.00    -0.037 A  
HETATM   19  C   UNL     1      -6.598   7.850  67.591  1.00  0.00    -0.060 A  
HETATM   20  C   UNL     1      -7.754   8.289  66.926  1.00  0.00    -0.095 A  
BRANCH  19  21
HETATM   21  C   UNL     1      -6.669   6.775  68.667  1.00  0.00    -0.064 C  
HETATM   22  O   UNL     1      -7.231   5.587  68.078  1.00  0.00    -0.069 OA 
HETATM   23  C   UNL     1      -7.100   4.431  68.911  1.00  0.00    -0.052 C  
HETATM   24  H   UNL     1      -7.243   8.495  71.419  1.00  0.00     0.000 HD 
HETATM   25  C   UNL     1      -7.884   4.643  70.206  1.00  0.00    -0.057 C  
HETATM   26  O   UNL     1      -6.789   8.268  70.616  1.00  0.00    -0.036 OA 
HETATM   27  C   UNL     1      -7.384   5.913  70.910  1.00  0.00    -0.086 C  
HETATM   28  O   UNL     1      -7.762   3.535  71.104  1.00  0.00    -0.049 OA 
HETATM   29  H   UNL     1      -7.859   6.928  72.522  1.00  0.00     0.000 HD 
HETATM   30  C   UNL     1      -7.409   7.144  69.975  1.00  0.00    -0.080 C  
HETATM   31  H   UNL     1      -8.249   3.667  71.910  1.00  0.00     0.000 HD 
HETATM   32  O   UNL     1      -8.168   6.142  72.087  1.00  0.00    -0.110 OA 
BRANCH  23  33
HETATM   33  C   UNL     1      -7.616   3.223  68.123  1.00  0.00    -0.056 C  
HETATM   34  O   UNL     1      -8.979   3.454  67.737  1.00  0.00    -0.117 OA 
HETATM   35  H   UNL     1      -9.299   2.706  67.247  1.00  0.00     0.000 HD 
ENDBRANCH  23  33
ENDBRANCH  19  21
ENDBRANCH  13  14
ENDBRANCH  10  13
ENDBRANCH   6   7
ENDBRANCH   1   6
TORSDOF 6
ENDMDL
MODEL      257
REMARK 921   NORMALIZED FREE ENERGY PREDICTED BY IDOCK:   -2.78 KCAL/MOL
REMARK 922        TOTAL FREE ENERGY PREDICTED BY IDOCK:   -4.72 KCAL/MOL
REMARK 923 INTER-LIGAND FREE ENERGY PREDICTED BY IDOCK:   -5.13 KCAL/MOL
REMARK 924 INTRA-LIGAND FREE ENERGY PREDICTED BY IDOCK:    0.41 KCAL/MOL
REMARK 927      BINDING AFFINITY PREDICTED BY RF-SCORE:    0.00 PKD
ROOT
HETATM    1  C   UNL     1     -11.204  12.858  64.945  1.00  0.00    -0.300 C  
HETATM    2  C   UNL     1     -11.163  14.147  64.143  1.00  0.00    -0.056 C  
HETATM    3  O   UNL     1     -12.813  14.430  65.786  1.00  0.00    -0.389 OA 
HETATM    4  C   UNL     1     -11.794  15.143  65.078  1.00  0.00    -0.180 C  
HETATM    5  C   UNL     1     -12.516  13.023  65.708  1.00  0.00    -0.329 C  
ENDROOT
BRANCH   1   6
HETATM    6  O   UNL     1     -11.210  11.775  64.022  1.00  0.00    -0.347 OA 
BRANCH   6   7
HETATM    7  C   UNL     1     -10.258  10.805  64.140  1.00  0.00    -0.344 A  
HETATM    8  C   UNL     1      -8.936   9.131  65.285  1.00  0.00    -0.246 A  
HETATM    9  C   UNL     1      -9.856  10.193  65.323  1.00  0.00    -0.388 A  
HETATM   10  C   UNL     1      -8.409   8.670  64.066  1.00  0.00    -0.125 A  
HETATM   11  C   UNL     1      -9.726  10.363  62.928  1.00  0.00    -0.266 A  
HETATM   12  C   UNL     1      -8.804   9.314  62.888  1.00  0.00    -0.185 A  
BRANCH  10  13
HETATM   13  C   UNL     1      -7.501   7.453  64.009  1.00  0.00    -0.100 C  
BRANCH  13  14
HETATM   14  C   UNL     1      -6.986   7.048  65.377  1.00  0.00    -0.056 A  
HETATM   15  C   UNL     1      -5.991   6.084  65.582  1.00  0.00    -0.025 A  
HETATM   16 CL   UNL     1      -5.146   5.330  64.278  1.00  0.00    -0.009 Cl 
HETATM   17  C   UNL     1      -5.669   5.664  66.877  1.00  0.00    -0.017 A  
HETATM   18  C   UNL     1      -6.389   6.144  67.974  1.00  0.00    -0.036 A  
HETATM   19  C   UNL     1      -7.424   7.070  67.795  1.00  0.00    -0.098 A  
HETATM   20  C   UNL     1      -7.645   7.575  66.503  1.00  0.00    -0.089 A  
BRANCH  19  21
HETATM   21  C   UNL     1      -8.410   7.339  68.924  1.00  0.00    -0.126 C  
HETATM   22  O   UNL     1      -7.667   7.811  70.065  1.00  0.00    -0.087 OA 
HETATM   23  C   UNL     1      -8.502   8.352  71.094  1.00  0.00    -0.149 C  
HETATM   24  H   UNL     1     -10.741   5.059  68.455  1.00  0.00     0.000 HD 
HETATM   25  C   UNL     1      -9.416   7.256  71.639  1.00  0.00    -0.151 C  
HETATM   26  O   UNL     1     -10.163   5.772  68.211  1.00  0.00    -0.157 OA 
HETATM   27  C   UNL     1     -10.242   6.654  70.492  1.00  0.00    -0.189 C  
HETATM   28  O   UNL     1     -10.308   7.741  72.648  1.00  0.00    -0.241 OA 
HETATM   29  H   UNL     1     -11.557   5.211  70.290  1.00  0.00     0.000 HD 
HETATM   30  C   UNL     1      -9.351   6.178  69.322  1.00  0.00    -0.134 C  
HETATM   31  H   UNL     1     -10.876   7.059  72.987  1.00  0.00     0.000 HD 
HETATM   32  O   UNL     1     -11.046   5.583  70.999  1.00  0.00    -0.184 OA 
BRANCH  23  33
HETATM   33  C   UNL     1      -7.591   8.929  72.182  1.00  0.00     0.172 C  
HETATM   34  O   UNL     1      -7.949   8.364  73.452  1.00  0.00    -0.303 OA 
HETATM   35  H   UNL     1      -7.385   8.721  74.127  1.00  0.00     0.000 HD 
ENDBRANCH  23  33
ENDBRANCH  19  21
ENDBRANCH  13  14
ENDBRANCH  10  13
ENDBRANCH   6   7
ENDBRANCH   1   6
TORSDOF 6
ENDMDL
MODEL      258
REMARK 921   NORMALIZED FREE ENERGY PREDICTED BY IDOCK:   -2.21 KCAL/MOL
REMARK 922        TOTAL FREE ENERGY PREDICTED BY IDOCK:   -3.95 KCAL/MOL
REMARK 923 INTER-LIGAND FREE ENERGY PREDICTED BY IDOCK:   -3.28 KCAL/MOL
REMARK 924 INTRA-LIGAND FREE ENERGY PREDICTED BY IDOCK:   -0.67 KCAL/MOL
REMARK 927      BINDING AFFINITY PREDICTED BY RF-SCORE:    0.00 PKD
ROOT
HETATM    1  C   UNL     1      -5.176  11.870  70.435  1.00  0.00    -0.113 C  
HETATM    2  C   UNL     1      -5.740  11.213  71.681  1.00  0.00     0.501 C  
HETATM    3  O   UNL     1      -5.241   9.483  70.178  1.00  0.00    -0.031 OA 
HETATM    4  C   UNL     1      -5.234   9.800  71.573  1.00  0.00    -0.075 C  
HETATM    5  C   UNL     1      -5.237  10.717  69.436  1.00  0.00    -0.037 C  
ENDROOT
BRANCH   1   6
HETATM    6  O   UNL     1      -6.023  12.964  70.101  1.00  0.00    -0.146 OA 
BRANCH   6   7
HETATM    7  C   UNL     1      -6.925  12.813  69.090  1.00  0.00    -0.015 A  
HETATM    8  C   UNL     1      -9.058  12.246  68.095  1.00  0.00    -0.196 A  
HETATM    9  C   UNL     1      -8.189  12.241  69.199  1.00  0.00     0.473 A  
HETATM   10  C   UNL     1      -8.674  12.822  66.871  1.00  0.00    -0.169 A  
HETATM   11  C   UNL     1      -6.532  13.372  67.873  1.00  0.00    -0.151 A  
HETATM   12  C   UNL     1      -7.391  13.369  66.771  1.00  0.00     0.848 A  
BRANCH  10  13
HETATM   13  C   UNL     1      -9.648  12.928  65.709  1.00  0.00    -0.086 C  
BRANCH  13  14
HETATM   14  C   UNL     1     -10.197  14.331  65.538  1.00  0.00    -0.379 A  
HETATM   15  C   UNL     1     -11.145  14.686  64.569  1.00  0.00    -0.257 A  
HETATM   16 CL   UNL     1     -11.889  13.524  63.530  1.00  0.00    -0.394 Cl 
HETATM   17  C   UNL     1     -11.498  16.027  64.383  1.00  0.00    -0.246 A  
HETATM   18  C   UNL     1     -10.854  17.033  65.106  1.00  0.00    -0.059 A  
HETATM   19  C   UNL     1      -9.866  16.713  66.045  1.00  0.00    -0.335 A  
HETATM   20  C   UNL     1      -9.619  15.357  66.310  1.00  0.00    -0.342 A  
BRANCH  19  21
HETATM   21  C   UNL     1      -8.947  17.801  66.586  1.00  0.00    -0.266 C  
HETATM   22  O   UNL     1      -7.721  17.768  65.830  1.00  0.00    -0.501 OA 
HETATM   23  C   UNL     1      -6.889  18.910  66.061  1.00  0.00    -0.252 C  
HETATM   24  H   UNL     1      -9.696  17.901  69.793  1.00  0.00     0.000 HD 
HETATM   25  C   UNL     1      -6.454  18.938  67.526  1.00  0.00    -0.194 C  
HETATM   26  O   UNL     1      -9.872  17.913  68.860  1.00  0.00    -0.338 OA 
HETATM   27  C   UNL     1      -7.694  18.944  68.432  1.00  0.00    -0.319 C  
HETATM   28  O   UNL     1      -5.649  20.080  67.833  1.00  0.00    -0.195 OA 
HETATM   29  H   UNL     1      -8.047  18.906  70.363  1.00  0.00     0.000 HD 
HETATM   30  C   UNL     1      -8.659  17.780  68.105  1.00  0.00    -0.262 C  
HETATM   31  H   UNL     1      -5.379  20.098  68.744  1.00  0.00     0.000 HD 
HETATM   32  O   UNL     1      -7.280  18.902  69.803  1.00  0.00     0.040 OA 
BRANCH  23  33
HETATM   33  C   UNL     1      -5.690  18.815  65.111  1.00  0.00    -0.237 C  
HETATM   34  O   UNL     1      -6.111  18.228  63.871  1.00  0.00     0.456 OA 
HETATM   35  H   UNL     1      -5.367  18.169  63.283  1.00  0.00     0.000 HD 
ENDBRANCH  23  33
ENDBRANCH  19  21
ENDBRANCH  13  14
ENDBRANCH  10  13
ENDBRANCH   6   7
ENDBRANCH   1   6
TORSDOF 6
ENDMDL
MODEL      259
REMARK 921   NORMALIZED FREE ENERGY PREDICTED BY IDOCK:   -2.10 KCAL/MOL
REMARK 922        TOTAL FREE ENERGY PREDICTED BY IDOCK:   -3.81 KCAL/MOL
REMARK 923 INTER-LIGAND FREE ENERGY PREDICTED BY IDOCK:   -4.31 KCAL/MOL
REMARK 924 INTRA-LIGAND FREE ENERGY PREDICTED BY IDOCK:    0.50 KCAL/MOL
REMARK 927      BINDING AFFINITY PREDICTED BY RF-SCORE:    0.00 PKD
ROOT
HETATM    1  C   UNL     1     -12.786  13.359  64.497  1.00  0.00    -0.127 C  
HETATM    2  C   UNL     1     -12.445  14.368  65.578  1.00  0.00    -0.356 C  
HETATM    3  O   UNL     1     -12.172  15.466  63.523  1.00  0.00    -0.187 OA 
HETATM    4  C   UNL     1     -12.607  15.686  64.869  1.00  0.00     0.721 C  
HETATM    5  C   UNL     1     -12.233  14.053  63.255  1.00  0.00     0.387 C  
ENDROOT
BRANCH   1   6
HETATM    6  O   UNL     1     -12.122  12.141  64.818  1.00  0.00    -0.362 OA 
BRANCH   6   7
HETATM    7  C   UNL     1     -11.215  12.135  65.836  1.00  0.00    -0.339 A  
HETATM    8  C   UNL     1      -9.048  11.815  66.867  1.00  0.00    -0.192 A  
HETATM    9  C   UNL     1      -9.908  11.661  65.766  1.00  0.00    -0.268 A  
HETATM   10  C   UNL     1      -9.482  12.443  68.047  1.00  0.00    -0.208 A  
HETATM   11  C   UNL     1     -11.657  12.745  67.011  1.00  0.00    -0.422 A  
HETATM   12  C   UNL     1     -10.806  12.891  68.109  1.00  0.00    -0.257 A  
BRANCH  10  13
HETATM   13  C   UNL     1      -8.526  12.710  69.197  1.00  0.00     0.641 C  
BRANCH  13  14
HETATM   14  C   UNL     1      -7.427  13.686  68.824  1.00  0.00    -0.088 A  
HETATM   15  C   UNL     1      -6.091  13.549  69.225  1.00  0.00    -0.097 A  
HETATM   16 CL   UNL     1      -5.522  12.172  70.098  1.00  0.00    -0.107 Cl 
HETATM   17  C   UNL     1      -5.165  14.563  68.959  1.00  0.00    -0.089 A  
HETATM   18  C   UNL     1      -5.577  15.756  68.359  1.00  0.00    -0.111 A  
HETATM   19  C   UNL     1      -6.916  15.942  67.993  1.00  0.00    -0.141 A  
HETATM   20  C   UNL     1      -7.802  14.865  68.151  1.00  0.00    -0.122 A  
BRANCH  19  21
HETATM   21  C   UNL     1      -7.425  17.336  67.650  1.00  0.00    -0.174 C  
HETATM   22  O   UNL     1      -7.313  18.157  68.829  1.00  0.00    -0.274 OA 
HETATM   23  C   UNL     1      -7.504  19.550  68.562  1.00  0.00    -0.333 C  
HETATM   24  H   UNL     1      -9.804  16.752  65.446  1.00  0.00     0.000 HD 
HETATM   25  C   UNL     1      -8.925  19.782  68.049  1.00  0.00    -0.311 C  
HETATM   26  O   UNL     1      -8.932  16.693  65.818  1.00  0.00    -0.498 OA 
HETATM   27  C   UNL     1      -9.168  18.923  66.798  1.00  0.00    -0.319 C  
HETATM   28  O   UNL     1      -9.171  21.154  67.725  1.00  0.00    -0.086 OA 
HETATM   29  H   UNL     1     -10.673  18.562  65.590  1.00  0.00     0.000 HD 
HETATM   30  C   UNL     1      -8.846  17.432  67.046  1.00  0.00    -0.234 C  
HETATM   31  H   UNL     1     -10.055  21.297  67.405  1.00  0.00     0.000 HD 
HETATM   32  O   UNL     1     -10.523  19.093  66.363  1.00  0.00    -0.412 OA 
BRANCH  23  33
HETATM   33  C   UNL     1      -7.235  20.318  69.861  1.00  0.00     0.340 C  
HETATM   34  O   UNL     1      -6.039  19.812  70.472  1.00  0.00    -0.284 OA 
HETATM   35  H   UNL     1      -5.871  20.287  71.277  1.00  0.00     0.000 HD 
ENDBRANCH  23  33
ENDBRANCH  19  21
ENDBRANCH  13  14
ENDBRANCH  10  13
ENDBRANCH   6   7
ENDBRANCH   1   6
TORSDOF 6
ENDMDL
MODEL      260
REMARK 921   NORMALIZED FREE ENERGY PREDICTED BY IDOCK:   -2.05 KCAL/MOL
REMARK 922        TOTAL FREE ENERGY PREDICTED BY IDOCK:   -3.74 KCAL/MOL
REMARK 923 INTER-LIGAND FREE ENERGY PREDICTED BY IDOCK:   -3.24 KCAL/MOL
REMARK 924 INTRA-LIGAND FREE ENERGY PREDICTED BY IDOCK:   -0.50 KCAL/MOL
REMARK 927      BINDING AFFINITY PREDICTED BY RF-SCORE:    0.00 PKD
ROOT
HETATM    1  C   UNL     1     -11.254   5.544  72.225  1.00  0.00    -0.220 C  
HETATM    2  C   UNL     1      -9.889   5.065  71.765  1.00  0.00    -0.234 C  
HETATM    3  O   UNL     1     -10.768   3.376  73.136  1.00  0.00    -0.174 OA 
HETATM    4  C   UNL     1      -9.974   3.575  71.963  1.00  0.00    -0.157 C  
HETATM    5  C   UNL     1     -11.548   4.567  73.360  1.00  0.00    -0.147 C  
ENDROOT
BRANCH   1   6
HETATM    6  O   UNL     1     -11.115   6.895  72.653  1.00  0.00    -0.252 OA 
BRANCH   6   7
HETATM    7  C   UNL     1      -9.883   7.478  72.600  1.00  0.00    -0.191 A  
HETATM    8  C   UNL     1      -7.542   7.756  73.149  1.00  0.00    -0.145 A  
HETATM    9  C   UNL     1      -8.784   7.142  73.384  1.00  0.00    -0.168 A  
HETATM   10  C   UNL     1      -7.385   8.711  72.130  1.00  0.00    -0.061 A  
HETATM   11  C   UNL     1      -9.738   8.438  71.598  1.00  0.00    -0.287 A  
HETATM   12  C   UNL     1      -8.506   9.057  71.368  1.00  0.00    -0.149 A  
BRANCH  10  13
HETATM   13  C   UNL     1      -6.022   9.297  71.800  1.00  0.00    -0.044 C  
BRANCH  13  14
HETATM   14  C   UNL     1      -5.801   9.447  70.307  1.00  0.00    -0.038 A  
HETATM   15  C   UNL     1      -5.894  10.666  69.623  1.00  0.00    -0.049 A  
HETATM   16 CL   UNL     1      -6.157  12.168  70.435  1.00  0.00    -0.106 Cl 
HETATM   17  C   UNL     1      -5.814  10.702  68.227  1.00  0.00    -0.046 A  
HETATM   18  C   UNL     1      -5.718   9.515  67.495  1.00  0.00    -0.041 A  
HETATM   19  C   UNL     1      -5.674   8.278  68.149  1.00  0.00    -0.035 A  
HETATM   20  C   UNL     1      -5.625   8.272  69.553  1.00  0.00    -0.030 A  
BRANCH  19  21
HETATM   21  C   UNL     1      -5.898   6.992  67.364  1.00  0.00    -0.024 C  
HETATM   22  O   UNL     1      -6.858   7.263  66.324  1.00  0.00    -0.055 OA 
HETATM   23  C   UNL     1      -6.949   6.213  65.357  1.00  0.00    -0.056 C  
HETATM   24  H   UNL     1      -5.551   4.641  69.646  1.00  0.00     0.000 HD 
HETATM   25  C   UNL     1      -7.444   4.936  66.034  1.00  0.00    -0.082 C  
HETATM   26  O   UNL     1      -5.301   5.410  69.148  1.00  0.00     0.000 OA 
HETATM   27  C   UNL     1      -6.504   4.566  67.190  1.00  0.00    -0.042 C  
HETATM   28  O   UNL     1      -7.521   3.832  65.126  1.00  0.00    -0.071 OA 
HETATM   29  H   UNL     1      -6.429   3.179  68.577  1.00  0.00     0.000 HD 
HETATM   30  C   UNL     1      -6.305   5.740  68.176  1.00  0.00    -0.041 C  
HETATM   31  H   UNL     1      -7.829   3.037  65.547  1.00  0.00     0.000 HD 
HETATM   32  O   UNL     1      -7.011   3.407  67.862  1.00  0.00    -0.049 OA 
BRANCH  23  33
HETATM   33  C   UNL     1      -7.900   6.677  64.248  1.00  0.00    -0.115 C  
HETATM   34  O   UNL     1      -7.832   8.106  64.132  1.00  0.00    -0.129 OA 
HETATM   35  H   UNL     1      -8.422   8.394  63.445  1.00  0.00     0.000 HD 
ENDBRANCH  23  33
ENDBRANCH  19  21
ENDBRANCH  13  14
ENDBRANCH  10  13
ENDBRANCH   6   7
ENDBRANCH   1   6
TORSDOF 6
ENDMDL
MODEL      261
REMARK 921   NORMALIZED FREE ENERGY PREDICTED BY IDOCK:   -2.03 KCAL/MOL
REMARK 922        TOTAL FREE ENERGY PREDICTED BY IDOCK:   -3.71 KCAL/MOL
REMARK 923 INTER-LIGAND FREE ENERGY PREDICTED BY IDOCK:   -4.58 KCAL/MOL
REMARK 924 INTRA-LIGAND FREE ENERGY PREDICTED BY IDOCK:    0.87 KCAL/MOL
REMARK 927      BINDING AFFINITY PREDICTED BY RF-SCORE:    0.00 PKD
ROOT
HETATM    1  C   UNL     1      -8.562   3.067  67.556  1.00  0.00    -0.103 C  
HETATM    2  C   UNL     1      -9.451   3.777  68.561  1.00  0.00    -0.211 C  
HETATM    3  O   UNL     1      -9.965   1.492  68.704  1.00  0.00    -0.024 OA 
HETATM    4  C   UNL     1      -9.837   2.671  69.506  1.00  0.00     0.371 C  
HETATM    5  C   UNL     1      -9.227   1.695  67.484  1.00  0.00    -0.109 C  
ENDROOT
BRANCH   1   6
HETATM    6  O   UNL     1      -8.619   3.798  66.336  1.00  0.00    -0.108 OA 
BRANCH   6   7
HETATM    7  C   UNL     1      -8.454   5.152  66.372  1.00  0.00    -0.112 A  
HETATM    8  C   UNL     1      -7.636   7.258  67.239  1.00  0.00    -0.104 A  
HETATM    9  C   UNL     1      -7.829   5.874  67.384  1.00  0.00    -0.102 A  
HETATM   10  C   UNL     1      -8.064   7.935  66.084  1.00  0.00    -0.109 A  
HETATM   11  C   UNL     1      -8.897   5.820  65.230  1.00  0.00    -0.057 A  
HETATM   12  C   UNL     1      -8.714   7.199  65.088  1.00  0.00     0.136 A  
BRANCH  10  13
HETATM   13  C   UNL     1      -7.761   9.409  65.875  1.00  0.00    -0.099 C  
BRANCH  13  14
HETATM   14  C   UNL     1      -8.617  10.308  66.746  1.00  0.00    -0.129 A  
HETATM   15  C   UNL     1      -9.940  10.017  67.104  1.00  0.00    -0.201 A  
HETATM   16 CL   UNL     1     -10.709   8.528  66.686  1.00  0.00    -0.144 Cl 
HETATM   17  C   UNL     1     -10.710  10.960  67.795  1.00  0.00    -0.279 A  
HETATM   18  C   UNL     1     -10.193  12.230  68.065  1.00  0.00    -0.206 A  
HETATM   19  C   UNL     1      -8.892  12.567  67.675  1.00  0.00    -0.179 A  
HETATM   20  C   UNL     1      -8.093  11.565  67.099  1.00  0.00    -0.159 A  
BRANCH  19  21
HETATM   21  C   UNL     1      -8.450  14.024  67.672  1.00  0.00    -0.191 C  
HETATM   22  O   UNL     1      -9.293  14.747  66.754  1.00  0.00    -0.224 OA 
HETATM   23  C   UNL     1      -9.155  16.167  66.864  1.00  0.00    -0.218 C  
HETATM   24  H   UNL     1      -5.200  13.831  68.179  1.00  0.00     0.000 HD 
HETATM   25  C   UNL     1      -7.727  16.572  66.499  1.00  0.00    -0.288 C  
HETATM   26  O   UNL     1      -6.118  13.661  68.356  1.00  0.00    -0.080 OA 
HETATM   27  C   UNL     1      -6.732  15.830  67.404  1.00  0.00    -0.194 C  
HETATM   28  O   UNL     1      -7.510  17.981  66.627  1.00  0.00    -0.199 OA 
HETATM   29  H   UNL     1      -4.781  15.704  67.570  1.00  0.00     0.000 HD 
HETATM   30  C   UNL     1      -6.956  14.301  67.382  1.00  0.00    -0.051 C  
HETATM   31  H   UNL     1      -6.623  18.233  66.399  1.00  0.00     0.000 HD 
HETATM   32  O   UNL     1      -5.396  16.163  67.011  1.00  0.00    -0.332 OA 
BRANCH  23  33
HETATM   33  C   UNL     1     -10.187  16.812  65.934  1.00  0.00    -0.328 C  
HETATM   34  O   UNL     1     -10.581  15.865  64.931  1.00  0.00    -0.546 OA 
HETATM   35  H   UNL     1     -11.221  16.264  64.354  1.00  0.00     0.000 HD 
ENDBRANCH  23  33
ENDBRANCH  19  21
ENDBRANCH  13  14
ENDBRANCH  10  13
ENDBRANCH   6   7
ENDBRANCH   1   6
TORSDOF 6
ENDMDL
MODEL      262
REMARK 921   NORMALIZED FREE ENERGY PREDICTED BY IDOCK:   -1.99 KCAL/MOL
REMARK 922        TOTAL FREE ENERGY PREDICTED BY IDOCK:   -3.65 KCAL/MOL
REMARK 923 INTER-LIGAND FREE ENERGY PREDICTED BY IDOCK:   -4.20 KCAL/MOL
REMARK 924 INTRA-LIGAND FREE ENERGY PREDICTED BY IDOCK:    0.55 KCAL/MOL
REMARK 927      BINDING AFFINITY PREDICTED BY RF-SCORE:    0.00 PKD
ROOT
HETATM    1  C   UNL     1      -8.427   3.053  67.605  1.00  0.00    -0.087 C  
HETATM    2  C   UNL     1      -9.312   3.771  68.608  1.00  0.00    -0.226 C  
HETATM    3  O   UNL     1      -9.736   1.477  68.858  1.00  0.00    -0.120 OA 
HETATM    4  C   UNL     1      -9.628   2.691  69.608  1.00  0.00     0.015 C  
HETATM    5  C   UNL     1      -9.043   1.656  67.608  1.00  0.00    -0.143 C  
ENDROOT
BRANCH   1   6
HETATM    6  O   UNL     1      -8.548   3.731  66.359  1.00  0.00    -0.108 OA 
BRANCH   6   7
HETATM    7  C   UNL     1      -8.350   5.080  66.323  1.00  0.00    -0.112 A  
HETATM    8  C   UNL     1      -7.423   7.199  67.035  1.00  0.00    -0.097 A  
HETATM    9  C   UNL     1      -7.637   5.828  67.255  1.00  0.00    -0.096 A  
HETATM   10  C   UNL     1      -7.917   7.837  65.884  1.00  0.00    -0.107 A  
HETATM   11  C   UNL     1      -8.857   5.710  65.186  1.00  0.00    -0.055 A  
HETATM   12  C   UNL     1      -8.654   7.076  64.970  1.00  0.00     0.103 A  
BRANCH  10  13
HETATM   13  C   UNL     1      -7.595   9.292  65.588  1.00  0.00    -0.094 C  
BRANCH  13  14
HETATM   14  C   UNL     1      -8.314  10.247  66.521  1.00  0.00    -0.126 A  
HETATM   15  C   UNL     1      -9.608  10.031  67.015  1.00  0.00    -0.172 A  
HETATM   16 CL   UNL     1     -10.487   8.578  66.705  1.00  0.00    -0.355 Cl 
HETATM   17  C   UNL     1     -10.257  11.023  67.758  1.00  0.00    -0.210 A  
HETATM   18  C   UNL     1      -9.654  12.269  67.950  1.00  0.00    -0.203 A  
HETATM   19  C   UNL     1      -8.383  12.532  67.425  1.00  0.00    -0.182 A  
HETATM   20  C   UNL     1      -7.696  11.482  66.795  1.00  0.00    -0.136 A  
BRANCH  19  21
HETATM   21  C   UNL     1      -7.871  13.964  67.349  1.00  0.00    -0.161 C  
HETATM   22  O   UNL     1      -7.079  14.221  68.525  1.00  0.00    -0.091 OA 
HETATM   23  C   UNL     1      -6.325  15.435  68.439  1.00  0.00    -0.110 C  
HETATM   24  H   UNL     1     -10.303  15.555  65.797  1.00  0.00     0.000 HD 
HETATM   25  C   UNL     1      -7.280  16.623  68.335  1.00  0.00    -0.173 C  
HETATM   26  O   UNL     1      -9.653  14.874  65.922  1.00  0.00    -0.314 OA 
HETATM   27  C   UNL     1      -8.203  16.439  67.121  1.00  0.00    -0.180 C  
HETATM   28  O   UNL     1      -6.587  17.869  68.207  1.00  0.00    -0.189 OA 
HETATM   29  H   UNL     1      -9.709  17.407  66.318  1.00  0.00     0.000 HD 
HETATM   30  C   UNL     1      -8.929  15.074  67.145  1.00  0.00    -0.217 C  
HETATM   31  H   UNL     1      -7.182  18.608  68.141  1.00  0.00     0.000 HD 
HETATM   32  O   UNL     1      -9.139  17.522  67.069  1.00  0.00    -0.236 OA 
BRANCH  23  33
HETATM   33  C   UNL     1      -5.437  15.524  69.685  1.00  0.00    -0.110 C  
HETATM   34  O   UNL     1      -6.244  15.340  70.857  1.00  0.00     0.093 OA 
HETATM   35  H   UNL     1      -5.693  15.395  71.630  1.00  0.00     0.000 HD 
ENDBRANCH  23  33
ENDBRANCH  19  21
ENDBRANCH  13  14
ENDBRANCH  10  13
ENDBRANCH   6   7
ENDBRANCH   1   6
TORSDOF 6
ENDMDL
MODEL      263
REMARK 921   NORMALIZED FREE ENERGY PREDICTED BY IDOCK:   -1.92 KCAL/MOL
REMARK 922        TOTAL FREE ENERGY PREDICTED BY IDOCK:   -3.56 KCAL/MOL
REMARK 923 INTER-LIGAND FREE ENERGY PREDICTED BY IDOCK:   -4.12 KCAL/MOL
REMARK 924 INTRA-LIGAND FREE ENERGY PREDICTED BY IDOCK:    0.56 KCAL/MOL
REMARK 927      BINDING AFFINITY PREDICTED BY RF-SCORE:    0.00 PKD
ROOT
HETATM    1  C   UNL     1      -7.467  15.920  69.043  1.00  0.00    -0.194 C  
HETATM    2  C   UNL     1      -5.955  15.925  69.175  1.00  0.00    -0.121 C  
HETATM    3  O   UNL     1      -6.655  18.155  69.376  1.00  0.00    -0.256 OA 
HETATM    4  C   UNL     1      -5.685  17.229  69.876  1.00  0.00    -0.236 C  
HETATM    5  C   UNL     1      -7.754  17.404  68.826  1.00  0.00    -0.258 C  
ENDROOT
BRANCH   1   6
HETATM    6  O   UNL     1      -7.801  15.103  67.926  1.00  0.00    -0.120 OA 
BRANCH   6   7
HETATM    7  C   UNL     1      -7.411  13.796  67.928  1.00  0.00    -0.152 A  
HETATM    8  C   UNL     1      -5.871  11.946  67.667  1.00  0.00    -0.083 A  
HETATM    9  C   UNL     1      -6.177  13.309  67.510  1.00  0.00    -0.114 A  
HETATM   10  C   UNL     1      -6.794  11.057  68.244  1.00  0.00    -0.067 A  
HETATM   11  C   UNL     1      -8.338  12.915  68.487  1.00  0.00    -0.054 A  
HETATM   12  C   UNL     1      -8.040  11.558  68.637  1.00  0.00    -0.132 A  
BRANCH  10  13
HETATM   13  C   UNL     1      -6.429   9.607  68.517  1.00  0.00    -0.051 C  
BRANCH  13  14
HETATM   14  C   UNL     1      -7.285   8.634  67.730  1.00  0.00    -0.088 A  
HETATM   15  C   UNL     1      -7.862   8.931  66.488  1.00  0.00    -0.100 A  
HETATM   16 CL   UNL     1      -7.559  10.413  65.654  1.00  0.00    -0.148 Cl 
HETATM   17  C   UNL     1      -8.752   8.033  65.889  1.00  0.00    -0.184 A  
HETATM   18  C   UNL     1      -9.135   6.868  66.557  1.00  0.00    -0.179 A  
HETATM   19  C   UNL     1      -8.614   6.569  67.822  1.00  0.00    -0.117 A  
HETATM   20  C   UNL     1      -7.626   7.417  68.348  1.00  0.00    -0.114 A  
BRANCH  19  21
HETATM   21  C   UNL     1      -9.265   5.492  68.680  1.00  0.00    -0.122 C  
HETATM   22  O   UNL     1      -8.852   5.696  70.045  1.00  0.00    -0.126 OA 
HETATM   23  C   UNL     1      -9.605   4.919  70.981  1.00  0.00    -0.174 C  
HETATM   24  H   UNL     1      -9.400   2.893  66.659  1.00  0.00     0.000 HD 
HETATM   25  C   UNL     1      -9.376   3.432  70.713  1.00  0.00    -0.155 C  
HETATM   26  O   UNL     1      -9.539   3.795  66.924  1.00  0.00    -0.205 OA 
HETATM   27  C   UNL     1      -9.758   3.104  69.262  1.00  0.00     0.122 C  
HETATM   28  O   UNL     1     -10.134   2.596  71.593  1.00  0.00    -0.140 OA 
HETATM   29  H   UNL     1      -9.714   1.522  68.100  1.00  0.00     0.000 HD 
HETATM   30  C   UNL     1      -9.038   4.024  68.249  1.00  0.00    -0.137 C  
HETATM   31  H   UNL     1      -9.992   1.671  71.426  1.00  0.00     0.000 HD 
HETATM   32  O   UNL     1      -9.477   1.725  68.998  1.00  0.00    -0.138 OA 
BRANCH  23  33
HETATM   33  C   UNL     1      -9.158   5.320  72.391  1.00  0.00    -0.134 C  
HETATM   34  O   UNL     1      -9.482   6.699  72.618  1.00  0.00    -0.144 OA 
HETATM   35  H   UNL     1      -9.205   6.948  73.492  1.00  0.00     0.000 HD 
ENDBRANCH  23  33
ENDBRANCH  19  21
ENDBRANCH  13  14
ENDBRANCH  10  13
ENDBRANCH   6   7
ENDBRANCH   1   6
TORSDOF 6
ENDMDL
MODEL      264
REMARK 921   NORMALIZED FREE ENERGY PREDICTED BY IDOCK:   -1.86 KCAL/MOL
REMARK 922        TOTAL FREE ENERGY PREDICTED BY IDOCK:   -3.48 KCAL/MOL
REMARK 923 INTER-LIGAND FREE ENERGY PREDICTED BY IDOCK:   -2.73 KCAL/MOL
REMARK 924 INTRA-LIGAND FREE ENERGY PREDICTED BY IDOCK:   -0.75 KCAL/MOL
REMARK 927      BINDING AFFINITY PREDICTED BY RF-SCORE:    0.00 PKD
ROOT
HETATM    1  C   UNL     1     -10.387   3.357  64.645  1.00  0.00     0.013 C  
HETATM    2  C   UNL     1     -10.736   2.749  63.299  1.00  0.00    -0.231 C  
HETATM    3  O   UNL     1      -8.663   1.847  63.929  1.00  0.00    -0.087 OA 
HETATM    4  C   UNL     1      -9.883   1.508  63.262  1.00  0.00    -0.111 C  
HETATM    5  C   UNL     1      -8.910   2.993  64.765  1.00  0.00    -0.113 C  
ENDROOT
BRANCH   1   6
HETATM    6  O   UNL     1     -10.629   4.758  64.562  1.00  0.00     0.261 OA 
BRANCH   6   7
HETATM    7  C   UNL     1      -9.766   5.611  65.184  1.00  0.00     0.576 A  
HETATM    8  C   UNL     1      -8.787   6.791  67.058  1.00  0.00    -0.115 A  
HETATM    9  C   UNL     1      -9.805   5.983  66.525  1.00  0.00    -0.186 A  
HETATM   10  C   UNL     1      -7.719   7.235  66.259  1.00  0.00    -0.097 A  
HETATM   11  C   UNL     1      -8.718   6.064  64.382  1.00  0.00     0.245 A  
HETATM   12  C   UNL     1      -7.708   6.875  64.907  1.00  0.00    -0.113 A  
BRANCH  10  13
HETATM   13  C   UNL     1      -6.560   8.017  66.855  1.00  0.00    -0.057 C  
BRANCH  13  14
HETATM   14  C   UNL     1      -6.993   8.921  67.992  1.00  0.00    -0.078 A  
HETATM   15  C   UNL     1      -7.005   8.532  69.338  1.00  0.00    -0.049 A  
HETATM   16 CL   UNL     1      -6.406   7.000  69.866  1.00  0.00    -0.037 Cl 
HETATM   17  C   UNL     1      -7.548   9.374  70.314  1.00  0.00    -0.143 A  
HETATM   18  C   UNL     1      -8.156  10.578  69.947  1.00  0.00     0.130 A  
HETATM   19  C   UNL     1      -8.204  10.970  68.604  1.00  0.00    -0.151 A  
HETATM   20  C   UNL     1      -7.540  10.174  67.657  1.00  0.00    -0.090 A  
BRANCH  19  21
HETATM   21  C   UNL     1      -9.136  12.095  68.172  1.00  0.00    -0.196 C  
HETATM   22  O   UNL     1      -8.403  13.334  68.237  1.00  0.00    -0.152 OA 
HETATM   23  C   UNL     1      -9.082  14.421  67.600  1.00  0.00    -0.194 C  
HETATM   24  H   UNL     1     -12.087  11.086  69.234  1.00  0.00     0.000 HD 
HETATM   25  C   UNL     1     -10.397  14.698  68.327  1.00  0.00    -0.230 C  
HETATM   26  O   UNL     1     -11.259  11.014  68.774  1.00  0.00    -0.222 OA 
HETATM   27  C   UNL     1     -11.254  13.423  68.346  1.00  0.00    -0.279 C  
HETATM   28  O   UNL     1     -11.147  15.753  67.715  1.00  0.00    -0.331 OA 
HETATM   29  H   UNL     1     -12.985  12.883  69.098  1.00  0.00     0.000 HD 
HETATM   30  C   UNL     1     -10.484  12.213  68.921  1.00  0.00    -0.113 C  
HETATM   31  H   UNL     1     -11.965  15.924  68.167  1.00  0.00     0.000 HD 
HETATM   32  O   UNL     1     -12.455  13.671  69.086  1.00  0.00    -0.192 OA 
BRANCH  23  33
HETATM   33  C   UNL     1      -8.149  15.636  67.627  1.00  0.00    -0.150 C  
HETATM   34  O   UNL     1      -7.110  15.459  66.654  1.00  0.00    -0.242 OA 
HETATM   35  H   UNL     1      -6.531  16.212  66.670  1.00  0.00     0.000 HD 
ENDBRANCH  23  33
ENDBRANCH  19  21
ENDBRANCH  13  14
ENDBRANCH  10  13
ENDBRANCH   6   7
ENDBRANCH   1   6
TORSDOF 6
ENDMDL
MODEL      265
REMARK 921   NORMALIZED FREE ENERGY PREDICTED BY IDOCK:   -1.71 KCAL/MOL
REMARK 922        TOTAL FREE ENERGY PREDICTED BY IDOCK:   -3.27 KCAL/MOL
REMARK 923 INTER-LIGAND FREE ENERGY PREDICTED BY IDOCK:   -4.61 KCAL/MOL
REMARK 924 INTRA-LIGAND FREE ENERGY PREDICTED BY IDOCK:    1.34 KCAL/MOL
REMARK 927      BINDING AFFINITY PREDICTED BY RF-SCORE:    0.00 PKD
ROOT
HETATM    1  C   UNL     1      -7.819   7.527  71.622  1.00  0.00    -0.086 C  
HETATM    2  C   UNL     1      -7.999   7.463  73.127  1.00  0.00    -0.127 C  
HETATM    3  O   UNL     1      -9.860   8.610  72.275  1.00  0.00    -0.305 OA 
HETATM    4  C   UNL     1      -9.479   7.683  73.296  1.00  0.00    -0.259 C  
HETATM    5  C   UNL     1      -8.860   8.576  71.239  1.00  0.00    -0.190 C  
ENDROOT
BRANCH   1   6
HETATM    6  O   UNL     1      -6.478   7.929  71.364  1.00  0.00    -0.037 OA 
BRANCH   6   7
HETATM    7  C   UNL     1      -6.237   9.222  71.004  1.00  0.00    -0.072 A  
HETATM    8  C   UNL     1      -6.540  11.256  69.727  1.00  0.00    -0.130 A  
HETATM    9  C   UNL     1      -6.798   9.888  69.918  1.00  0.00    -0.096 A  
HETATM   10  C   UNL     1      -5.721  11.973  70.617  1.00  0.00    -0.127 A  
HETATM   11  C   UNL     1      -5.409   9.924  71.882  1.00  0.00    -0.027 A  
HETATM   12  C   UNL     1      -5.144  11.282  71.688  1.00  0.00     0.014 A  
BRANCH  10  13
HETATM   13  C   UNL     1      -5.528  13.474  70.478  1.00  0.00    -0.145 C  
BRANCH  13  14
HETATM   14  C   UNL     1      -6.310  14.054  69.315  1.00  0.00    -0.110 A  
HETATM   15  C   UNL     1      -6.619  15.414  69.183  1.00  0.00    -0.133 A  
HETATM   16 CL   UNL     1      -6.033  16.609  70.284  1.00  0.00    -0.137 Cl 
HETATM   17  C   UNL     1      -7.462  15.852  68.156  1.00  0.00    -0.132 A  
HETATM   18  C   UNL     1      -8.066  14.930  67.298  1.00  0.00    -0.234 A  
HETATM   19  C   UNL     1      -7.816  13.559  67.437  1.00  0.00    -0.157 A  
HETATM   20  C   UNL     1      -6.868  13.152  68.390  1.00  0.00    -0.098 A  
BRANCH  19  21
HETATM   21  C   UNL     1      -8.709  12.547  66.733  1.00  0.00    -0.147 C  
HETATM   22  O   UNL     1      -7.893  11.785  65.822  1.00  0.00     0.389 OA 
HETATM   23  C   UNL     1      -8.559  10.628  65.304  1.00  0.00    -0.169 C  
HETATM   24  H   UNL     1     -11.598  14.114  66.503  1.00  0.00     0.000 HD 
HETATM   25  C   UNL     1      -9.772  11.063  64.483  1.00  0.00    -0.273 C  
HETATM   26  O   UNL     1     -10.828  13.775  66.942  1.00  0.00    -0.282 OA 
HETATM   27  C   UNL     1     -10.706  11.916  65.355  1.00  0.00    -0.283 C  
HETATM   28  O   UNL     1     -10.508   9.949  63.967  1.00  0.00    -0.135 OA 
HETATM   29  H   UNL     1     -12.384  12.903  65.099  1.00  0.00     0.000 HD 
HETATM   30  C   UNL     1      -9.964  13.100  66.016  1.00  0.00    -0.280 C  
HETATM   31  H   UNL     1     -11.263  10.219  63.457  1.00  0.00     0.000 HD 
HETATM   32  O   UNL     1     -11.806  12.375  64.560  1.00  0.00    -0.350 OA 
BRANCH  23  33
HETATM   33  C   UNL     1      -7.549   9.845  64.459  1.00  0.00    -0.139 C  
HETATM   34  O   UNL     1      -6.762  10.763  63.686  1.00  0.00    -0.354 OA 
HETATM   35  H   UNL     1      -6.136  10.278  63.162  1.00  0.00     0.000 HD 
ENDBRANCH  23  33
ENDBRANCH  19  21
ENDBRANCH  13  14
ENDBRANCH  10  13
ENDBRANCH   6   7
ENDBRANCH   1   6
TORSDOF 6
ENDMDL
MODEL      266
REMARK 921   NORMALIZED FREE ENERGY PREDICTED BY IDOCK:   -1.31 KCAL/MOL
REMARK 922        TOTAL FREE ENERGY PREDICTED BY IDOCK:   -2.74 KCAL/MOL
REMARK 923 INTER-LIGAND FREE ENERGY PREDICTED BY IDOCK:   -2.66 KCAL/MOL
REMARK 924 INTRA-LIGAND FREE ENERGY PREDICTED BY IDOCK:   -0.07 KCAL/MOL
REMARK 927      BINDING AFFINITY PREDICTED BY RF-SCORE:    0.00 PKD
ROOT
HETATM    1  C   UNL     1     -11.460  12.891  64.580  1.00  0.00    -0.344 C  
HETATM    2  C   UNL     1     -11.249  13.997  63.561  1.00  0.00     0.936 C  
HETATM    3  O   UNL     1     -12.956  14.723  64.998  1.00  0.00    -0.341 OA 
HETATM    4  C   UNL     1     -11.835  15.201  64.249  1.00  0.00    -0.251 C  
HETATM    5  C   UNL     1     -12.792  13.307  65.201  1.00  0.00    -0.310 C  
ENDROOT
BRANCH   1   6
HETATM    6  O   UNL     1     -11.517  11.657  63.873  1.00  0.00    -0.385 OA 
BRANCH   6   7
HETATM    7  C   UNL     1     -10.691  10.641  64.256  1.00  0.00     0.159 A  
HETATM    8  C   UNL     1      -9.836   8.924  65.732  1.00  0.00    -0.106 A  
HETATM    9  C   UNL     1     -10.668  10.033  65.508  1.00  0.00     0.372 A  
HETATM   10  C   UNL     1      -9.019   8.410  64.710  1.00  0.00     0.201 A  
HETATM   11  C   UNL     1      -9.870  10.147  63.242  1.00  0.00     0.039 A  
HETATM   12  C   UNL     1      -9.034   9.049  63.465  1.00  0.00     0.113 A  
BRANCH  10  13
HETATM   13  C   UNL     1      -8.200   7.146  64.913  1.00  0.00    -0.073 C  
BRANCH  13  14
HETATM   14  C   UNL     1      -7.602   7.060  66.304  1.00  0.00    -0.092 A  
HETATM   15  C   UNL     1      -6.284   6.663  66.564  1.00  0.00    -0.041 A  
HETATM   16 CL   UNL     1      -5.147   6.341  65.305  1.00  0.00    -0.013 Cl 
HETATM   17  C   UNL     1      -5.848   6.474  67.880  1.00  0.00    -0.019 A  
HETATM   18  C   UNL     1      -6.743   6.603  68.945  1.00  0.00    -0.056 A  
HETATM   19  C   UNL     1      -8.080   6.948  68.713  1.00  0.00    -0.121 A  
HETATM   20  C   UNL     1      -8.465   7.259  67.399  1.00  0.00    -0.119 A  
BRANCH  19  21
HETATM   21  C   UNL     1      -9.116   6.770  69.815  1.00  0.00    -0.143 C  
HETATM   22  O   UNL     1      -9.999   7.908  69.788  1.00  0.00    -0.181 OA 
HETATM   23  C   UNL     1     -11.170   7.728  70.592  1.00  0.00    -0.268 C  
HETATM   24  H   UNL     1      -7.449   5.181  72.172  1.00  0.00     0.000 HD 
HETATM   25  C   UNL     1     -10.764   7.573  72.057  1.00  0.00    -0.225 C  
HETATM   26  O   UNL     1      -7.779   5.333  71.294  1.00  0.00    -0.096 OA 
HETATM   27  C   UNL     1      -9.788   6.396  72.201  1.00  0.00    -0.158 C  
HETATM   28  O   UNL     1     -11.889   7.350  72.914  1.00  0.00    -0.565 OA 
HETATM   29  H   UNL     1      -8.756   5.571  73.653  1.00  0.00     0.000 HD 
HETATM   30  C   UNL     1      -8.580   6.523  71.245  1.00  0.00    -0.127 C  
HETATM   31  H   UNL     1     -11.636   7.254  73.825  1.00  0.00     0.000 HD 
HETATM   32  O   UNL     1      -9.360   6.299  73.564  1.00  0.00    -0.131 OA 
BRANCH  23  33
HETATM   33  C   UNL     1     -12.077   8.944  70.377  1.00  0.00     0.205 C  
HETATM   34  O   UNL     1     -13.309   8.749  71.086  1.00  0.00    -0.525 OA 
HETATM   35  H   UNL     1     -13.872   9.502  70.953  1.00  0.00     0.000 HD 
ENDBRANCH  23  33
ENDBRANCH  19  21
ENDBRANCH  13  14
ENDBRANCH  10  13
ENDBRANCH   6   7
ENDBRANCH   1   6
TORSDOF 6
ENDMDL
MODEL      267
REMARK 921   NORMALIZED FREE ENERGY PREDICTED BY IDOCK:   -1.01 KCAL/MOL
REMARK 922        TOTAL FREE ENERGY PREDICTED BY IDOCK:   -2.33 KCAL/MOL
REMARK 923 INTER-LIGAND FREE ENERGY PREDICTED BY IDOCK:   -1.95 KCAL/MOL
REMARK 924 INTRA-LIGAND FREE ENERGY PREDICTED BY IDOCK:   -0.38 KCAL/MOL
REMARK 927      BINDING AFFINITY PREDICTED BY RF-SCORE:    0.00 PKD
ROOT
HETATM    1  C   UNL     1     -11.237   5.449  72.890  1.00  0.00    -0.314 C  
HETATM    2  C   UNL     1     -10.393   5.840  71.691  1.00  0.00    -0.266 C  
HETATM    3  O   UNL     1     -10.729   3.522  71.550  1.00  0.00     0.515 OA 
HETATM    4  C   UNL     1     -10.615   4.695  70.739  1.00  0.00     0.211 C  
HETATM    5  C   UNL     1     -11.079   3.931  72.886  1.00  0.00     0.028 C  
ENDROOT
BRANCH   1   6
HETATM    6  O   UNL     1     -10.679   6.082  74.037  1.00  0.00    -0.229 OA 
BRANCH   6   7
HETATM    7  C   UNL     1      -9.352   6.397  74.032  1.00  0.00    -0.163 A  
HETATM    8  C   UNL     1      -6.978   5.980  74.252  1.00  0.00    -0.083 A  
HETATM    9  C   UNL     1      -8.309   5.557  74.408  1.00  0.00    -0.106 A  
HETATM   10  C   UNL     1      -6.675   7.245  73.719  1.00  0.00    -0.072 A  
HETATM   11  C   UNL     1      -9.058   7.661  73.518  1.00  0.00    -0.317 A  
HETATM   12  C   UNL     1      -7.736   8.087  73.370  1.00  0.00    -0.209 A  
BRANCH  10  13
HETATM   13  C   UNL     1      -5.240   7.663  73.447  1.00  0.00    -0.041 C  
BRANCH  13  14
HETATM   14  C   UNL     1      -5.143   8.756  72.399  1.00  0.00    -0.046 A  
HETATM   15  C   UNL     1      -5.194  10.125  72.693  1.00  0.00     0.120 A  
HETATM   16 CL   UNL     1      -5.252  10.725  74.311  1.00  0.00     0.163 Cl 
HETATM   17  C   UNL     1      -5.238  11.069  71.661  1.00  0.00     0.054 A  
HETATM   18  C   UNL     1      -5.311  10.654  70.329  1.00  0.00    -0.060 A  
HETATM   19  C   UNL     1      -5.313   9.292  70.007  1.00  0.00    -0.028 A  
HETATM   20  C   UNL     1      -5.138   8.365  71.047  1.00  0.00    -0.025 A  
BRANCH  19  21
HETATM   21  C   UNL     1      -5.717   8.839  68.610  1.00  0.00    -0.041 C  
HETATM   22  O   UNL     1      -6.622   9.819  68.065  1.00  0.00    -0.060 OA 
HETATM   23  C   UNL     1      -6.859   9.647  66.664  1.00  0.00    -0.084 C  
HETATM   24  H   UNL     1      -5.724   5.553  68.851  1.00  0.00     0.000 HD 
HETATM   25  C   UNL     1      -7.537   8.299  66.422  1.00  0.00    -0.091 C  
HETATM   26  O   UNL     1      -5.364   6.428  68.931  1.00  0.00    -0.013 OA 
HETATM   27  C   UNL     1      -6.665   7.172  66.996  1.00  0.00    -0.064 C  
HETATM   28  O   UNL     1      -7.767   8.046  65.033  1.00  0.00    -0.097 OA 
HETATM   29  H   UNL     1      -6.800   5.222  67.181  1.00  0.00     0.000 HD 
HETATM   30  C   UNL     1      -6.304   7.414  68.480  1.00  0.00    -0.036 C  
HETATM   31  H   UNL     1      -8.189   7.207  64.882  1.00  0.00     0.000 HD 
HETATM   32  O   UNL     1      -7.339   5.919  66.826  1.00  0.00    -0.076 OA 
BRANCH  23  33
HETATM   33  C   UNL     1      -7.727  10.816  66.188  1.00  0.00    -0.149 C  
HETATM   34  O   UNL     1      -7.091  12.054  66.539  1.00  0.00    -0.373 OA 
HETATM   35  H   UNL     1      -7.629  12.779  66.244  1.00  0.00     0.000 HD 
ENDBRANCH  23  33
ENDBRANCH  19  21
ENDBRANCH  13  14
ENDBRANCH  10  13
ENDBRANCH   6   7
ENDBRANCH   1   6
TORSDOF 6
ENDMDL
MODEL      268
REMARK 921   NORMALIZED FREE ENERGY PREDICTED BY IDOCK:   -0.93 KCAL/MOL
REMARK 922        TOTAL FREE ENERGY PREDICTED BY IDOCK:   -2.22 KCAL/MOL
REMARK 923 INTER-LIGAND FREE ENERGY PREDICTED BY IDOCK:   -1.21 KCAL/MOL
REMARK 924 INTRA-LIGAND FREE ENERGY PREDICTED BY IDOCK:   -1.02 KCAL/MOL
REMARK 927      BINDING AFFINITY PREDICTED BY RF-SCORE:    0.00 PKD
ROOT
HETATM    1  C   UNL     1     -11.465  12.888  64.575  1.00  0.00    -0.344 C  
HETATM    2  C   UNL     1     -11.247  13.988  63.552  1.00  0.00     0.936 C  
HETATM    3  O   UNL     1     -12.934  14.740  65.000  1.00  0.00    -0.341 OA 
HETATM    4  C   UNL     1     -11.812  15.202  64.241  1.00  0.00    -0.251 C  
HETATM    5  C   UNL     1     -12.786  13.323  65.205  1.00  0.00    -0.310 C  
ENDROOT
BRANCH   1   6
HETATM    6  O   UNL     1     -11.544  11.653  63.871  1.00  0.00    -0.380 OA 
BRANCH   6   7
HETATM    7  C   UNL     1     -10.723  10.630  64.246  1.00  0.00     0.159 A  
HETATM    8  C   UNL     1      -9.898   8.872  65.690  1.00  0.00     0.006 A  
HETATM    9  C   UNL     1     -10.731   9.984  65.478  1.00  0.00     0.372 A  
HETATM   10  C   UNL     1      -9.052   8.393  64.676  1.00  0.00     0.449 A  
HETATM   11  C   UNL     1      -9.873  10.170  63.239  1.00  0.00     0.039 A  
HETATM   12  C   UNL     1      -9.038   9.070  63.451  1.00  0.00     0.285 A  
BRANCH  10  13
HETATM   13  C   UNL     1      -8.232   7.127  64.863  1.00  0.00    -0.073 C  
BRANCH  13  14
HETATM   14  C   UNL     1      -7.652   7.013  66.259  1.00  0.00    -0.092 A  
HETATM   15  C   UNL     1      -6.297   7.209  66.560  1.00  0.00    -0.047 A  
HETATM   16 CL   UNL     1      -5.150   7.727  65.378  1.00  0.00    -0.028 Cl 
HETATM   17  C   UNL     1      -5.814   6.949  67.847  1.00  0.00    -0.024 A  
HETATM   18  C   UNL     1      -6.659   6.417  68.824  1.00  0.00    -0.051 A  
HETATM   19  C   UNL     1      -8.005   6.162  68.538  1.00  0.00    -0.108 A  
HETATM   20  C   UNL     1      -8.501   6.550  67.282  1.00  0.00    -0.112 A  
BRANCH  19  21
HETATM   21  C   UNL     1      -8.833   5.294  69.476  1.00  0.00    -0.104 C  
HETATM   22  O   UNL     1      -8.632   5.768  70.821  1.00  0.00    -0.126 OA 
HETATM   23  C   UNL     1      -9.560   5.210  71.758  1.00  0.00    -0.152 C  
HETATM   24  H   UNL     1      -8.767   2.336  68.025  1.00  0.00     0.000 HD 
HETATM   25  C   UNL     1      -9.360   3.697  71.835  1.00  0.00    -0.125 C  
HETATM   26  O   UNL     1      -8.904   3.275  68.076  1.00  0.00    -0.102 OA 
HETATM   27  C   UNL     1      -9.522   3.083  70.436  1.00  0.00    -0.148 C  
HETATM   28  O   UNL     1     -10.286   3.070  72.728  1.00  0.00    -0.144 OA 
HETATM   29  H   UNL     1      -9.367   1.296  69.640  1.00  0.00     0.000 HD 
HETATM   30  C   UNL     1      -8.609   3.765  69.392  1.00  0.00    -0.074 C  
HETATM   31  H   UNL     1     -10.162   2.129  72.776  1.00  0.00     0.000 HD 
HETATM   32  O   UNL     1      -9.267   1.675  70.505  1.00  0.00    -0.076 OA 
BRANCH  23  33
HETATM   33  C   UNL     1      -9.323   5.887  73.112  1.00  0.00    -0.139 C  
HETATM   34  O   UNL     1      -8.435   5.080  73.898  1.00  0.00    -0.104 OA 
HETATM   35  H   UNL     1      -8.288   5.499  74.738  1.00  0.00     0.000 HD 
ENDBRANCH  23  33
ENDBRANCH  19  21
ENDBRANCH  13  14
ENDBRANCH  10  13
ENDBRANCH   6   7
ENDBRANCH   1   6
TORSDOF 6
ENDMDL
MODEL      269
REMARK 921   NORMALIZED FREE ENERGY PREDICTED BY IDOCK:   -0.87 KCAL/MOL
REMARK 922        TOTAL FREE ENERGY PREDICTED BY IDOCK:   -2.15 KCAL/MOL
REMARK 923 INTER-LIGAND FREE ENERGY PREDICTED BY IDOCK:   -3.23 KCAL/MOL
REMARK 924 INTRA-LIGAND FREE ENERGY PREDICTED BY IDOCK:    1.09 KCAL/MOL
REMARK 927      BINDING AFFINITY PREDICTED BY RF-SCORE:    0.00 PKD
ROOT
HETATM    1  C   UNL     1      -7.815   7.530  71.619  1.00  0.00    -0.086 C  
HETATM    2  C   UNL     1      -8.044   7.455  73.117  1.00  0.00    -0.134 C  
HETATM    3  O   UNL     1      -9.863   8.632  72.217  1.00  0.00    -0.305 OA 
HETATM    4  C   UNL     1      -9.526   7.692  73.241  1.00  0.00    -0.259 C  
HETATM    5  C   UNL     1      -8.831   8.595  71.213  1.00  0.00    -0.207 C  
ENDROOT
BRANCH   1   6
HETATM    6  O   UNL     1      -6.462   7.917  71.407  1.00  0.00    -0.037 OA 
BRANCH   6   7
HETATM    7  C   UNL     1      -6.193   9.211  71.069  1.00  0.00    -0.067 A  
HETATM    8  C   UNL     1      -6.414  11.255  69.791  1.00  0.00    -0.140 A  
HETATM    9  C   UNL     1      -6.690   9.887  69.959  1.00  0.00    -0.100 A  
HETATM   10  C   UNL     1      -5.640  11.960  70.729  1.00  0.00    -0.118 A  
HETATM   11  C   UNL     1      -5.411   9.902  71.995  1.00  0.00    -0.003 A  
HETATM   12  C   UNL     1      -5.127  11.260  71.826  1.00  0.00     0.048 A  
BRANCH  10  13
HETATM   13  C   UNL     1      -5.431  13.461  70.610  1.00  0.00    -0.160 C  
BRANCH  13  14
HETATM   14  C   UNL     1      -6.112  14.047  69.389  1.00  0.00    -0.102 A  
HETATM   15  C   UNL     1      -6.425  15.406  69.246  1.00  0.00    -0.137 A  
HETATM   16 CL   UNL     1      -5.955  16.593  70.409  1.00  0.00    -0.052 Cl 
HETATM   17  C   UNL     1      -7.177  15.847  68.152  1.00  0.00    -0.134 A  
HETATM   18  C   UNL     1      -7.690  14.929  67.232  1.00  0.00    -0.227 A  
HETATM   19  C   UNL     1      -7.437  13.560  67.377  1.00  0.00    -0.136 A  
HETATM   20  C   UNL     1      -6.574  13.151  68.407  1.00  0.00    -0.092 A  
BRANCH  19  21
HETATM   21  C   UNL     1      -8.251  12.546  66.584  1.00  0.00     0.099 C  
HETATM   22  O   UNL     1      -9.639  12.712  66.934  1.00  0.00    -0.218 OA 
HETATM   23  C   UNL     1     -10.526  12.006  66.061  1.00  0.00    -0.249 C  
HETATM   24  H   UNL     1      -6.213   9.970  66.331  1.00  0.00     0.000 HD 
HETATM   25  C   UNL     1     -10.264  10.505  66.171  1.00  0.00    -0.236 C  
HETATM   26  O   UNL     1      -6.474  10.880  66.259  1.00  0.00    -0.120 OA 
HETATM   27  C   UNL     1      -8.792  10.213  65.845  1.00  0.00    -0.149 C  
HETATM   28  O   UNL     1     -11.095   9.741  65.291  1.00  0.00     1.054 OA 
HETATM   29  H   UNL     1      -7.627   8.633  65.814  1.00  0.00     0.000 HD 
HETATM   30  C   UNL     1      -7.827  11.063  66.702  1.00  0.00    -0.153 C  
HETATM   31  H   UNL     1     -10.931   8.807  65.359  1.00  0.00     0.000 HD 
HETATM   32  O   UNL     1      -8.537   8.813  66.015  1.00  0.00    -0.132 OA 
BRANCH  23  33
HETATM   33  C   UNL     1     -11.961  12.366  66.461  1.00  0.00    -0.252 C  
HETATM   34  O   UNL     1     -12.061  12.400  67.892  1.00  0.00    -0.428 OA 
HETATM   35  H   UNL     1     -12.951  12.623  68.140  1.00  0.00     0.000 HD 
ENDBRANCH  23  33
ENDBRANCH  19  21
ENDBRANCH  13  14
ENDBRANCH  10  13
ENDBRANCH   6   7
ENDBRANCH   1   6
TORSDOF 6
ENDMDL
MODEL      270
REMARK 921   NORMALIZED FREE ENERGY PREDICTED BY IDOCK:   -0.51 KCAL/MOL
REMARK 922        TOTAL FREE ENERGY PREDICTED BY IDOCK:   -1.65 KCAL/MOL
REMARK 923 INTER-LIGAND FREE ENERGY PREDICTED BY IDOCK:   -1.99 KCAL/MOL
REMARK 924 INTRA-LIGAND FREE ENERGY PREDICTED BY IDOCK:    0.33 KCAL/MOL
REMARK 927      BINDING AFFINITY PREDICTED BY RF-SCORE:    0.00 PKD
ROOT
HETATM    1  C   UNL     1     -10.402   3.391  64.651  1.00  0.00     0.013 C  
HETATM    2  C   UNL     1     -10.728   2.755  63.312  1.00  0.00    -0.231 C  
HETATM    3  O   UNL     1      -8.571   2.035  63.890  1.00  0.00    -0.081 OA 
HETATM    4  C   UNL     1      -9.773   1.593  63.252  1.00  0.00    -0.104 C  
HETATM    5  C   UNL     1      -8.896   3.155  64.736  1.00  0.00    -0.118 C  
ENDROOT
BRANCH   1   6
HETATM    6  O   UNL     1     -10.764   4.765  64.578  1.00  0.00     0.276 OA 
BRANCH   6   7
HETATM    7  C   UNL     1      -9.951   5.692  65.161  1.00  0.00     0.825 A  
HETATM    8  C   UNL     1      -8.965   6.929  66.993  1.00  0.00    -0.124 A  
HETATM    9  C   UNL     1      -9.931   6.030  66.511  1.00  0.00    -0.189 A  
HETATM   10  C   UNL     1      -8.009   7.499  66.134  1.00  0.00    -0.111 A  
HETATM   11  C   UNL     1      -9.015   6.267  64.300  1.00  0.00     0.716 A  
HETATM   12  C   UNL     1      -8.059   7.168  64.776  1.00  0.00    -0.092 A  
BRANCH  10  13
HETATM   13  C   UNL     1      -6.896   8.384  66.669  1.00  0.00    -0.068 C  
BRANCH  13  14
HETATM   14  C   UNL     1      -7.316   9.167  67.898  1.00  0.00    -0.084 A  
HETATM   15  C   UNL     1      -6.587  10.240  68.427  1.00  0.00    -0.056 A  
HETATM   16 CL   UNL     1      -5.177  10.873  67.657  1.00  0.00    -0.040 Cl 
HETATM   17  C   UNL     1      -6.965  10.822  69.642  1.00  0.00    -0.134 A  
HETATM   18  C   UNL     1      -8.026  10.290  70.379  1.00  0.00     0.436 A  
HETATM   19  C   UNL     1      -8.741   9.185  69.901  1.00  0.00    -0.170 A  
HETATM   20  C   UNL     1      -8.429   8.698  68.621  1.00  0.00    -0.130 A  
BRANCH  19  21
HETATM   21  C   UNL     1      -9.663   8.412  70.834  1.00  0.00    -0.174 C  
HETATM   22  O   UNL     1      -9.642   7.026  70.438  1.00  0.00    -0.169 OA 
HETATM   23  C   UNL     1     -10.253   6.159  71.399  1.00  0.00    -0.205 C  
HETATM   24  H   UNL     1     -12.034  10.590  71.533  1.00  0.00     0.000 HD 
HETATM   25  C   UNL     1     -11.733   6.512  71.538  1.00  0.00    -0.324 C  
HETATM   26  O   UNL     1     -11.142  10.275  71.453  1.00  0.00    -0.047 OA 
HETATM   27  C   UNL     1     -11.877   7.990  71.931  1.00  0.00    -0.307 C  
HETATM   28  O   UNL     1     -12.397   5.705  72.516  1.00  0.00    -0.406 OA 
HETATM   29  H   UNL     1     -13.356   9.245  72.236  1.00  0.00     0.000 HD 
HETATM   30  C   UNL     1     -11.116   8.926  70.964  1.00  0.00    -0.276 C  
HETATM   31  H   UNL     1     -13.318   5.925  72.602  1.00  0.00     0.000 HD 
HETATM   32  O   UNL     1     -13.267   8.331  71.993  1.00  0.00    -0.331 OA 
BRANCH  23  33
HETATM   33  C   UNL     1     -10.052   4.717  70.923  1.00  0.00    -0.187 C  
HETATM   34  O   UNL     1      -9.109   4.700  69.841  1.00  0.00    -0.095 OA 
HETATM   35  H   UNL     1      -8.984   3.806  69.546  1.00  0.00     0.000 HD 
ENDBRANCH  23  33
ENDBRANCH  19  21
ENDBRANCH  13  14
ENDBRANCH  10  13
ENDBRANCH   6   7
ENDBRANCH   1   6
TORSDOF 6
ENDMDL
MODEL      271
REMARK 921   NORMALIZED FREE ENERGY PREDICTED BY IDOCK:   -0.35 KCAL/MOL
REMARK 922        TOTAL FREE ENERGY PREDICTED BY IDOCK:   -1.44 KCAL/MOL
REMARK 923 INTER-LIGAND FREE ENERGY PREDICTED BY IDOCK:   -1.94 KCAL/MOL
REMARK 924 INTRA-LIGAND FREE ENERGY PREDICTED BY IDOCK:    0.50 KCAL/MOL
REMARK 927      BINDING AFFINITY PREDICTED BY RF-SCORE:    0.00 PKD
ROOT
HETATM    1  C   UNL     1     -10.397   3.366  64.643  1.00  0.00     0.013 C  
HETATM    2  C   UNL     1     -10.668   2.678  63.317  1.00  0.00    -0.231 C  
HETATM    3  O   UNL     1      -8.553   1.955  64.031  1.00  0.00    -0.080 OA 
HETATM    4  C   UNL     1      -9.729   1.502  63.353  1.00  0.00    -0.112 C  
HETATM    5  C   UNL     1      -8.901   3.115  64.811  1.00  0.00    -0.118 C  
ENDROOT
BRANCH   1   6
HETATM    6  O   UNL     1     -10.735   4.741  64.493  1.00  0.00     0.276 OA 
BRANCH   6   7
HETATM    7  C   UNL     1      -9.961   5.679  65.110  1.00  0.00     0.825 A  
HETATM    8  C   UNL     1      -9.148   7.004  66.966  1.00  0.00    -0.150 A  
HETATM    9  C   UNL     1     -10.085   6.104  66.429  1.00  0.00    -0.119 A  
HETATM   10  C   UNL     1      -8.079   7.487  66.192  1.00  0.00    -0.116 A  
HETATM   11  C   UNL     1      -8.911   6.168  64.331  1.00  0.00     0.585 A  
HETATM   12  C   UNL     1      -7.984   7.070  64.860  1.00  0.00    -0.127 A  
BRANCH  10  13
HETATM   13  C   UNL     1      -7.003   8.373  66.798  1.00  0.00    -0.073 C  
BRANCH  13  14
HETATM   14  C   UNL     1      -7.550   9.306  67.861  1.00  0.00    -0.084 A  
HETATM   15  C   UNL     1      -6.837  10.390  68.390  1.00  0.00    -0.064 A  
HETATM   16 CL   UNL     1      -5.286  10.859  67.794  1.00  0.00    -0.039 Cl 
HETATM   17  C   UNL     1      -7.354  11.120  69.466  1.00  0.00    -0.023 A  
HETATM   18  C   UNL     1      -8.549  10.727  70.075  1.00  0.00     0.829 A  
HETATM   19  C   UNL     1      -9.258   9.617  69.601  1.00  0.00    -0.225 A  
HETATM   20  C   UNL     1      -8.790   8.978  68.442  1.00  0.00    -0.134 A  
BRANCH  19  21
HETATM   21  C   UNL     1     -10.363   9.000  70.449  1.00  0.00    -0.212 C  
HETATM   22  O   UNL     1     -11.239  10.057  70.883  1.00  0.00    -0.323 OA 
HETATM   23  C   UNL     1     -12.459   9.576  71.457  1.00  0.00    -0.376 C  
HETATM   24  H   UNL     1      -8.855   6.476  71.937  1.00  0.00     0.000 HD 
HETATM   25  C   UNL     1     -12.148   8.772  72.719  1.00  0.00     0.048 C  
HETATM   26  O   UNL     1      -9.127   7.013  71.202  1.00  0.00    -0.152 OA 
HETATM   27  C   UNL     1     -11.187   7.624  72.375  1.00  0.00    -0.320 C  
HETATM   28  O   UNL     1     -13.326   8.227  73.322  1.00  0.00    -0.265 OA 
HETATM   29  H   UNL     1     -10.252   6.207  73.361  1.00  0.00     0.000 HD 
HETATM   30  C   UNL     1      -9.920   8.125  71.645  1.00  0.00    -0.192 C  
HETATM   31  H   UNL     1     -13.132   7.726  74.106  1.00  0.00     0.000 HD 
HETATM   32  O   UNL     1     -10.847   6.916  73.574  1.00  0.00    -0.315 OA 
BRANCH  23  33
HETATM   33  C   UNL     1     -13.347  10.788  71.757  1.00  0.00    -0.326 C  
HETATM   34  O   UNL     1     -12.799  11.949  71.115  1.00  0.00    -0.343 OA 
HETATM   35  H   UNL     1     -13.349  12.701  71.300  1.00  0.00     0.000 HD 
ENDBRANCH  23  33
ENDBRANCH  19  21
ENDBRANCH  13  14
ENDBRANCH  10  13
ENDBRANCH   6   7
ENDBRANCH   1   6
TORSDOF 6
ENDMDL
MODEL      272
REMARK 921   NORMALIZED FREE ENERGY PREDICTED BY IDOCK:   -0.33 KCAL/MOL
REMARK 922        TOTAL FREE ENERGY PREDICTED BY IDOCK:   -1.42 KCAL/MOL
REMARK 923 INTER-LIGAND FREE ENERGY PREDICTED BY IDOCK:   -1.04 KCAL/MOL
REMARK 924 INTRA-LIGAND FREE ENERGY PREDICTED BY IDOCK:   -0.38 KCAL/MOL
REMARK 927      BINDING AFFINITY PREDICTED BY RF-SCORE:    0.00 PKD
ROOT
HETATM    1  C   UNL     1     -10.677   4.166  70.883  1.00  0.00     0.974 C  
HETATM    2  C   UNL     1     -10.296   2.697  70.898  1.00  0.00     0.876 C  
HETATM    3  O   UNL     1      -8.889   3.772  72.438  1.00  0.00    -0.098 OA 
HETATM    4  C   UNL     1      -9.596   2.547  72.222  1.00  0.00    -0.114 C  
HETATM    5  C   UNL     1      -9.492   4.790  71.617  1.00  0.00    -0.151 C  
ENDROOT
BRANCH   1   6
HETATM    6  O   UNL     1     -10.787   4.571  69.523  1.00  0.00     0.799 OA 
BRANCH   6   7
HETATM    7  C   UNL     1     -10.974   5.892  69.243  1.00  0.00    -0.327 A  
HETATM    8  C   UNL     1     -11.234   8.246  69.748  1.00  0.00     0.029 A  
HETATM    9  C   UNL     1     -11.159   6.909  70.175  1.00  0.00    -0.344 A  
HETATM   10  C   UNL     1     -11.124   8.581  68.387  1.00  0.00     0.308 A  
HETATM   11  C   UNL     1     -10.880   6.217  67.889  1.00  0.00    -0.417 A  
HETATM   12  C   UNL     1     -10.963   7.545  67.461  1.00  0.00    -0.133 A  
BRANCH  10  13
HETATM   13  C   UNL     1     -11.093  10.030  67.932  1.00  0.00    -0.260 C  
BRANCH  13  14
HETATM   14  C   UNL     1     -10.311  10.219  66.646  1.00  0.00    -0.283 A  
HETATM   15  C   UNL     1     -10.662  11.135  65.646  1.00  0.00    -0.185 A  
HETATM   16 CL   UNL     1     -11.971  12.247  65.825  1.00  0.00    -0.434 Cl 
HETATM   17  C   UNL     1      -9.972  11.152  64.429  1.00  0.00    -0.354 A  
HETATM   18  C   UNL     1      -8.978  10.206  64.168  1.00  0.00    -0.267 A  
HETATM   19  C   UNL     1      -8.641   9.245  65.129  1.00  0.00    -0.194 A  
HETATM   20  C   UNL     1      -9.253   9.326  66.390  1.00  0.00    -0.227 A  
BRANCH  19  21
HETATM   21  C   UNL     1      -7.809   8.032  64.734  1.00  0.00    -0.131 C  
HETATM   22  O   UNL     1      -8.711   6.971  64.363  1.00  0.00     0.279 OA 
HETATM   23  C   UNL     1      -8.054   5.875  63.719  1.00  0.00    -0.095 C  
HETATM   24  H   UNL     1      -5.169   8.253  66.693  1.00  0.00     0.000 HD 
HETATM   25  C   UNL     1      -7.061   5.234  64.688  1.00  0.00    -0.054 C  
HETATM   26  O   UNL     1      -5.809   8.559  66.061  1.00  0.00    -0.046 OA 
HETATM   27  C   UNL     1      -6.060   6.291  65.177  1.00  0.00    -0.030 C  
HETATM   28  O   UNL     1      -6.339   4.151  64.091  1.00  0.00    -0.031 OA 
HETATM   29  H   UNL     1      -4.557   6.353  66.438  1.00  0.00     0.000 HD 
HETATM   30  C   UNL     1      -6.768   7.534  65.764  1.00  0.00    -0.045 C  
HETATM   31  H   UNL     1      -5.722   3.753  64.694  1.00  0.00     0.000 HD 
HETATM   32  O   UNL     1      -5.176   5.698  66.135  1.00  0.00    -0.008 OA 
BRANCH  23  33
HETATM   33  C   UNL     1      -9.130   4.884  63.265  1.00  0.00     0.029 C  
HETATM   34  O   UNL     1      -9.006   3.669  64.018  1.00  0.00    -0.103 OA 
HETATM   35  H   UNL     1      -9.673   3.054  63.737  1.00  0.00     0.000 HD 
ENDBRANCH  23  33
ENDBRANCH  19  21
ENDBRANCH  13  14
ENDBRANCH  10  13
ENDBRANCH   6   7
ENDBRANCH   1   6
TORSDOF 6
ENDMDL
MODEL      273
REMARK 921   NORMALIZED FREE ENERGY PREDICTED BY IDOCK:   -0.32 KCAL/MOL
REMARK 922        TOTAL FREE ENERGY PREDICTED BY IDOCK:   -1.39 KCAL/MOL
REMARK 923 INTER-LIGAND FREE ENERGY PREDICTED BY IDOCK:   -3.43 KCAL/MOL
REMARK 924 INTRA-LIGAND FREE ENERGY PREDICTED BY IDOCK:    2.03 KCAL/MOL
REMARK 927      BINDING AFFINITY PREDICTED BY RF-SCORE:    0.00 PKD
ROOT
HETATM    1  C   UNL     1      -9.823  15.100  68.353  1.00  0.00    -0.223 C  
HETATM    2  C   UNL     1     -10.802  15.959  67.573  1.00  0.00    -0.305 C  
HETATM    3  O   UNL     1     -11.735  15.641  69.702  1.00  0.00    -0.319 OA 
HETATM    4  C   UNL     1     -11.613  16.613  68.659  1.00  0.00     0.081 C  
HETATM    5  C   UNL     1     -10.680  14.673  69.541  1.00  0.00    -0.184 C  
ENDROOT
BRANCH   1   6
HETATM    6  O   UNL     1      -9.428  14.022  67.512  1.00  0.00    -0.210 OA 
BRANCH   6   7
HETATM    7  C   UNL     1      -9.689  12.745  67.915  1.00  0.00    -0.217 A  
HETATM    8  C   UNL     1     -10.856  10.624  67.930  1.00  0.00    -0.328 A  
HETATM    9  C   UNL     1     -10.770  11.965  67.517  1.00  0.00    -0.263 A  
HETATM   10  C   UNL     1      -9.865  10.050  68.744  1.00  0.00    -0.173 A  
HETATM   11  C   UNL     1      -8.710  12.185  68.737  1.00  0.00     0.109 A  
HETATM   12  C   UNL     1      -8.798  10.855  69.157  1.00  0.00    -0.050 A  
BRANCH  10  13
HETATM   13  C   UNL     1      -9.896   8.574  69.103  1.00  0.00    -0.186 C  
BRANCH  13  14
HETATM   14  C   UNL     1      -8.513   7.951  69.123  1.00  0.00    -0.137 A  
HETATM   15  C   UNL     1      -7.409   8.523  69.768  1.00  0.00    -0.056 A  
HETATM   16 CL   UNL     1      -7.532   9.956  70.724  1.00  0.00     0.021 Cl 
HETATM   17  C   UNL     1      -6.136   7.961  69.623  1.00  0.00    -0.033 A  
HETATM   18  C   UNL     1      -5.939   6.870  68.773  1.00  0.00    -0.026 A  
HETATM   19  C   UNL     1      -7.015   6.309  68.075  1.00  0.00    -0.080 A  
HETATM   20  C   UNL     1      -8.303   6.805  68.333  1.00  0.00    -0.123 A  
BRANCH  19  21
HETATM   21  C   UNL     1      -6.758   5.352  66.918  1.00  0.00    -0.062 C  
HETATM   22  O   UNL     1      -7.169   6.002  65.699  1.00  0.00    -0.071 OA 
HETATM   23  C   UNL     1      -6.730   5.316  64.522  1.00  0.00    -0.047 C  
HETATM   24  H   UNL     1      -7.276   2.387  68.257  1.00  0.00     0.000 HD 
HETATM   25  C   UNL     1      -7.369   3.929  64.471  1.00  0.00    -0.067 C  
HETATM   26  O   UNL     1      -6.894   3.254  68.190  1.00  0.00    -0.047 OA 
HETATM   27  C   UNL     1      -7.019   3.151  65.748  1.00  0.00    -0.053 C  
HETATM   28  O   UNL     1      -6.940   3.172  63.334  1.00  0.00    -0.041 OA 
HETATM   29  H   UNL     1      -7.460   1.398  66.513  1.00  0.00     0.000 HD 
HETATM   30  C   UNL     1      -7.380   3.940  67.027  1.00  0.00    -0.072 C  
HETATM   31  H   UNL     1      -7.338   2.310  63.302  1.00  0.00     0.000 HD 
HETATM   32  O   UNL     1      -7.677   1.878  65.723  1.00  0.00    -0.069 OA 
BRANCH  23  33
HETATM   33  C   UNL     1      -7.119   6.169  63.310  1.00  0.00    -0.052 C  
HETATM   34  O   UNL     1      -8.402   5.749  62.825  1.00  0.00    -0.147 OA 
HETATM   35  H   UNL     1      -8.644   6.278  62.074  1.00  0.00     0.000 HD 
ENDBRANCH  23  33
ENDBRANCH  19  21
ENDBRANCH  13  14
ENDBRANCH  10  13
ENDBRANCH   6   7
ENDBRANCH   1   6
TORSDOF 6
ENDMDL
MODEL      274
REMARK 921   NORMALIZED FREE ENERGY PREDICTED BY IDOCK:   -0.19 KCAL/MOL
REMARK 922        TOTAL FREE ENERGY PREDICTED BY IDOCK:   -1.23 KCAL/MOL
REMARK 923 INTER-LIGAND FREE ENERGY PREDICTED BY IDOCK:   -2.83 KCAL/MOL
REMARK 924 INTRA-LIGAND FREE ENERGY PREDICTED BY IDOCK:    1.61 KCAL/MOL
REMARK 927      BINDING AFFINITY PREDICTED BY RF-SCORE:    0.00 PKD
ROOT
HETATM    1  C   UNL     1      -9.499  17.683  65.207  1.00  0.00     1.517 C  
HETATM    2  C   UNL     1     -10.590  18.263  66.088  1.00  0.00    -0.326 C  
HETATM    3  O   UNL     1      -8.621  18.269  67.364  1.00  0.00    -0.246 OA 
HETATM    4  C   UNL     1      -9.811  19.027  67.126  1.00  0.00    -0.324 C  
HETATM    5  C   UNL     1      -8.402  17.406  66.231  1.00  0.00    -0.236 C  
ENDROOT
BRANCH   1   6
HETATM    6  O   UNL     1     -10.020  16.510  64.591  1.00  0.00     0.388 OA 
BRANCH   6   7
HETATM    7  C   UNL     1     -10.204  15.394  65.354  1.00  0.00    -0.377 A  
HETATM    8  C   UNL     1      -9.708  13.174  66.182  1.00  0.00    -0.254 A  
HETATM    9  C   UNL     1      -9.481  14.208  65.259  1.00  0.00     0.343 A  
HETATM   10  C   UNL     1     -10.657  13.313  67.210  1.00  0.00    -0.250 A  
HETATM   11  C   UNL     1     -11.159  15.531  66.362  1.00  0.00    -0.174 A  
HETATM   12  C   UNL     1     -11.393  14.500  67.276  1.00  0.00    -0.363 A  
BRANCH  10  13
HETATM   13  C   UNL     1     -10.829  12.243  68.275  1.00  0.00    -0.254 C  
BRANCH  13  14
HETATM   14  C   UNL     1     -10.386  10.873  67.799  1.00  0.00    -0.218 A  
HETATM   15  C   UNL     1     -10.712  10.339  66.545  1.00  0.00    -0.078 A  
HETATM   16 CL   UNL     1     -11.563  11.244  65.345  1.00  0.00     0.120 Cl 
HETATM   17  C   UNL     1     -10.385   9.015  66.233  1.00  0.00    -0.130 A  
HETATM   18  C   UNL     1      -9.800   8.187  67.195  1.00  0.00    -0.281 A  
HETATM   19  C   UNL     1      -9.509   8.678  68.473  1.00  0.00    -0.146 A  
HETATM   20  C   UNL     1      -9.726  10.042  68.725  1.00  0.00    -0.174 A  
BRANCH  19  21
HETATM   21  C   UNL     1      -9.185   7.712  69.605  1.00  0.00    -0.146 C  
HETATM   22  O   UNL     1      -9.325   8.418  70.853  1.00  0.00    -0.152 OA 
HETATM   23  C   UNL     1      -9.311   7.553  71.993  1.00  0.00    -0.133 C  
HETATM   24  H   UNL     1      -6.881   5.755  68.293  1.00  0.00     0.000 HD 
HETATM   25  C   UNL     1      -7.957   6.849  72.083  1.00  0.00    -0.094 C  
HETATM   26  O   UNL     1      -7.718   6.201  68.336  1.00  0.00    -0.099 OA 
HETATM   27  C   UNL     1      -7.686   6.081  70.781  1.00  0.00    -0.098 C  
HETATM   28  O   UNL     1      -7.890   5.936  73.183  1.00  0.00    -0.102 OA 
HETATM   29  H   UNL     1      -6.220   5.006  70.041  1.00  0.00     0.000 HD 
HETATM   30  C   UNL     1      -7.820   6.986  69.534  1.00  0.00    -0.119 C  
HETATM   31  H   UNL     1      -7.048   5.499  73.239  1.00  0.00     0.000 HD 
HETATM   32  O   UNL     1      -6.387   5.481  70.846  1.00  0.00    -0.032 OA 
BRANCH  23  33
HETATM   33  C   UNL     1      -9.594   8.407  73.233  1.00  0.00     0.041 C  
HETATM   34  O   UNL     1      -9.029   7.770  74.388  1.00  0.00    -0.437 OA 
HETATM   35  H   UNL     1      -9.204   8.299  75.157  1.00  0.00     0.000 HD 
ENDBRANCH  23  33
ENDBRANCH  19  21
ENDBRANCH  13  14
ENDBRANCH  10  13
ENDBRANCH   6   7
ENDBRANCH   1   6
TORSDOF 6
ENDMDL
MODEL      275
REMARK 921   NORMALIZED FREE ENERGY PREDICTED BY IDOCK:    0.29 KCAL/MOL
REMARK 922        TOTAL FREE ENERGY PREDICTED BY IDOCK:   -0.57 KCAL/MOL
REMARK 923 INTER-LIGAND FREE ENERGY PREDICTED BY IDOCK:   -2.37 KCAL/MOL
REMARK 924 INTRA-LIGAND FREE ENERGY PREDICTED BY IDOCK:    1.81 KCAL/MOL
REMARK 927      BINDING AFFINITY PREDICTED BY RF-SCORE:    0.00 PKD
ROOT
HETATM    1  C   UNL     1      -6.934  16.589  69.669  1.00  0.00    -0.026 C  
HETATM    2  C   UNL     1      -5.520  16.225  70.083  1.00  0.00    -0.182 C  
HETATM    3  O   UNL     1      -5.743  18.537  70.413  1.00  0.00    -0.234 OA 
HETATM    4  C   UNL     1      -5.126  17.374  70.973  1.00  0.00    -0.197 C  
HETATM    5  C   UNL     1      -6.838  18.110  69.581  1.00  0.00     0.065 C  
ENDROOT
BRANCH   1   6
HETATM    6  O   UNL     1      -7.195  15.957  68.421  1.00  0.00    -0.116 OA 
BRANCH   6   7
HETATM    7  C   UNL     1      -6.915  14.629  68.286  1.00  0.00    -0.113 A  
HETATM    8  C   UNL     1      -5.646  12.697  67.566  1.00  0.00    -0.121 A  
HETATM    9  C   UNL     1      -5.883  14.082  67.529  1.00  0.00     0.098 A  
HETATM   10  C   UNL     1      -6.436  11.845  68.356  1.00  0.00    -0.054 A  
HETATM   11  C   UNL     1      -7.713  13.786  69.060  1.00  0.00     0.058 A  
HETATM   12  C   UNL     1      -7.485  12.407  69.090  1.00  0.00     0.166 A  
BRANCH  10  13
HETATM   13  C   UNL     1      -6.115  10.365  68.484  1.00  0.00    -0.043 C  
BRANCH  13  14
HETATM   14  C   UNL     1      -7.007   9.501  67.614  1.00  0.00    -0.080 A  
HETATM   15  C   UNL     1      -7.978  10.011  66.743  1.00  0.00    -0.114 A  
HETATM   16 CL   UNL     1      -8.185  11.704  66.473  1.00  0.00    -0.141 Cl 
HETATM   17  C   UNL     1      -8.855   9.147  66.077  1.00  0.00    -0.200 A  
HETATM   18  C   UNL     1      -8.823   7.774  66.334  1.00  0.00    -0.180 A  
HETATM   19  C   UNL     1      -7.897   7.241  67.239  1.00  0.00    -0.111 A  
HETATM   20  C   UNL     1      -6.943   8.107  67.797  1.00  0.00    -0.078 A  
BRANCH  19  21
HETATM   21  C   UNL     1      -8.072   5.821  67.761  1.00  0.00    -0.102 C  
HETATM   22  O   UNL     1      -6.942   5.508  68.597  1.00  0.00    -0.057 OA 
HETATM   23  C   UNL     1      -7.122   4.310  69.359  1.00  0.00    -0.050 C  
HETATM   24  H   UNL     1      -9.625   4.291  65.290  1.00  0.00     0.000 HD 
HETATM   25  C   UNL     1      -7.259   3.118  68.413  1.00  0.00    -0.050 C  
HETATM   26  O   UNL     1      -9.484   4.972  65.938  1.00  0.00    -0.154 OA 
HETATM   27  C   UNL     1      -8.428   3.360  67.445  1.00  0.00    -0.097 C  
HETATM   28  O   UNL     1      -7.482   1.890  69.112  1.00  0.00    -0.043 OA 
HETATM   29  H   UNL     1      -9.230   2.420  65.920  1.00  0.00     0.000 HD 
HETATM   30  C   UNL     1      -8.301   4.712  66.707  1.00  0.00    -0.106 C  
HETATM   31  H   UNL     1      -7.567   1.148  68.523  1.00  0.00     0.000 HD 
HETATM   32  O   UNL     1      -8.508   2.271  66.518  1.00  0.00    -0.089 OA 
BRANCH  23  33
HETATM   33  C   UNL     1      -5.915   4.162  70.292  1.00  0.00    -0.018 C  
HETATM   34  O   UNL     1      -5.176   5.392  70.312  1.00  0.00    -0.004 OA 
HETATM   35  H   UNL     1      -4.428   5.300  70.890  1.00  0.00     0.000 HD 
ENDBRANCH  23  33
ENDBRANCH  19  21
ENDBRANCH  13  14
ENDBRANCH  10  13
ENDBRANCH   6   7
ENDBRANCH   1   6
TORSDOF 6
ENDMDL
MODEL      276
REMARK 921   NORMALIZED FREE ENERGY PREDICTED BY IDOCK:    0.72 KCAL/MOL
REMARK 922        TOTAL FREE ENERGY PREDICTED BY IDOCK:    0.01 KCAL/MOL
REMARK 923 INTER-LIGAND FREE ENERGY PREDICTED BY IDOCK:    0.27 KCAL/MOL
REMARK 924 INTRA-LIGAND FREE ENERGY PREDICTED BY IDOCK:   -0.26 KCAL/MOL
REMARK 927      BINDING AFFINITY PREDICTED BY RF-SCORE:    0.00 PKD
ROOT
HETATM    1  C   UNL     1     -10.660  16.481  71.284  1.00  0.00     1.373 C  
HETATM    2  C   UNL     1     -11.287  17.639  72.037  1.00  0.00     2.137 C  
HETATM    3  O   UNL     1     -12.571  15.740  72.535  1.00  0.00    -0.381 OA 
HETATM    4  C   UNL     1     -12.074  16.948  73.118  1.00  0.00     0.065 C  
HETATM    5  C   UNL     1     -11.758  15.426  71.388  1.00  0.00    -0.395 C  
ENDROOT
BRANCH   1   6
HETATM    6  O   UNL     1     -10.408  16.917  69.952  1.00  0.00    -0.098 OA 
BRANCH   6   7
HETATM    7  C   UNL     1     -10.030  15.996  69.019  1.00  0.00    -0.242 A  
HETATM    8  C   UNL     1      -9.831  13.791  68.042  1.00  0.00    -0.239 A  
HETATM    9  C   UNL     1     -10.168  14.616  69.128  1.00  0.00    -0.199 A  
HETATM   10  C   UNL     1      -9.353  14.335  66.837  1.00  0.00    -0.268 A  
HETATM   11  C   UNL     1      -9.540  16.541  67.832  1.00  0.00    -0.233 A  
HETATM   12  C   UNL     1      -9.195  15.722  66.753  1.00  0.00    -0.268 A  
BRANCH  10  13
HETATM   13  C   UNL     1      -9.092  13.458  65.624  1.00  0.00     0.603 C  
BRANCH  13  14
HETATM   14  C   UNL     1      -9.667  12.063  65.781  1.00  0.00    -0.254 A  
HETATM   15  C   UNL     1     -11.019  11.751  65.590  1.00  0.00    -0.295 A  
HETATM   16 CL   UNL     1     -12.169  12.911  65.031  1.00  0.00    -0.479 Cl 
HETATM   17  C   UNL     1     -11.498  10.471  65.889  1.00  0.00     1.078 A  
HETATM   18  C   UNL     1     -10.651   9.514  66.454  1.00  0.00    -0.083 A  
HETATM   19  C   UNL     1      -9.306   9.814  66.704  1.00  0.00    -0.200 A  
HETATM   20  C   UNL     1      -8.815  11.059  66.278  1.00  0.00    -0.187 A  
BRANCH  19  21
HETATM   21  C   UNL     1      -8.478   8.907  67.604  1.00  0.00    -0.121 C  
HETATM   22  O   UNL     1      -9.064   7.591  67.577  1.00  0.00    -0.125 OA 
HETATM   23  C   UNL     1      -8.225   6.592  68.165  1.00  0.00    -0.117 C  
HETATM   24  H   UNL     1      -7.446  10.941  69.983  1.00  0.00     0.000 HD 
HETATM   25  C   UNL     1      -8.017   6.905  69.646  1.00  0.00    -0.125 C  
HETATM   26  O   UNL     1      -7.582  10.649  69.089  1.00  0.00    -0.109 OA 
HETATM   27  C   UNL     1      -7.418   8.312  69.797  1.00  0.00    -0.077 C  
HETATM   28  O   UNL     1      -7.152   5.962  70.287  1.00  0.00    -0.068 OA 
HETATM   29  H   UNL     1      -6.919   9.495  71.281  1.00  0.00     0.000 HD 
HETATM   30  C   UNL     1      -8.256   9.382  69.060  1.00  0.00    -0.108 C  
HETATM   31  H   UNL     1      -7.023   6.157  71.208  1.00  0.00     0.000 HD 
HETATM   32  O   UNL     1      -7.289   8.625  71.189  1.00  0.00    -0.070 OA 
BRANCH  23  33
HETATM   33  C   UNL     1      -8.901   5.232  67.959  1.00  0.00    -0.105 C  
HETATM   34  O   UNL     1      -9.680   5.266  66.754  1.00  0.00    -0.135 OA 
HETATM   35  H   UNL     1     -10.099   4.424  66.626  1.00  0.00     0.000 HD 
ENDBRANCH  23  33
ENDBRANCH  19  21
ENDBRANCH  13  14
ENDBRANCH  10  13
ENDBRANCH   6   7
ENDBRANCH   1   6
TORSDOF 6
ENDMDL
MODEL      277
REMARK 921   NORMALIZED FREE ENERGY PREDICTED BY IDOCK:    1.14 KCAL/MOL
REMARK 922        TOTAL FREE ENERGY PREDICTED BY IDOCK:    0.58 KCAL/MOL
REMARK 923 INTER-LIGAND FREE ENERGY PREDICTED BY IDOCK:   -1.11 KCAL/MOL
REMARK 924 INTRA-LIGAND FREE ENERGY PREDICTED BY IDOCK:    1.68 KCAL/MOL
REMARK 927      BINDING AFFINITY PREDICTED BY RF-SCORE:    0.00 PKD
ROOT
HETATM    1  C   UNL     1      -5.671  11.696  69.670  1.00  0.00    -0.084 C  
HETATM    2  C   UNL     1      -7.101  12.005  70.075  1.00  0.00     0.806 C  
HETATM    3  O   UNL     1      -7.146   9.932  68.978  1.00  0.00    -0.063 OA 
HETATM    4  C   UNL     1      -7.754  10.649  70.056  1.00  0.00     0.255 C  
HETATM    5  C   UNL     1      -5.880  10.553  68.681  1.00  0.00    -0.040 C  
ENDROOT
BRANCH   1   6
HETATM    6  O   UNL     1      -5.125  12.872  69.082  1.00  0.00    -0.069 OA 
BRANCH   6   7
HETATM    7  C   UNL     1      -5.966  13.745  68.456  1.00  0.00    -0.093 A  
HETATM    8  C   UNL     1      -6.597  15.811  67.364  1.00  0.00    -0.215 A  
HETATM    9  C   UNL     1      -5.668  15.057  68.101  1.00  0.00    -0.140 A  
HETATM   10  C   UNL     1      -7.831  15.264  66.974  1.00  0.00    -0.224 A  
HETATM   11  C   UNL     1      -7.197  13.201  68.086  1.00  0.00    -0.117 A  
HETATM   12  C   UNL     1      -8.126  13.952  67.361  1.00  0.00    -0.190 A  
BRANCH  10  13
HETATM   13  C   UNL     1      -8.791  16.036  66.084  1.00  0.00    -0.366 C  
BRANCH  13  14
HETATM   14  C   UNL     1     -10.051  16.457  66.817  1.00  0.00    -0.287 A  
HETATM   15  C   UNL     1     -10.402  17.791  67.064  1.00  0.00    -0.344 A  
HETATM   16 CL   UNL     1      -9.487  19.119  66.447  1.00  0.00    -0.373 Cl 
HETATM   17  C   UNL     1     -11.506  18.094  67.867  1.00  0.00     0.938 A  
HETATM   18  C   UNL     1     -12.224  17.074  68.495  1.00  0.00     2.006 A  
HETATM   19  C   UNL     1     -11.866  15.733  68.308  1.00  0.00    -0.116 A  
HETATM   20  C   UNL     1     -10.837  15.443  67.398  1.00  0.00    -0.309 A  
BRANCH  19  21
HETATM   21  C   UNL     1     -12.425  14.659  69.231  1.00  0.00    -0.019 C  
HETATM   22  O   UNL     1     -12.242  15.097  70.592  1.00  0.00    -0.300 OA 
HETATM   23  C   UNL     1     -12.965  14.304  71.539  1.00  0.00    -0.340 C  
HETATM   24  H   UNL     1     -11.825  11.864  67.593  1.00  0.00     0.000 HD 
HETATM   25  C   UNL     1     -12.442  12.868  71.508  1.00  0.00    -0.056 C  
HETATM   26  O   UNL     1     -12.156  12.747  67.711  1.00  0.00    -0.314 OA 
HETATM   27  C   UNL     1     -12.562  12.305  70.084  1.00  0.00     0.111 C  
HETATM   28  O   UNL     1     -13.152  12.010  72.408  1.00  0.00    -0.403 OA 
HETATM   29  H   UNL     1     -12.081  10.637  69.168  1.00  0.00     0.000 HD 
HETATM   30  C   UNL     1     -11.886  13.222  69.038  1.00  0.00    -0.321 C  
HETATM   31  H   UNL     1     -12.827  11.117  72.388  1.00  0.00     0.000 HD 
HETATM   32  O   UNL     1     -12.008  10.985  70.049  1.00  0.00    -0.290 OA 
BRANCH  23  33
HETATM   33  C   UNL     1     -12.790  14.946  72.919  1.00  0.00    -0.452 C  
HETATM   34  O   UNL     1     -12.943  13.942  73.933  1.00  0.00     0.300 OA 
HETATM   35  H   UNL     1     -12.834  14.340  74.789  1.00  0.00     0.000 HD 
ENDBRANCH  23  33
ENDBRANCH  19  21
ENDBRANCH  13  14
ENDBRANCH  10  13
ENDBRANCH   6   7
ENDBRANCH   1   6
TORSDOF 6
ENDMDL
MODEL      278
REMARK 921   NORMALIZED FREE ENERGY PREDICTED BY IDOCK:    1.33 KCAL/MOL
REMARK 922        TOTAL FREE ENERGY PREDICTED BY IDOCK:    0.83 KCAL/MOL
REMARK 923 INTER-LIGAND FREE ENERGY PREDICTED BY IDOCK:   -0.62 KCAL/MOL
REMARK 924 INTRA-LIGAND FREE ENERGY PREDICTED BY IDOCK:    1.45 KCAL/MOL
REMARK 927      BINDING AFFINITY PREDICTED BY RF-SCORE:    0.00 PKD
ROOT
HETATM    1  C   UNL     1      -6.780  17.412  70.275  1.00  0.00     0.965 C  
HETATM    2  C   UNL     1      -5.579  16.798  70.971  1.00  0.00     0.201 C  
HETATM    3  O   UNL     1      -5.371  19.124  71.199  1.00  0.00    -0.249 OA 
HETATM    4  C   UNL     1      -5.130  17.898  71.896  1.00  0.00     0.491 C  
HETATM    5  C   UNL     1      -6.352  18.874  70.174  1.00  0.00    -0.001 C  
ENDROOT
BRANCH   1   6
HETATM    6  O   UNL     1      -6.925  16.768  69.014  1.00  0.00    -0.196 OA 
BRANCH   6   7
HETATM    7  C   UNL     1      -6.555  15.460  68.898  1.00  0.00    -0.110 A  
HETATM    8  C   UNL     1      -5.199  13.603  68.140  1.00  0.00    -0.108 A  
HETATM    9  C   UNL     1      -5.543  14.965  68.081  1.00  0.00    -0.132 A  
HETATM   10  C   UNL     1      -5.860  12.724  69.015  1.00  0.00    -0.076 A  
HETATM   11  C   UNL     1      -7.227  14.589  69.756  1.00  0.00    -0.005 A  
HETATM   12  C   UNL     1      -6.892  13.233  69.810  1.00  0.00     0.226 A  
BRANCH  10  13
HETATM   13  C   UNL     1      -5.419  11.277  69.163  1.00  0.00    -0.040 C  
BRANCH  13  14
HETATM   14  C   UNL     1      -6.214  10.335  68.280  1.00  0.00    -0.048 A  
HETATM   15  C   UNL     1      -6.950  10.748  67.161  1.00  0.00    -0.091 A  
HETATM   16 CL   UNL     1      -6.934  12.377  66.590  1.00  0.00     0.280 Cl 
HETATM   17  C   UNL     1      -7.769   9.841  66.480  1.00  0.00    -0.105 A  
HETATM   18  C   UNL     1      -7.922   8.535  66.952  1.00  0.00    -0.095 A  
HETATM   19  C   UNL     1      -7.239   8.109  68.097  1.00  0.00    -0.094 A  
HETATM   20  C   UNL     1      -6.324   8.993  68.691  1.00  0.00    -0.053 A  
BRANCH  19  21
HETATM   21  C   UNL     1      -7.648   6.817  68.792  1.00  0.00    -0.105 C  
HETATM   22  O   UNL     1      -7.952   5.839  67.779  1.00  0.00    -0.097 OA 
HETATM   23  C   UNL     1      -8.087   4.513  68.301  1.00  0.00    -0.083 C  
HETATM   24  H   UNL     1      -9.157   7.873  71.525  1.00  0.00     0.000 HD 
HETATM   25  C   UNL     1      -9.267   4.463  69.270  1.00  0.00    -0.139 C  
HETATM   26  O   UNL     1      -8.453   7.814  70.890  1.00  0.00    -0.122 OA 
HETATM   27  C   UNL     1      -9.063   5.498  70.387  1.00  0.00    -0.139 C  
HETATM   28  O   UNL     1      -9.434   3.170  69.860  1.00  0.00    -0.161 OA 
HETATM   29  H   UNL     1     -10.077   6.132  71.943  1.00  0.00     0.000 HD 
HETATM   30  C   UNL     1      -8.795   6.913  69.826  1.00  0.00    -0.141 C  
HETATM   31  H   UNL     1     -10.168   3.139  70.463  1.00  0.00     0.000 HD 
HETATM   32  O   UNL     1     -10.204   5.492  71.253  1.00  0.00    -0.204 OA 
BRANCH  23  33
HETATM   33  C   UNL     1      -8.279   3.560  67.117  1.00  0.00    -0.091 C  
HETATM   34  O   UNL     1      -8.089   4.281  65.891  1.00  0.00    -0.098 OA 
HETATM   35  H   UNL     1      -8.208   3.690  65.156  1.00  0.00     0.000 HD 
ENDBRANCH  23  33
ENDBRANCH  19  21
ENDBRANCH  13  14
ENDBRANCH  10  13
ENDBRANCH   6   7
ENDBRANCH   1   6
TORSDOF 6
ENDMDL
MODEL      279
REMARK 921   NORMALIZED FREE ENERGY PREDICTED BY IDOCK:    1.82 KCAL/MOL
REMARK 922        TOTAL FREE ENERGY PREDICTED BY IDOCK:    1.49 KCAL/MOL
REMARK 923 INTER-LIGAND FREE ENERGY PREDICTED BY IDOCK:    1.95 KCAL/MOL
REMARK 924 INTRA-LIGAND FREE ENERGY PREDICTED BY IDOCK:   -0.46 KCAL/MOL
REMARK 927      BINDING AFFINITY PREDICTED BY RF-SCORE:    0.00 PKD
ROOT
HETATM    1  C   UNL     1      -8.745  17.796  69.593  1.00  0.00     1.004 C  
HETATM    2  C   UNL     1      -8.548  18.228  68.152  1.00  0.00    -0.290 C  
HETATM    3  O   UNL     1      -9.461  20.068  69.287  1.00  0.00    -0.096 OA 
HETATM    4  C   UNL     1      -8.531  19.730  68.253  1.00  0.00    -0.270 C  
HETATM    5  C   UNL     1      -9.651  18.907  70.118  1.00  0.00     1.272 C  
ENDROOT
BRANCH   1   6
HETATM    6  O   UNL     1      -9.361  16.512  69.579  1.00  0.00    -0.114 OA 
BRANCH   6   7
HETATM    7  C   UNL     1      -8.937  15.590  68.667  1.00  0.00    -0.194 A  
HETATM    8  C   UNL     1      -7.366  14.076  67.619  1.00  0.00    -0.188 A  
HETATM    9  C   UNL     1      -7.639  15.106  68.535  1.00  0.00    -0.120 A  
HETATM   10  C   UNL     1      -8.385  13.520  66.826  1.00  0.00     0.097 A  
HETATM   11  C   UNL     1      -9.950  15.053  67.872  1.00  0.00    -0.222 A  
HETATM   12  C   UNL     1      -9.679  14.036  66.953  1.00  0.00    -0.272 A  
BRANCH  10  13
HETATM   13  C   UNL     1      -8.117  12.333  65.915  1.00  0.00     0.966 C  
BRANCH  13  14
HETATM   14  C   UNL     1      -7.319  11.242  66.602  1.00  0.00    -0.131 A  
HETATM   15  C   UNL     1      -6.199  10.619  66.035  1.00  0.00    -0.134 A  
HETATM   16 CL   UNL     1      -5.527  11.118  64.524  1.00  0.00     0.317 Cl 
HETATM   17  C   UNL     1      -5.600   9.526  66.670  1.00  0.00    -0.046 A  
HETATM   18  C   UNL     1      -6.158   8.995  67.835  1.00  0.00    -0.051 A  
HETATM   19  C   UNL     1      -7.307   9.564  68.397  1.00  0.00    -0.076 A  
HETATM   20  C   UNL     1      -7.816  10.737  67.818  1.00  0.00    -0.109 A  
BRANCH  19  21
HETATM   21  C   UNL     1      -8.093   8.804  69.457  1.00  0.00    -0.105 C  
HETATM   22  O   UNL     1      -8.815   9.764  70.254  1.00  0.00    -0.225 OA 
HETATM   23  C   UNL     1      -9.796   9.162  71.105  1.00  0.00    -0.301 C  
HETATM   24  H   UNL     1      -6.165   6.217  70.123  1.00  0.00     0.000 HD 
HETATM   25  C   UNL     1      -9.105   8.246  72.113  1.00  0.00    -0.212 C  
HETATM   26  O   UNL     1      -6.656   6.814  69.571  1.00  0.00    -0.045 OA 
HETATM   27  C   UNL     1      -8.274   7.191  71.368  1.00  0.00    -0.107 C  
HETATM   28  O   UNL     1     -10.037   7.580  72.973  1.00  0.00    -0.231 OA 
HETATM   29  H   UNL     1      -7.062   5.726  71.857  1.00  0.00     0.000 HD 
HETATM   30  C   UNL     1      -7.295   7.831  70.357  1.00  0.00    -0.069 C  
HETATM   31  H   UNL     1      -9.607   7.010  73.600  1.00  0.00     0.000 HD 
HETATM   32  O   UNL     1      -7.576   6.378  72.319  1.00  0.00    -0.095 OA 
BRANCH  23  33
HETATM   33  C   UNL     1     -10.572  10.289  71.795  1.00  0.00     2.324 C  
HETATM   34  O   UNL     1     -11.266  11.063  70.807  1.00  0.00    -0.326 OA 
HETATM   35  H   UNL     1     -11.748  11.762  71.235  1.00  0.00     0.000 HD 
ENDBRANCH  23  33
ENDBRANCH  19  21
ENDBRANCH  13  14
ENDBRANCH  10  13
ENDBRANCH   6   7
ENDBRANCH   1   6
TORSDOF 6
ENDMDL
MODEL      280
REMARK 921   NORMALIZED FREE ENERGY PREDICTED BY IDOCK:    1.98 KCAL/MOL
REMARK 922        TOTAL FREE ENERGY PREDICTED BY IDOCK:    1.72 KCAL/MOL
REMARK 923 INTER-LIGAND FREE ENERGY PREDICTED BY IDOCK:    1.44 KCAL/MOL
REMARK 924 INTRA-LIGAND FREE ENERGY PREDICTED BY IDOCK:    0.27 KCAL/MOL
REMARK 927      BINDING AFFINITY PREDICTED BY RF-SCORE:    0.00 PKD
ROOT
HETATM    1  C   UNL     1      -8.701  16.349  65.796  1.00  0.00     0.111 C  
HETATM    2  C   UNL     1      -9.757  17.417  66.013  1.00  0.00    -0.172 C  
HETATM    3  O   UNL     1      -8.915  16.864  68.132  1.00  0.00    -0.215 OA 
HETATM    4  C   UNL     1      -9.399  17.971  67.366  1.00  0.00    -0.254 C  
HETATM    5  C   UNL     1      -8.504  15.830  67.218  1.00  0.00    -0.189 C  
ENDROOT
BRANCH   1   6
HETATM    6  O   UNL     1      -9.241  15.382  64.902  1.00  0.00     0.559 OA 
BRANCH   6   7
HETATM    7  C   UNL     1      -9.151  14.061  65.229  1.00  0.00     1.287 A  
HETATM    8  C   UNL     1      -8.216  12.109  66.313  1.00  0.00     0.270 A  
HETATM    9  C   UNL     1      -8.125  13.465  65.957  1.00  0.00     1.895 A  
HETATM   10  C   UNL     1      -9.329  11.334  65.946  1.00  0.00    -0.240 A  
HETATM   11  C   UNL     1     -10.252  13.292  64.848  1.00  0.00    -0.313 A  
HETATM   12  C   UNL     1     -10.339  11.941  65.193  1.00  0.00    -0.318 A  
BRANCH  10  13
HETATM   13  C   UNL     1      -9.483   9.899  66.421  1.00  0.00    -0.234 C  
BRANCH  13  14
HETATM   14  C   UNL     1      -9.812   9.808  67.899  1.00  0.00    -0.176 A  
HETATM   15  C   UNL     1     -10.135   8.613  68.555  1.00  0.00    -0.190 A  
HETATM   16 CL   UNL     1     -10.074   7.077  67.768  1.00  0.00    -0.188 Cl 
HETATM   17  C   UNL     1     -10.562   8.630  69.887  1.00  0.00    -0.227 A  
HETATM   18  C   UNL     1     -10.747   9.845  70.553  1.00  0.00    -0.382 A  
HETATM   19  C   UNL     1     -10.482  11.058  69.907  1.00  0.00     0.148 A  
HETATM   20  C   UNL     1      -9.931  11.014  68.616  1.00  0.00    -0.205 A  
BRANCH  19  21
HETATM   21  C   UNL     1     -10.985  12.365  70.503  1.00  0.00     1.859 C  
HETATM   22  O   UNL     1     -12.345  12.167  70.935  1.00  0.00    -0.373 OA 
HETATM   23  C   UNL     1     -12.836  13.234  71.753  1.00  0.00    -0.269 C  
HETATM   24  H   UNL     1      -9.427  14.660  68.724  1.00  0.00     0.000 HD 
HETATM   25  C   UNL     1     -12.861  14.529  70.942  1.00  0.00    -0.360 C  
HETATM   26  O   UNL     1      -9.500  13.884  69.268  1.00  0.00     0.193 OA 
HETATM   27  C   UNL     1     -11.454  14.826  70.400  1.00  0.00    -0.252 C  
HETATM   28  O   UNL     1     -13.306  15.648  71.714  1.00  0.00    -0.469 OA 
HETATM   29  H   UNL     1     -10.629  16.186  69.251  1.00  0.00     0.000 HD 
HETATM   30  C   UNL     1     -10.868  13.628  69.618  1.00  0.00     0.169 C  
HETATM   31  H   UNL     1     -13.321  16.454  71.210  1.00  0.00     0.000 HD 
HETATM   32  O   UNL     1     -11.499  16.003  69.585  1.00  0.00    -0.326 OA 
BRANCH  23  33
HETATM   33  C   UNL     1     -14.233  12.843  72.246  1.00  0.00     0.044 C  
HETATM   34  O   UNL     1     -14.297  11.419  72.411  1.00  0.00     0.261 OA 
HETATM   35  H   UNL     1     -15.163  11.176  72.717  1.00  0.00     0.000 HD 
ENDBRANCH  23  33
ENDBRANCH  19  21
ENDBRANCH  13  14
ENDBRANCH  10  13
ENDBRANCH   6   7
ENDBRANCH   1   6
TORSDOF 6
ENDMDL
MODEL      281
REMARK 921   NORMALIZED FREE ENERGY PREDICTED BY IDOCK:    3.10 KCAL/MOL
REMARK 922        TOTAL FREE ENERGY PREDICTED BY IDOCK:    3.22 KCAL/MOL
REMARK 923 INTER-LIGAND FREE ENERGY PREDICTED BY IDOCK:    2.39 KCAL/MOL
REMARK 924 INTRA-LIGAND FREE ENERGY PREDICTED BY IDOCK:    0.83 KCAL/MOL
REMARK 927      BINDING AFFINITY PREDICTED BY RF-SCORE:    0.00 PKD
ROOT
HETATM    1  C   UNL     1     -13.160  13.374  64.341  1.00  0.00     0.486 C  
HETATM    2  C   UNL     1     -12.723  13.919  65.688  1.00  0.00    -0.534 C  
HETATM    3  O   UNL     1     -12.002  15.461  64.072  1.00  0.00    -0.512 OA 
HETATM    4  C   UNL     1     -12.518  15.383  65.405  1.00  0.00     0.735 C  
HETATM    5  C   UNL     1     -12.342  14.240  63.387  1.00  0.00     0.510 C  
ENDROOT
BRANCH   1   6
HETATM    6  O   UNL     1     -12.816  11.993  64.301  1.00  0.00    -0.496 OA 
BRANCH   6   7
HETATM    7  C   UNL     1     -12.194  11.439  65.382  1.00  0.00     1.375 A  
HETATM    8  C   UNL     1     -10.504  10.154  66.543  1.00  0.00    -0.236 A  
HETATM    9  C   UNL     1     -11.113  10.565  65.345  1.00  0.00     0.461 A  
HETATM   10  C   UNL     1     -10.968  10.612  67.788  1.00  0.00    -0.364 A  
HETATM   11  C   UNL     1     -12.670  11.885  66.616  1.00  0.00     2.708 A  
HETATM   12  C   UNL     1     -12.072  11.470  67.809  1.00  0.00     0.113 A  
BRANCH  10  13
HETATM   13  C   UNL     1     -10.246  10.259  69.078  1.00  0.00    -0.225 C  
BRANCH  13  14
HETATM   14  C   UNL     1      -8.897  10.942  69.194  1.00  0.00    -0.050 A  
HETATM   15  C   UNL     1      -7.843  10.461  69.983  1.00  0.00     0.062 A  
HETATM   16 CL   UNL     1      -7.927   8.955  70.823  1.00  0.00    -0.128 Cl 
HETATM   17  C   UNL     1      -6.679  11.219  70.148  1.00  0.00     0.091 A  
HETATM   18  C   UNL     1      -6.586  12.498  69.593  1.00  0.00     0.002 A  
HETATM   19  C   UNL     1      -7.643  13.027  68.843  1.00  0.00     0.047 A  
HETATM   20  C   UNL     1      -8.748  12.200  68.581  1.00  0.00     0.005 A  
BRANCH  19  21
HETATM   21  C   UNL     1      -7.680  14.515  68.521  1.00  0.00    -0.129 C  
HETATM   22  O   UNL     1      -7.113  15.229  69.637  1.00  0.00    -0.179 OA 
HETATM   23  C   UNL     1      -6.846  16.605  69.345  1.00  0.00    -0.218 C  
HETATM   24  H   UNL     1     -10.416  14.831  66.712  1.00  0.00     0.000 HD 
HETATM   25  C   UNL     1      -8.157  17.326  69.035  1.00  0.00    -0.102 C  
HETATM   26  O   UNL     1      -9.573  14.465  66.955  1.00  0.00    -0.237 OA 
HETATM   27  C   UNL     1      -8.869  16.623  67.869  1.00  0.00    -0.205 C  
HETATM   28  O   UNL     1      -7.955  18.701  68.695  1.00  0.00    -0.325 OA 
HETATM   29  H   UNL     1     -10.568  16.829  66.907  1.00  0.00     0.000 HD 
HETATM   30  C   UNL     1      -9.053  15.110  68.126  1.00  0.00    -0.176 C  
HETATM   31  H   UNL     1      -8.771  19.150  68.502  1.00  0.00     0.000 HD 
HETATM   32  O   UNL     1     -10.128  17.263  67.628  1.00  0.00    -0.289 OA 
BRANCH  23  33
HETATM   33  C   UNL     1      -6.134  17.211  70.559  1.00  0.00     0.414 C  
HETATM   34  O   UNL     1      -5.332  18.323  70.133  1.00  0.00    -0.212 OA 
HETATM   35  H   UNL     1      -4.891  18.699  70.885  1.00  0.00     0.000 HD 
ENDBRANCH  23  33
ENDBRANCH  19  21
ENDBRANCH  13  14
ENDBRANCH  10  13
ENDBRANCH   6   7
ENDBRANCH   1   6
TORSDOF 6
ENDMDL
MODEL      282
REMARK 921   NORMALIZED FREE ENERGY PREDICTED BY IDOCK:    4.67 KCAL/MOL
REMARK 922        TOTAL FREE ENERGY PREDICTED BY IDOCK:    5.34 KCAL/MOL
REMARK 923 INTER-LIGAND FREE ENERGY PREDICTED BY IDOCK:    4.66 KCAL/MOL
REMARK 924 INTRA-LIGAND FREE ENERGY PREDICTED BY IDOCK:    0.68 KCAL/MOL
REMARK 927      BINDING AFFINITY PREDICTED BY RF-SCORE:    0.00 PKD
ROOT
HETATM    1  C   UNL     1      -9.876   4.570  70.520  1.00  0.00    -0.227 C  
HETATM    2  C   UNL     1      -9.567   5.516  69.374  1.00  0.00    -0.196 C  
HETATM    3  O   UNL     1      -8.001   3.773  69.247  1.00  0.00    -0.055 OA 
HETATM    4  C   UNL     1      -8.780   4.649  68.427  1.00  0.00    -0.099 C  
HETATM    5  C   UNL     1      -8.612   3.714  70.550  1.00  0.00    -0.070 C  
ENDROOT
BRANCH   1   6
HETATM    6  O   UNL     1     -10.065   5.357  71.691  1.00  0.00    -0.188 OA 
BRANCH   6   7
HETATM    7  C   UNL     1     -10.351   6.683  71.553  1.00  0.00    -0.209 A  
HETATM    8  C   UNL     1     -11.108   8.675  70.404  1.00  0.00    -0.250 A  
HETATM    9  C   UNL     1     -10.741   7.318  70.378  1.00  0.00    -0.253 A  
HETATM   10  C   UNL     1     -11.089   9.410  71.602  1.00  0.00    -0.409 A  
HETATM   11  C   UNL     1     -10.315   7.411  72.742  1.00  0.00    -0.306 A  
HETATM   12  C   UNL     1     -10.670   8.763  72.769  1.00  0.00     0.330 A  
BRANCH  10  13
HETATM   13  C   UNL     1     -11.589  10.844  71.656  1.00  0.00     1.090 C  
BRANCH  13  14
HETATM   14  C   UNL     1     -11.466  11.552  70.320  1.00  0.00    -0.192 A  
HETATM   15  C   UNL     1     -12.327  11.330  69.237  1.00  0.00    -0.104 A  
HETATM   16 CL   UNL     1     -13.711  10.303  69.347  1.00  0.00     2.473 Cl 
HETATM   17  C   UNL     1     -12.066  11.917  67.994  1.00  0.00    -0.010 A  
HETATM   18  C   UNL     1     -10.903  12.667  67.798  1.00  0.00    -0.248 A  
HETATM   19  C   UNL     1      -9.998  12.863  68.848  1.00  0.00     0.091 A  
HETATM   20  C   UNL     1     -10.342  12.375  70.119  1.00  0.00     2.196 A  
BRANCH  19  21
HETATM   21  C   UNL     1      -8.598  13.387  68.560  1.00  0.00    -0.074 C  
HETATM   22  O   UNL     1      -8.686  14.810  68.351  1.00  0.00    -0.156 OA 
HETATM   23  C   UNL     1      -7.408  15.456  68.340  1.00  0.00    -0.114 C  
HETATM   24  H   UNL     1      -7.169  10.891  66.953  1.00  0.00     0.000 HD 
HETATM   25  C   UNL     1      -6.581  14.932  67.167  1.00  0.00     0.384 C  
HETATM   26  O   UNL     1      -7.646  11.307  67.661  1.00  0.00    -0.099 OA 
HETATM   27  C   UNL     1      -6.447  13.405  67.271  1.00  0.00     0.188 C  
HETATM   28  O   UNL     1      -5.273  15.511  67.121  1.00  0.00    -0.320 OA 
HETATM   29  H   UNL     1      -5.646  11.970  66.198  1.00  0.00     0.000 HD 
HETATM   30  C   UNL     1      -7.821  12.709  67.407  1.00  0.00    -0.175 C  
HETATM   31  H   UNL     1      -4.758  15.184  66.391  1.00  0.00     0.000 HD 
HETATM   32  O   UNL     1      -5.729  12.914  66.134  1.00  0.00     1.751 OA 
BRANCH  23  33
HETATM   33  C   UNL     1      -7.648  16.966  68.240  1.00  0.00    -0.202 C  
HETATM   34  O   UNL     1      -8.393  17.406  69.384  1.00  0.00     0.109 OA 
HETATM   35  H   UNL     1      -8.541  18.343  69.322  1.00  0.00     0.000 HD 
ENDBRANCH  23  33
ENDBRANCH  19  21
ENDBRANCH  13  14
ENDBRANCH  10  13
ENDBRANCH   6   7
ENDBRANCH   1   6
TORSDOF 6
ENDMDL
MODEL      283
REMARK 921   NORMALIZED FREE ENERGY PREDICTED BY IDOCK:    7.84 KCAL/MOL
REMARK 922        TOTAL FREE ENERGY PREDICTED BY IDOCK:    9.62 KCAL/MOL
REMARK 923 INTER-LIGAND FREE ENERGY PREDICTED BY IDOCK:    9.92 KCAL/MOL
REMARK 924 INTRA-LIGAND FREE ENERGY PREDICTED BY IDOCK:   -0.30 KCAL/MOL
REMARK 927      BINDING AFFINITY PREDICTED BY RF-SCORE:    0.00 PKD
ROOT
HETATM    1  C   UNL     1     -13.311   7.675  70.320  1.00  0.00     1.525 C  
HETATM    2  C   UNL     1     -12.018   7.656  71.116  1.00  0.00    -0.319 C  
HETATM    3  O   UNL     1     -13.766   7.810  72.674  1.00  0.00     0.220 OA 
HETATM    4  C   UNL     1     -12.475   7.223  72.483  1.00  0.00     0.169 C  
HETATM    5  C   UNL     1     -14.309   8.134  71.380  1.00  0.00    -0.365 C  
ENDROOT
BRANCH   1   6
HETATM    6  O   UNL     1     -13.144   8.599  69.249  1.00  0.00     4.061 OA 
BRANCH   6   7
HETATM    7  C   UNL     1     -11.907   8.747  68.695  1.00  0.00     1.971 A  
HETATM    8  C   UNL     1     -10.222   8.570  66.965  1.00  0.00    -0.371 A  
HETATM    9  C   UNL     1     -11.498   8.251  67.460  1.00  0.00     1.478 A  
HETATM   10  C   UNL     1      -9.343   9.387  67.697  1.00  0.00    -0.146 A  
HETATM   11  C   UNL     1     -11.032   9.545  69.433  1.00  0.00    -0.192 A  
HETATM   12  C   UNL     1      -9.759   9.856  68.947  1.00  0.00    -0.176 A  
BRANCH  10  13
HETATM   13  C   UNL     1      -8.007   9.825  67.118  1.00  0.00    -0.102 C  
BRANCH  13  14
HETATM   14  C   UNL     1      -7.260  10.774  68.036  1.00  0.00    -0.086 A  
HETATM   15  C   UNL     1      -6.635  10.379  69.226  1.00  0.00    -0.056 A  
HETATM   16 CL   UNL     1      -6.543   8.727  69.721  1.00  0.00    -0.041 Cl 
HETATM   17  C   UNL     1      -6.086  11.334  70.088  1.00  0.00    -0.149 A  
HETATM   18  C   UNL     1      -6.225  12.697  69.810  1.00  0.00    -0.111 A  
HETATM   19  C   UNL     1      -6.889  13.123  68.655  1.00  0.00    -0.099 A  
HETATM   20  C   UNL     1      -7.318  12.148  67.739  1.00  0.00    -0.114 A  
BRANCH  19  21
HETATM   21  C   UNL     1      -7.323  14.576  68.517  1.00  0.00    -0.120 C  
HETATM   22  O   UNL     1      -6.194  15.340  68.049  1.00  0.00    -0.120 OA 
HETATM   23  C   UNL     1      -6.547  16.660  67.625  1.00  0.00    -0.149 C  
HETATM   24  H   UNL     1      -9.527  14.941  70.940  1.00  0.00     0.000 HD 
HETATM   25  C   UNL     1      -7.096  17.449  68.813  1.00  0.00    -0.246 C  
HETATM   26  O   UNL     1      -9.138  14.535  70.174  1.00  0.00     0.734 OA 
HETATM   27  C   UNL     1      -8.297  16.705  69.416  1.00  0.00     0.137 C  
HETATM   28  O   UNL     1      -7.506  18.771  68.447  1.00  0.00    -0.276 OA 
HETATM   29  H   UNL     1      -9.506  16.954  70.942  1.00  0.00     0.000 HD 
HETATM   30  C   UNL     1      -7.956  15.238  69.765  1.00  0.00    -0.039 C  
HETATM   31  H   UNL     1      -7.847  19.261  69.186  1.00  0.00     0.000 HD 
HETATM   32  O   UNL     1      -8.764  17.415  70.569  1.00  0.00     3.226 OA 
BRANCH  23  33
HETATM   33  C   UNL     1      -5.292  17.314  67.036  1.00  0.00    -0.152 C  
HETATM   34  O   UNL     1      -5.655  18.084  65.880  1.00  0.00    -0.171 OA 
HETATM   35  H   UNL     1      -4.877  18.489  65.515  1.00  0.00     0.000 HD 
ENDBRANCH  23  33
ENDBRANCH  19  21
ENDBRANCH  13  14
ENDBRANCH  10  13
ENDBRANCH   6   7
ENDBRANCH   1   6
TORSDOF 6
ENDMDL
MODEL      284
REMARK 921   NORMALIZED FREE ENERGY PREDICTED BY IDOCK:    8.34 KCAL/MOL
REMARK 922        TOTAL FREE ENERGY PREDICTED BY IDOCK:   10.31 KCAL/MOL
REMARK 923 INTER-LIGAND FREE ENERGY PREDICTED BY IDOCK:    8.46 KCAL/MOL
REMARK 924 INTRA-LIGAND FREE ENERGY PREDICTED BY IDOCK:    1.84 KCAL/MOL
REMARK 927      BINDING AFFINITY PREDICTED BY RF-SCORE:    0.00 PKD
ROOT
HETATM    1  C   UNL     1      -7.036  17.367  70.503  1.00  0.00     2.351 C  
HETATM    2  C   UNL     1      -6.108  16.557  71.390  1.00  0.00     1.566 C  
HETATM    3  O   UNL     1      -5.837  18.805  72.007  1.00  0.00     0.090 OA 
HETATM    4  C   UNL     1      -5.865  17.483  72.553  1.00  0.00     2.520 C  
HETATM    5  C   UNL     1      -6.514  18.782  70.736  1.00  0.00     0.826 C  
ENDROOT
BRANCH   1   6
HETATM    6  O   UNL     1      -6.869  16.905  69.167  1.00  0.00    -0.219 OA 
BRANCH   6   7
HETATM    7  C   UNL     1      -6.632  15.579  68.955  1.00  0.00    -0.113 A  
HETATM    8  C   UNL     1      -5.301  13.625  68.433  1.00  0.00    -0.098 A  
HETATM    9  C   UNL     1      -5.438  15.022  68.505  1.00  0.00    -0.100 A  
HETATM   10  C   UNL     1      -6.353  12.771  68.807  1.00  0.00    -0.080 A  
HETATM   11  C   UNL     1      -7.685  14.737  69.313  1.00  0.00    -0.129 A  
HETATM   12  C   UNL     1      -7.554  13.348  69.232  1.00  0.00     0.318 A  
BRANCH  10  13
HETATM   13  C   UNL     1      -6.173  11.263  68.835  1.00  0.00    -0.052 C  
BRANCH  13  14
HETATM   14  C   UNL     1      -6.483  10.617  67.498  1.00  0.00    -0.058 A  
HETATM   15  C   UNL     1      -6.566  11.322  66.291  1.00  0.00    -0.018 A  
HETATM   16 CL   UNL     1      -6.202  13.006  66.173  1.00  0.00     3.188 Cl 
HETATM   17  C   UNL     1      -6.994  10.679  65.124  1.00  0.00     0.061 A  
HETATM   18  C   UNL     1      -7.416   9.348  65.166  1.00  0.00    -0.105 A  
HETATM   19  C   UNL     1      -7.392   8.632  66.369  1.00  0.00    -0.080 A  
HETATM   20  C   UNL     1      -6.839   9.255  67.500  1.00  0.00    -0.077 A  
BRANCH  19  21
HETATM   21  C   UNL     1      -8.145   7.314  66.486  1.00  0.00    -0.114 C  
HETATM   22  O   UNL     1      -7.879   6.538  65.301  1.00  0.00    -0.095 OA 
HETATM   23  C   UNL     1      -8.308   5.177  65.414  1.00  0.00    -0.132 C  
HETATM   24  H   UNL     1     -10.862   8.139  68.157  1.00  0.00     0.000 HD 
HETATM   25  C   UNL     1      -9.826   5.133  65.586  1.00  0.00    -0.033 C  
HETATM   26  O   UNL     1      -9.928   8.087  67.990  1.00  0.00    -0.165 OA 
HETATM   27  C   UNL     1     -10.230   5.961  66.815  1.00  0.00    -0.219 C  
HETATM   28  O   UNL     1     -10.318   3.798  65.744  1.00  0.00    -0.419 OA 
HETATM   29  H   UNL     1     -11.907   6.483  67.691  1.00  0.00     0.000 HD 
HETATM   30  C   UNL     1      -9.665   7.399  66.758  1.00  0.00    -0.207 C  
HETATM   31  H   UNL     1     -11.262   3.770  65.851  1.00  0.00     0.000 HD 
HETATM   32  O   UNL     1     -11.658   5.971  66.931  1.00  0.00     0.231 OA 
BRANCH  23  33
HETATM   33  C   UNL     1      -7.855   4.437  64.150  1.00  0.00    -0.085 C  
HETATM   34  O   UNL     1      -8.892   3.540  63.728  1.00  0.00    -0.093 OA 
HETATM   35  H   UNL     1      -8.612   3.081  62.945  1.00  0.00     0.000 HD 
ENDBRANCH  23  33
ENDBRANCH  19  21
ENDBRANCH  13  14
ENDBRANCH  10  13
ENDBRANCH   6   7
ENDBRANCH   1   6
TORSDOF 6
ENDMDL
MODEL      285
REMARK 921   NORMALIZED FREE ENERGY PREDICTED BY IDOCK:    8.43 KCAL/MOL
REMARK 922        TOTAL FREE ENERGY PREDICTED BY IDOCK:   10.42 KCAL/MOL
REMARK 923 INTER-LIGAND FREE ENERGY PREDICTED BY IDOCK:   11.25 KCAL/MOL
REMARK 924 INTRA-LIGAND FREE ENERGY PREDICTED BY IDOCK:   -0.83 KCAL/MOL
REMARK 927      BINDING AFFINITY PREDICTED BY RF-SCORE:    0.00 PKD
ROOT
HETATM    1  C   UNL     1      -8.968   4.564  67.113  1.00  0.00    -0.116 C  
HETATM    2  C   UNL     1      -8.570   4.133  68.513  1.00  0.00    -0.112 C  
HETATM    3  O   UNL     1      -8.166   2.300  67.105  1.00  0.00    -0.073 OA 
HETATM    4  C   UNL     1      -7.646   2.973  68.255  1.00  0.00    -0.052 C  
HETATM    5  C   UNL     1      -9.009   3.221  66.387  1.00  0.00    -0.151 C  
ENDROOT
BRANCH   1   6
HETATM    6  O   UNL     1     -10.235   5.207  67.202  1.00  0.00    -0.196 OA 
BRANCH   6   7
HETATM    7  C   UNL     1     -10.337   6.514  66.827  1.00  0.00    -0.210 A  
HETATM    8  C   UNL     1     -10.719   8.354  65.301  1.00  0.00     4.450 A  
HETATM    9  C   UNL     1     -10.525   6.981  65.529  1.00  0.00     2.630 A  
HETATM   10  C   UNL     1     -10.728   9.273  66.364  1.00  0.00     0.119 A  
HETATM   11  C   UNL     1     -10.328   7.424  67.885  1.00  0.00    -0.258 A  
HETATM   12  C   UNL     1     -10.512   8.791  67.658  1.00  0.00    -0.310 A  
BRANCH  10  13
HETATM   13  C   UNL     1     -11.046  10.742  66.134  1.00  0.00     0.066 C  
BRANCH  13  14
HETATM   14  C   UNL     1     -11.018  11.549  67.418  1.00  0.00    -0.317 A  
HETATM   15  C   UNL     1     -12.118  11.691  68.275  1.00  0.00     0.003 A  
HETATM   16 CL   UNL     1     -13.606  10.852  68.020  1.00  0.00     8.189 Cl 
HETATM   17  C   UNL     1     -12.057  12.564  69.366  1.00  0.00    -0.237 A  
HETATM   18  C   UNL     1     -10.928  13.361  69.569  1.00  0.00    -0.006 A  
HETATM   19  C   UNL     1      -9.833  13.279  68.700  1.00  0.00    -0.096 A  
HETATM   20  C   UNL     1      -9.863  12.305  67.688  1.00  0.00    -0.196 A  
BRANCH  19  21
HETATM   21  C   UNL     1      -8.760  14.359  68.721  1.00  0.00    -0.129 C  
HETATM   22  O   UNL     1      -9.407  15.638  68.579  1.00  0.00    -0.187 OA 
HETATM   23  C   UNL     1      -8.538  16.741  68.854  1.00  0.00    -0.218 C  
HETATM   24  H   UNL     1      -6.180  12.892  67.289  1.00  0.00     0.000 HD 
HETATM   25  C   UNL     1      -7.396  16.757  67.839  1.00  0.00    -0.159 C  
HETATM   26  O   UNL     1      -6.892  12.982  67.912  1.00  0.00    -0.097 OA 
HETATM   27  C   UNL     1      -6.647  15.417  67.883  1.00  0.00    -0.153 C  
HETATM   28  O   UNL     1      -6.465  17.817  68.083  1.00  0.00    -0.176 OA 
HETATM   29  H   UNL     1      -5.160  14.585  66.909  1.00  0.00     0.000 HD 
HETATM   30  C   UNL     1      -7.601  14.213  67.707  1.00  0.00    -0.166 C  
HETATM   31  H   UNL     1      -5.754  17.827  67.451  1.00  0.00     0.000 HD 
HETATM   32  O   UNL     1      -5.622  15.414  66.882  1.00  0.00    -0.011 OA 
BRANCH  23  33
HETATM   33  C   UNL     1      -9.374  18.024  68.794  1.00  0.00    -0.241 C  
HETATM   34  O   UNL     1     -10.574  17.845  69.559  1.00  0.00    -0.340 OA 
HETATM   35  H   UNL     1     -11.093  18.641  69.522  1.00  0.00     0.000 HD 
ENDBRANCH  23  33
ENDBRANCH  19  21
ENDBRANCH  13  14
ENDBRANCH  10  13
ENDBRANCH   6   7
ENDBRANCH   1   6
TORSDOF 6
ENDMDL
MODEL      286
REMARK 921   NORMALIZED FREE ENERGY PREDICTED BY IDOCK:    8.49 KCAL/MOL
REMARK 922        TOTAL FREE ENERGY PREDICTED BY IDOCK:   10.50 KCAL/MOL
REMARK 923 INTER-LIGAND FREE ENERGY PREDICTED BY IDOCK:   10.22 KCAL/MOL
REMARK 924 INTRA-LIGAND FREE ENERGY PREDICTED BY IDOCK:    0.28 KCAL/MOL
REMARK 927      BINDING AFFINITY PREDICTED BY RF-SCORE:    0.00 PKD
ROOT
HETATM    1  C   UNL     1      -9.773   8.537  71.849  1.00  0.00    -0.287 C  
HETATM    2  C   UNL     1      -8.454   7.795  71.731  1.00  0.00    -0.134 C  
HETATM    3  O   UNL     1      -8.405   8.932  73.783  1.00  0.00    -0.243 OA 
HETATM    4  C   UNL     1      -7.988   7.713  73.160  1.00  0.00    -0.117 C  
HETATM    5  C   UNL     1      -9.477   9.493  73.002  1.00  0.00     3.803 C  
ENDROOT
BRANCH   1   6
HETATM    6  O   UNL     1     -10.013   9.191  70.608  1.00  0.00    -0.208 OA 
BRANCH   6   7
HETATM    7  C   UNL     1     -10.796  10.308  70.594  1.00  0.00    -0.140 A  
HETATM    8  C   UNL     1     -11.675  12.404  71.427  1.00  0.00     1.572 A  
HETATM    9  C   UNL     1     -10.909  11.242  71.620  1.00  0.00     4.746 A  
HETATM   10  C   UNL     1     -12.335  12.646  70.210  1.00  0.00    -0.269 A  
HETATM   11  C   UNL     1     -11.463  10.534  69.389  1.00  0.00    -0.329 A  
HETATM   12  C   UNL     1     -12.232  11.685  69.199  1.00  0.00    -0.201 A  
BRANCH  10  13
HETATM   13  C   UNL     1     -13.072  13.951  69.958  1.00  0.00     0.448 C  
BRANCH  13  14
HETATM   14  C   UNL     1     -12.339  15.151  70.525  1.00  0.00    -0.408 A  
HETATM   15  C   UNL     1     -12.792  15.895  71.623  1.00  0.00    -0.363 A  
HETATM   16 CL   UNL     1     -14.188  15.447  72.535  1.00  0.00    -0.579 Cl 
HETATM   17  C   UNL     1     -12.134  17.071  72.000  1.00  0.00     1.276 A  
HETATM   18  C   UNL     1     -11.068  17.558  71.240  1.00  0.00     1.873 A  
HETATM   19  C   UNL     1     -10.626  16.863  70.108  1.00  0.00     0.179 A  
HETATM   20  C   UNL     1     -11.214  15.621  69.821  1.00  0.00    -0.322 A  
BRANCH  19  21
HETATM   21  C   UNL     1      -9.701  17.545  69.108  1.00  0.00    -0.105 C  
HETATM   22  O   UNL     1      -8.817  16.547  68.561  1.00  0.00    -0.209 OA 
HETATM   23  C   UNL     1      -8.088  17.008  67.420  1.00  0.00    -0.176 C  
HETATM   24  H   UNL     1      -9.296  20.557  70.381  1.00  0.00     0.000 HD 
HETATM   25  C   UNL     1      -7.178  18.166  67.829  1.00  0.00    -0.213 C  
HETATM   26  O   UNL     1      -9.786  19.805  70.069  1.00  0.00     0.032 OA 
HETATM   27  C   UNL     1      -8.019  19.286  68.458  1.00  0.00    -0.361 C  
HETATM   28  O   UNL     1      -6.446  18.701  66.721  1.00  0.00    -0.180 OA 
HETATM   29  H   UNL     1      -7.673  21.031  69.289  1.00  0.00     0.000 HD 
HETATM   30  C   UNL     1      -8.903  18.769  69.616  1.00  0.00     0.721 C  
HETATM   31  H   UNL     1      -5.880  19.421  66.975  1.00  0.00     0.000 HD 
HETATM   32  O   UNL     1      -7.153  20.338  68.900  1.00  0.00    -0.200 OA 
BRANCH  23  33
HETATM   33  C   UNL     1      -7.290  15.824  66.864  1.00  0.00    -0.139 C  
HETATM   34  O   UNL     1      -7.975  15.282  65.725  1.00  0.00     0.751 OA 
HETATM   35  H   UNL     1      -7.480  14.548  65.380  1.00  0.00     0.000 HD 
ENDBRANCH  23  33
ENDBRANCH  19  21
ENDBRANCH  13  14
ENDBRANCH  10  13
ENDBRANCH   6   7
ENDBRANCH   1   6
TORSDOF 6
ENDMDL
MODEL      287
REMARK 921   NORMALIZED FREE ENERGY PREDICTED BY IDOCK:    8.79 KCAL/MOL
REMARK 922        TOTAL FREE ENERGY PREDICTED BY IDOCK:   10.91 KCAL/MOL
REMARK 923 INTER-LIGAND FREE ENERGY PREDICTED BY IDOCK:   10.64 KCAL/MOL
REMARK 924 INTRA-LIGAND FREE ENERGY PREDICTED BY IDOCK:    0.27 KCAL/MOL
REMARK 927      BINDING AFFINITY PREDICTED BY RF-SCORE:    0.00 PKD
ROOT
HETATM    1  C   UNL     1     -12.002  15.700  71.620  1.00  0.00    -0.430 C  
HETATM    2  C   UNL     1     -12.209  17.074  72.231  1.00  0.00     1.257 C  
HETATM    3  O   UNL     1     -14.151  16.581  71.010  1.00  0.00     2.391 OA 
HETATM    4  C   UNL     1     -13.706  17.228  72.206  1.00  0.00     7.161 C  
HETATM    5  C   UNL     1     -13.129  15.657  70.592  1.00  0.00    -0.204 C  
ENDROOT
BRANCH   1   6
HETATM    6  O   UNL     1     -10.699  15.674  71.045  1.00  0.00    -0.234 OA 
BRANCH   6   7
HETATM    7  C   UNL     1     -10.526  15.067  69.837  1.00  0.00    -0.154 A  
HETATM    8  C   UNL     1     -11.037  14.548  67.528  1.00  0.00    -0.316 A  
HETATM    9  C   UNL     1     -11.395  15.139  68.752  1.00  0.00    -0.313 A  
HETATM   10  C   UNL     1      -9.810  13.880  67.375  1.00  0.00    -0.237 A  
HETATM   11  C   UNL     1      -9.313  14.391  69.696  1.00  0.00     0.544 A  
HETATM   12  C   UNL     1      -8.960  13.795  68.482  1.00  0.00    -0.120 A  
BRANCH  10  13
HETATM   13  C   UNL     1      -9.371  13.336  66.026  1.00  0.00    -0.016 C  
BRANCH  13  14
HETATM   14  C   UNL     1      -9.405  11.820  65.972  1.00  0.00    -0.231 A  
HETATM   15  C   UNL     1     -10.301  11.087  65.182  1.00  0.00    -0.283 A  
HETATM   16 CL   UNL     1     -11.395  11.840  64.079  1.00  0.00    -0.453 Cl 
HETATM   17  C   UNL     1     -10.365   9.694  65.292  1.00  0.00     0.410 A  
HETATM   18  C   UNL     1      -9.592   9.026  66.246  1.00  0.00    -0.327 A  
HETATM   19  C   UNL     1      -8.725   9.737  67.084  1.00  0.00    -0.137 A  
HETATM   20  C   UNL     1      -8.581  11.117  66.871  1.00  0.00    -0.148 A  
BRANCH  19  21
HETATM   21  C   UNL     1      -8.141   9.067  68.321  1.00  0.00    -0.109 C  
HETATM   22  O   UNL     1      -7.798  10.096  69.269  1.00  0.00    -0.108 OA 
HETATM   23  C   UNL     1      -7.493   9.582  70.569  1.00  0.00    -0.148 C  
HETATM   24  H   UNL     1      -6.590   6.432  67.093  1.00  0.00     0.000 HD 
HETATM   25  C   UNL     1      -6.257   8.687  70.488  1.00  0.00    -0.036 C  
HETATM   26  O   UNL     1      -7.320   7.023  67.230  1.00  0.00    -0.086 OA 
HETATM   27  C   UNL     1      -6.501   7.560  69.473  1.00  0.00    -0.036 C  
HETATM   28  O   UNL     1      -5.920   8.107  71.753  1.00  0.00    -0.035 OA 
HETATM   29  H   UNL     1      -5.467   6.069  68.724  1.00  0.00     0.000 HD 
HETATM   30  C   UNL     1      -6.950   8.105  68.097  1.00  0.00    -0.077 C  
HETATM   31  H   UNL     1      -5.151   7.550  71.702  1.00  0.00     0.000 HD 
HETATM   32  O   UNL     1      -5.316   6.766  69.352  1.00  0.00    -0.013 OA 
BRANCH  23  33
HETATM   33  C   UNL     1      -7.273  10.775  71.505  1.00  0.00     3.598 C  
HETATM   34  O   UNL     1      -6.179  11.566  71.017  1.00  0.00    -0.472 OA 
HETATM   35  H   UNL     1      -6.042  12.306  71.597  1.00  0.00     0.000 HD 
ENDBRANCH  23  33
ENDBRANCH  19  21
ENDBRANCH  13  14
ENDBRANCH  10  13
ENDBRANCH   6   7
ENDBRANCH   1   6
TORSDOF 6
ENDMDL
MODEL      288
REMARK 921   NORMALIZED FREE ENERGY PREDICTED BY IDOCK:    9.27 KCAL/MOL
REMARK 922        TOTAL FREE ENERGY PREDICTED BY IDOCK:   11.56 KCAL/MOL
REMARK 923 INTER-LIGAND FREE ENERGY PREDICTED BY IDOCK:   10.38 KCAL/MOL
REMARK 924 INTRA-LIGAND FREE ENERGY PREDICTED BY IDOCK:    1.18 KCAL/MOL
REMARK 927      BINDING AFFINITY PREDICTED BY RF-SCORE:    0.00 PKD
ROOT
HETATM    1  C   UNL     1      -9.966  16.747  71.699  1.00  0.00     5.034 C  
HETATM    2  C   UNL     1     -10.587  18.025  72.233  1.00  0.00     3.836 C  
HETATM    3  O   UNL     1     -12.203  16.341  72.472  1.00  0.00    -0.493 OA 
HETATM    4  C   UNL     1     -11.696  17.515  73.114  1.00  0.00     1.198 C  
HETATM    5  C   UNL     1     -11.194  15.849  71.571  1.00  0.00    -0.180 C  
ENDROOT
BRANCH   1   6
HETATM    6  O   UNL     1      -9.348  17.055  70.454  1.00  0.00     1.866 OA 
BRANCH   6   7
HETATM    7  C   UNL     1      -8.591  16.100  69.842  1.00  0.00     0.666 A  
HETATM    8  C   UNL     1      -7.835  13.852  69.356  1.00  0.00     0.371 A  
HETATM    9  C   UNL     1      -8.589  14.741  70.141  1.00  0.00     0.846 A  
HETATM   10  C   UNL     1      -7.077  14.310  68.264  1.00  0.00    -0.111 A  
HETATM   11  C   UNL     1      -7.828  16.563  68.769  1.00  0.00    -0.235 A  
HETATM   12  C   UNL     1      -7.070  15.682  67.993  1.00  0.00    -0.133 A  
BRANCH  10  13
HETATM   13  C   UNL     1      -6.349  13.342  67.347  1.00  0.00    -0.027 C  
BRANCH  13  14
HETATM   14  C   UNL     1      -6.760  11.901  67.581  1.00  0.00    -0.105 A  
HETATM   15  C   UNL     1      -6.392  10.839  66.744  1.00  0.00    -0.088 A  
HETATM   16 CL   UNL     1      -5.319  11.041  65.406  1.00  0.00    -0.108 Cl 
HETATM   17  C   UNL     1      -6.925   9.561  66.947  1.00  0.00    -0.081 A  
HETATM   18  C   UNL     1      -7.887   9.347  67.937  1.00  0.00    -0.091 A  
HETATM   19  C   UNL     1      -8.312  10.400  68.755  1.00  0.00    -0.134 A  
HETATM   20  C   UNL     1      -7.672  11.643  68.621  1.00  0.00    -0.134 A  
BRANCH  19  21
HETATM   21  C   UNL     1      -9.573  10.251  69.596  1.00  0.00    -0.162 C  
HETATM   22  O   UNL     1      -9.847   8.845  69.749  1.00  0.00    -0.173 OA 
HETATM   23  C   UNL     1     -10.845   8.572  70.738  1.00  0.00    -0.231 C  
HETATM   24  H   UNL     1     -11.362  12.886  68.752  1.00  0.00     0.000 HD 
HETATM   25  C   UNL     1     -12.173   9.192  70.309  1.00  0.00     0.338 C  
HETATM   26  O   UNL     1     -10.590  12.421  69.051  1.00  0.00    -0.165 OA 
HETATM   27  C   UNL     1     -11.990  10.701  70.085  1.00  0.00    -0.334 C  
HETATM   28  O   UNL     1     -13.208   8.988  71.276  1.00  0.00    -0.465 OA 
HETATM   29  H   UNL     1     -13.108  12.196  69.480  1.00  0.00     0.000 HD 
HETATM   30  C   UNL     1     -10.831  11.007  69.109  1.00  0.00    -0.237 C  
HETATM   31  H   UNL     1     -14.035   9.375  71.009  1.00  0.00     0.000 HD 
HETATM   32  O   UNL     1     -13.222  11.264  69.618  1.00  0.00     0.341 OA 
BRANCH  23  33
HETATM   33  C   UNL     1     -10.948   7.050  70.892  1.00  0.00    -0.253 C  
HETATM   34  O   UNL     1      -9.674   6.456  70.604  1.00  0.00    -0.177 OA 
HETATM   35  H   UNL     1      -9.738   5.513  70.699  1.00  0.00     0.000 HD 
ENDBRANCH  23  33
ENDBRANCH  19  21
ENDBRANCH  13  14
ENDBRANCH  10  13
ENDBRANCH   6   7
ENDBRANCH   1   6
TORSDOF 6
ENDMDL
MODEL      289
REMARK 921   NORMALIZED FREE ENERGY PREDICTED BY IDOCK:   10.02 KCAL/MOL
REMARK 922        TOTAL FREE ENERGY PREDICTED BY IDOCK:   12.57 KCAL/MOL
REMARK 923 INTER-LIGAND FREE ENERGY PREDICTED BY IDOCK:   13.13 KCAL/MOL
REMARK 924 INTRA-LIGAND FREE ENERGY PREDICTED BY IDOCK:   -0.56 KCAL/MOL
REMARK 927      BINDING AFFINITY PREDICTED BY RF-SCORE:    0.00 PKD
ROOT
HETATM    1  C   UNL     1      -9.970  16.734  71.686  1.00  0.00     5.034 C  
HETATM    2  C   UNL     1     -10.610  17.985  72.262  1.00  0.00     3.836 C  
HETATM    3  O   UNL     1     -12.173  16.253  72.513  1.00  0.00    -0.493 OA 
HETATM    4  C   UNL     1     -11.679  17.428  73.163  1.00  0.00     0.984 C  
HETATM    5  C   UNL     1     -11.176  15.805  71.574  1.00  0.00    -0.244 C  
ENDROOT
BRANCH   1   6
HETATM    6  O   UNL     1      -9.396  17.082  70.431  1.00  0.00     1.866 OA 
BRANCH   6   7
HETATM    7  C   UNL     1      -8.628  16.160  69.782  1.00  0.00     0.421 A  
HETATM    8  C   UNL     1      -7.806  13.947  69.248  1.00  0.00     0.254 A  
HETATM    9  C   UNL     1      -8.562  14.800  70.069  1.00  0.00     0.630 A  
HETATM   10  C   UNL     1      -7.109  14.441  68.132  1.00  0.00    -0.126 A  
HETATM   11  C   UNL     1      -7.924  16.660  68.685  1.00  0.00    -0.236 A  
HETATM   12  C   UNL     1      -7.164  15.815  67.872  1.00  0.00    -0.154 A  
BRANCH  10  13
HETATM   13  C   UNL     1      -6.381  13.508  67.179  1.00  0.00     0.523 C  
BRANCH  13  14
HETATM   14  C   UNL     1      -6.703  12.049  67.437  1.00  0.00    -0.131 A  
HETATM   15  C   UNL     1      -7.748  11.357  66.810  1.00  0.00    -0.150 A  
HETATM   16 CL   UNL     1      -8.719  12.069  65.572  1.00  0.00     0.333 Cl 
HETATM   17  C   UNL     1      -8.070  10.054  67.202  1.00  0.00    -0.117 A  
HETATM   18  C   UNL     1      -7.404   9.455  68.275  1.00  0.00    -0.078 A  
HETATM   19  C   UNL     1      -6.389  10.141  68.954  1.00  0.00    -0.044 A  
HETATM   20  C   UNL     1      -5.995  11.396  68.463  1.00  0.00    -0.045 A  
BRANCH  19  21
HETATM   21  C   UNL     1      -5.898   9.634  70.303  1.00  0.00    -0.051 C  
HETATM   22  O   UNL     1      -6.268   8.246  70.423  1.00  0.00    -0.035 OA 
HETATM   23  C   UNL     1      -5.630   7.589  71.523  1.00  0.00    -0.035 C  
HETATM   24  H   UNL     1      -6.159  12.281  72.247  1.00  0.00     0.000 HD 
HETATM   25  C   UNL     1      -6.077   8.235  72.834  1.00  0.00    -0.074 C  
HETATM   26  O   UNL     1      -5.887  11.791  71.480  1.00  0.00    -0.247 OA 
HETATM   27  C   UNL     1      -5.756   9.737  72.804  1.00  0.00     0.327 C  
HETATM   28  O   UNL     1      -5.444   7.648  73.975  1.00  0.00    -0.052 OA 
HETATM   29  H   UNL     1      -6.041  11.277  73.988  1.00  0.00     0.000 HD 
HETATM   30  C   UNL     1      -6.341  10.432  71.553  1.00  0.00     0.732 C  
HETATM   31  H   UNL     1      -5.722   8.050  74.790  1.00  0.00     0.000 HD 
HETATM   32  O   UNL     1      -6.239  10.348  74.007  1.00  0.00     0.566 OA 
BRANCH  23  33
HETATM   33  C   UNL     1      -6.004   6.104  71.462  1.00  0.00    -0.035 C  
HETATM   34  O   UNL     1      -6.224   5.725  70.096  1.00  0.00    -0.025 OA 
HETATM   35  H   UNL     1      -6.456   4.804  70.058  1.00  0.00     0.000 HD 
ENDBRANCH  23  33
ENDBRANCH  19  21
ENDBRANCH  13  14
ENDBRANCH  10  13
ENDBRANCH   6   7
ENDBRANCH   1   6
TORSDOF 6
ENDMDL
MODEL      290
REMARK 921   NORMALIZED FREE ENERGY PREDICTED BY IDOCK:   10.26 KCAL/MOL
REMARK 922        TOTAL FREE ENERGY PREDICTED BY IDOCK:   12.89 KCAL/MOL
REMARK 923 INTER-LIGAND FREE ENERGY PREDICTED BY IDOCK:   12.71 KCAL/MOL
REMARK 924 INTRA-LIGAND FREE ENERGY PREDICTED BY IDOCK:    0.19 KCAL/MOL
REMARK 927      BINDING AFFINITY PREDICTED BY RF-SCORE:    0.00 PKD
ROOT
HETATM    1  C   UNL     1     -12.016  15.733  71.622  1.00  0.00    -0.454 C  
HETATM    2  C   UNL     1     -12.217  17.145  72.142  1.00  0.00     1.946 C  
HETATM    3  O   UNL     1     -14.077  16.651  70.801  1.00  0.00     3.590 OA 
HETATM    4  C   UNL     1     -13.701  17.348  71.992  1.00  0.00     9.495 C  
HETATM    5  C   UNL     1     -13.062  15.671  70.512  1.00  0.00    -0.108 C  
ENDROOT
BRANCH   1   6
HETATM    6  O   UNL     1     -10.675  15.632  71.154  1.00  0.00    -0.188 OA 
BRANCH   6   7
HETATM    7  C   UNL     1     -10.426  14.907  70.026  1.00  0.00    -0.033 A  
HETATM    8  C   UNL     1     -10.766  14.184  67.741  1.00  0.00    -0.251 A  
HETATM    9  C   UNL     1     -11.200  14.900  68.869  1.00  0.00    -0.282 A  
HETATM   10  C   UNL     1      -9.555  13.470  67.754  1.00  0.00    -0.219 A  
HETATM   11  C   UNL     1      -9.231  14.187  70.051  1.00  0.00     1.600 A  
HETATM   12  C   UNL     1      -8.802  13.467  68.933  1.00  0.00     0.223 A  
BRANCH  10  13
HETATM   13  C   UNL     1      -9.028  12.787  66.504  1.00  0.00    -0.098 C  
BRANCH  13  14
HETATM   14  C   UNL     1      -9.168  11.278  66.564  1.00  0.00    -0.200 A  
HETATM   15  C   UNL     1      -9.977  10.533  65.696  1.00  0.00    -0.270 A  
HETATM   16 CL   UNL     1     -10.819  11.250  64.370  1.00  0.00    -0.398 Cl 
HETATM   17  C   UNL     1     -10.162   9.162  65.902  1.00  0.00     0.034 A  
HETATM   18  C   UNL     1      -9.606   8.536  67.021  1.00  0.00    -0.246 A  
HETATM   19  C   UNL     1      -8.835   9.264  67.934  1.00  0.00    -0.124 A  
HETATM   20  C   UNL     1      -8.554  10.608  67.640  1.00  0.00    -0.118 A  
BRANCH  19  21
HETATM   21  C   UNL     1      -8.510   8.673  69.299  1.00  0.00    -0.123 C  
HETATM   22  O   UNL     1      -7.383   7.788  69.148  1.00  0.00    -0.083 OA 
HETATM   23  C   UNL     1      -6.816   7.383  70.399  1.00  0.00    -0.052 C  
HETATM   24  H   UNL     1     -11.460   8.448  70.750  1.00  0.00     0.000 HD 
HETATM   25  C   UNL     1      -7.848   6.583  71.193  1.00  0.00    -0.103 C  
HETATM   26  O   UNL     1     -10.750   8.880  70.289  1.00  0.00    -0.209 OA 
HETATM   27  C   UNL     1      -9.116   7.428  71.389  1.00  0.00    -0.141 C  
HETATM   28  O   UNL     1      -7.356   6.180  72.475  1.00  0.00    -0.084 OA 
HETATM   29  H   UNL     1     -10.887   7.171  72.196  1.00  0.00     0.000 HD 
HETATM   30  C   UNL     1      -9.666   7.970  70.050  1.00  0.00    -0.173 C  
HETATM   31  H   UNL     1      -7.998   5.683  72.969  1.00  0.00     0.000 HD 
HETATM   32  O   UNL     1     -10.103   6.648  72.075  1.00  0.00    -0.184 OA 
BRANCH  23  33
HETATM   33  C   UNL     1      -5.561   6.557  70.098  1.00  0.00    -0.018 C  
HETATM   34  O   UNL     1      -5.925   5.406  69.322  1.00  0.00    -0.021 OA 
HETATM   35  H   UNL     1      -5.147   4.893  69.136  1.00  0.00     0.000 HD 
ENDBRANCH  23  33
ENDBRANCH  19  21
ENDBRANCH  13  14
ENDBRANCH  10  13
ENDBRANCH   6   7
ENDBRANCH   1   6
TORSDOF 6
ENDMDL
MODEL      291
REMARK 921   NORMALIZED FREE ENERGY PREDICTED BY IDOCK:   10.68 KCAL/MOL
REMARK 922        TOTAL FREE ENERGY PREDICTED BY IDOCK:   13.46 KCAL/MOL
REMARK 923 INTER-LIGAND FREE ENERGY PREDICTED BY IDOCK:   14.05 KCAL/MOL
REMARK 924 INTRA-LIGAND FREE ENERGY PREDICTED BY IDOCK:   -0.59 KCAL/MOL
REMARK 927      BINDING AFFINITY PREDICTED BY RF-SCORE:    0.00 PKD
ROOT
HETATM    1  C   UNL     1      -8.635  18.074  70.395  1.00  0.00     3.640 C  
HETATM    2  C   UNL     1      -8.489  18.871  69.111  1.00  0.00    -0.056 C  
HETATM    3  O   UNL     1      -8.760  20.429  70.845  1.00  0.00     1.248 OA 
HETATM    4  C   UNL     1      -8.069  20.229  69.608  1.00  0.00     0.861 C  
HETATM    5  C   UNL     1      -9.156  19.141  71.353  1.00  0.00     4.891 C  
ENDROOT
BRANCH   1   6
HETATM    6  O   UNL     1      -9.562  17.022  70.147  1.00  0.00     0.914 OA 
BRANCH   6   7
HETATM    7  C   UNL     1      -9.353  16.199  69.080  1.00  0.00    -0.238 A  
HETATM    8  C   UNL     1      -8.267  14.436  67.826  1.00  0.00    -0.173 A  
HETATM    9  C   UNL     1      -8.300  15.301  68.933  1.00  0.00    -0.196 A  
HETATM   10  C   UNL     1      -9.284  14.459  66.856  1.00  0.00    -0.269 A  
HETATM   11  C   UNL     1     -10.357  16.238  68.112  1.00  0.00    -0.277 A  
HETATM   12  C   UNL     1     -10.321  15.385  67.005  1.00  0.00    -0.280 A  
BRANCH  10  13
HETATM   13  C   UNL     1      -9.310  13.453  65.717  1.00  0.00     0.146 C  
BRANCH  13  14
HETATM   14  C   UNL     1      -9.236  12.020  66.206  1.00  0.00    -0.208 A  
HETATM   15  C   UNL     1      -8.540  11.002  65.540  1.00  0.00    -0.102 A  
HETATM   16 CL   UNL     1      -7.581  11.301  64.136  1.00  0.00     0.973 Cl 
HETATM   17  C   UNL     1      -8.634   9.677  65.978  1.00  0.00    -0.144 A  
HETATM   18  C   UNL     1      -9.482   9.342  67.037  1.00  0.00    -0.205 A  
HETATM   19  C   UNL     1     -10.229  10.330  67.689  1.00  0.00    -0.247 A  
HETATM   20  C   UNL     1     -10.023  11.669  67.319  1.00  0.00    -0.210 A  
BRANCH  19  21
HETATM   21  C   UNL     1     -11.380   9.935  68.605  1.00  0.00     0.012 C  
HETATM   22  O   UNL     1     -11.804  11.109  69.324  1.00  0.00    -0.301 OA 
HETATM   23  C   UNL     1     -13.047  10.928  70.011  1.00  0.00     0.259 C  
HETATM   24  H   UNL     1     -10.649   6.835  69.447  1.00  0.00     0.000 HD 
HETATM   25  C   UNL     1     -12.890   9.843  71.075  1.00  0.00    -0.331 C  
HETATM   26  O   UNL     1     -10.803   7.559  68.852  1.00  0.00    -0.155 OA 
HETATM   27  C   UNL     1     -12.407   8.541  70.418  1.00  0.00     0.471 C  
HETATM   28  O   UNL     1     -14.111   9.585  71.775  1.00  0.00    -0.198 OA 
HETATM   29  H   UNL     1     -11.898   6.745  71.024  1.00  0.00     0.000 HD 
HETATM   30  C   UNL     1     -11.130   8.756  69.574  1.00  0.00     0.020 C  
HETATM   31  H   UNL     1     -14.013   8.910  72.437  1.00  0.00     0.000 HD 
HETATM   32  O   UNL     1     -12.197   7.550  71.430  1.00  0.00    -0.310 OA 
BRANCH  23  33
HETATM   33  C   UNL     1     -13.445  12.275  70.623  1.00  0.00     1.228 C  
HETATM   34  O   UNL     1     -13.933  13.142  69.589  1.00  0.00     3.290 OA 
HETATM   35  H   UNL     1     -14.180  13.977  69.968  1.00  0.00     0.000 HD 
ENDBRANCH  23  33
ENDBRANCH  19  21
ENDBRANCH  13  14
ENDBRANCH  10  13
ENDBRANCH   6   7
ENDBRANCH   1   6
TORSDOF 6
ENDMDL
MODEL      292
REMARK 921   NORMALIZED FREE ENERGY PREDICTED BY IDOCK:   13.52 KCAL/MOL
REMARK 922        TOTAL FREE ENERGY PREDICTED BY IDOCK:   17.30 KCAL/MOL
REMARK 923 INTER-LIGAND FREE ENERGY PREDICTED BY IDOCK:   17.71 KCAL/MOL
REMARK 924 INTRA-LIGAND FREE ENERGY PREDICTED BY IDOCK:   -0.41 KCAL/MOL
REMARK 927      BINDING AFFINITY PREDICTED BY RF-SCORE:    0.00 PKD
ROOT
HETATM    1  C   UNL     1      -8.695  18.692  71.065  1.00  0.00     5.661 C  
HETATM    2  C   UNL     1      -7.717  19.209  70.026  1.00  0.00     0.783 C  
HETATM    3  O   UNL     1      -8.612  21.092  71.102  1.00  0.00     1.763 OA 
HETATM    4  C   UNL     1      -7.402  20.594  70.524  1.00  0.00     1.734 C  
HETATM    5  C   UNL     1      -9.453  19.968  71.423  1.00  0.00     2.412 C  
ENDROOT
BRANCH   1   6
HETATM    6  O   UNL     1      -9.504  17.700  70.441  1.00  0.00     2.064 OA 
BRANCH   6   7
HETATM    7  C   UNL     1      -8.907  16.782  69.627  1.00  0.00     0.610 A  
HETATM    8  C   UNL     1      -7.364  15.008  69.050  1.00  0.00    -0.151 A  
HETATM    9  C   UNL     1      -7.811  15.990  69.952  1.00  0.00     0.480 A  
HETATM   10  C   UNL     1      -8.008  14.808  67.817  1.00  0.00    -0.167 A  
HETATM   11  C   UNL     1      -9.540  16.600  68.397  1.00  0.00    -0.233 A  
HETATM   12  C   UNL     1      -9.093  15.631  67.495  1.00  0.00    -0.198 A  
BRANCH  10  13
HETATM   13  C   UNL     1      -7.599  13.677  66.888  1.00  0.00     0.432 C  
BRANCH  13  14
HETATM   14  C   UNL     1      -7.325  12.385  67.632  1.00  0.00    -0.132 A  
HETATM   15  C   UNL     1      -6.324  11.473  67.270  1.00  0.00    -0.107 A  
HETATM   16 CL   UNL     1      -5.203  11.784  65.995  1.00  0.00     0.264 Cl 
HETATM   17  C   UNL     1      -6.224  10.238  67.921  1.00  0.00    -0.059 A  
HETATM   18  C   UNL     1      -7.167   9.869  68.883  1.00  0.00    -0.076 A  
HETATM   19  C   UNL     1      -8.208  10.738  69.229  1.00  0.00    -0.087 A  
HETATM   20  C   UNL     1      -8.216  12.022  68.659  1.00  0.00    -0.052 A  
BRANCH  19  21
HETATM   21  C   UNL     1      -9.403  10.220  70.018  1.00  0.00     0.111 C  
HETATM   22  O   UNL     1     -10.329  11.310  70.198  1.00  0.00     0.517 OA 
HETATM   23  C   UNL     1     -11.606  10.887  70.685  1.00  0.00    -0.242 C  
HETATM   24  H   UNL     1      -8.074   7.953  72.005  1.00  0.00     0.000 HD 
HETATM   25  C   UNL     1     -11.444  10.269  72.073  1.00  0.00     1.313 C  
HETATM   26  O   UNL     1      -8.259   8.380  71.177  1.00  0.00    -0.108 OA 
HETATM   27  C   UNL     1     -10.445   9.104  72.006  1.00  0.00    -0.099 C  
HETATM   28  O   UNL     1     -12.683   9.788  72.604  1.00  0.00    -0.226 OA 
HETATM   29  H   UNL     1      -9.629   7.853  73.280  1.00  0.00     0.000 HD 
HETATM   30  C   UNL     1      -9.102   9.526  71.367  1.00  0.00     0.476 C  
HETATM   31  H   UNL     1     -12.582   9.403  73.467  1.00  0.00     0.000 HD 
HETATM   32  O   UNL     1     -10.247   8.573  73.322  1.00  0.00     0.165 OA 
BRANCH  23  33
HETATM   33  C   UNL     1     -12.527  12.111  70.710  1.00  0.00    -0.271 C  
HETATM   34  O   UNL     1     -13.054  12.336  69.394  1.00  0.00     1.129 OA 
HETATM   35  H   UNL     1     -13.626  13.095  69.409  1.00  0.00     0.000 HD 
ENDBRANCH  23  33
ENDBRANCH  19  21
ENDBRANCH  13  14
ENDBRANCH  10  13
ENDBRANCH   6   7
ENDBRANCH   1   6
TORSDOF 6
ENDMDL
MODEL      293
REMARK 921   NORMALIZED FREE ENERGY PREDICTED BY IDOCK:   15.79 KCAL/MOL
REMARK 922        TOTAL FREE ENERGY PREDICTED BY IDOCK:   20.36 KCAL/MOL
REMARK 923 INTER-LIGAND FREE ENERGY PREDICTED BY IDOCK:   17.83 KCAL/MOL
REMARK 924 INTRA-LIGAND FREE ENERGY PREDICTED BY IDOCK:    2.53 KCAL/MOL
REMARK 927      BINDING AFFINITY PREDICTED BY RF-SCORE:    0.00 PKD
ROOT
HETATM    1  C   UNL     1     -11.889   6.702  73.299  1.00  0.00     0.826 C  
HETATM    2  C   UNL     1     -12.868   7.838  73.066  1.00  0.00     0.915 C  
HETATM    3  O   UNL     1     -13.374   6.180  71.485  1.00  0.00     0.535 OA 
HETATM    4  C   UNL     1     -13.989   7.165  72.320  1.00  0.00     0.146 C  
HETATM    5  C   UNL     1     -12.071   5.883  72.023  1.00  0.00     0.007 C  
ENDROOT
BRANCH   1   6
HETATM    6  O   UNL     1     -10.591   7.271  73.435  1.00  0.00    -0.346 OA 
BRANCH   6   7
HETATM    7  C   UNL     1     -10.264   8.353  72.672  1.00  0.00    -0.249 A  
HETATM    8  C   UNL     1      -9.062   9.571  70.960  1.00  0.00     0.017 A  
HETATM    9  C   UNL     1      -9.219   8.424  71.757  1.00  0.00    -0.287 A  
HETATM   10  C   UNL     1      -9.948  10.657  71.069  1.00  0.00     2.512 A  
HETATM   11  C   UNL     1     -11.137   9.435  72.796  1.00  0.00     1.871 A  
HETATM   12  C   UNL     1     -10.978  10.580  72.011  1.00  0.00     3.233 A  
BRANCH  10  13
HETATM   13  C   UNL     1      -9.850  11.852  70.134  1.00  0.00     2.708 C  
BRANCH  13  14
HETATM   14  C   UNL     1     -10.934  11.851  69.074  1.00  0.00    -0.267 A  
HETATM   15  C   UNL     1     -11.543  10.689  68.582  1.00  0.00    -0.227 A  
HETATM   16 CL   UNL     1     -11.205   9.122  69.223  1.00  0.00     0.013 Cl 
HETATM   17  C   UNL     1     -12.435  10.759  67.506  1.00  0.00     3.114 A  
HETATM   18  C   UNL     1     -12.669  11.977  66.862  1.00  0.00     2.468 A  
HETATM   19  C   UNL     1     -12.035  13.146  67.299  1.00  0.00    -0.389 A  
HETATM   20  C   UNL     1     -11.246  13.077  68.458  1.00  0.00    -0.309 A  
BRANCH  19  21
HETATM   21  C   UNL     1     -12.029  14.386  66.415  1.00  0.00    -0.385 C  
HETATM   22  O   UNL     1     -11.926  13.958  65.043  1.00  0.00    -0.354 OA 
HETATM   23  C   UNL     1     -12.181  15.010  64.107  1.00  0.00    -0.211 C  
HETATM   24  H   UNL     1     -10.485  16.630  68.269  1.00  0.00     0.000 HD 
HETATM   25  C   UNL     1     -11.124  16.102  64.264  1.00  0.00     0.105 C  
HETATM   26  O   UNL     1     -11.135  15.966  68.071  1.00  0.00    -0.328 OA 
HETATM   27  C   UNL     1     -11.124  16.616  65.712  1.00  0.00     0.168 C  
HETATM   28  O   UNL     1     -11.345  17.206  63.380  1.00  0.00     1.126 OA 
HETATM   29  H   UNL     1     -10.086  17.907  66.764  1.00  0.00     0.000 HD 
HETATM   30  C   UNL     1     -10.970  15.467  66.736  1.00  0.00    -0.257 C  
HETATM   31  H   UNL     1     -10.687  17.885  63.479  1.00  0.00     0.000 HD 
HETATM   32  O   UNL     1     -10.086  17.590  65.869  1.00  0.00    -0.505 OA 
BRANCH  23  33
HETATM   33  C   UNL     1     -12.166  14.400  62.701  1.00  0.00     2.799 C  
HETATM   34  O   UNL     1     -12.152  12.969  62.804  1.00  0.00    -0.622 OA 
HETATM   35  H   UNL     1     -12.143  12.590  61.933  1.00  0.00     0.000 HD 
ENDBRANCH  23  33
ENDBRANCH  19  21
ENDBRANCH  13  14
ENDBRANCH  10  13
ENDBRANCH   6   7
ENDBRANCH   1   6
TORSDOF 6
ENDMDL
MODEL      294
REMARK 921   NORMALIZED FREE ENERGY PREDICTED BY IDOCK:   20.18 KCAL/MOL
REMARK 922        TOTAL FREE ENERGY PREDICTED BY IDOCK:   26.30 KCAL/MOL
REMARK 923 INTER-LIGAND FREE ENERGY PREDICTED BY IDOCK:   27.47 KCAL/MOL
REMARK 924 INTRA-LIGAND FREE ENERGY PREDICTED BY IDOCK:   -1.17 KCAL/MOL
REMARK 927      BINDING AFFINITY PREDICTED BY RF-SCORE:    0.00 PKD
ROOT
HETATM    1  C   UNL     1      -6.046  12.715  70.886  1.00  0.00     0.444 C  
HETATM    2  C   UNL     1      -6.581  12.255  72.230  1.00  0.00     5.366 C  
HETATM    3  O   UNL     1      -5.620  10.374  71.209  1.00  0.00    -0.183 OA 
HETATM    4  C   UNL     1      -5.802  10.993  72.486  1.00  0.00     1.574 C  
HETATM    5  C   UNL     1      -5.790  11.380  70.192  1.00  0.00    -0.142 C  
ENDROOT
BRANCH   1   6
HETATM    6  O   UNL     1      -7.056  13.502  70.264  1.00  0.00     0.543 OA 
BRANCH   6   7
HETATM    7  C   UNL     1      -6.794  14.072  69.054  1.00  0.00    -0.111 A  
HETATM    8  C   UNL     1      -7.166  14.566  66.713  1.00  0.00     1.016 A  
HETATM    9  C   UNL     1      -7.477  13.826  67.867  1.00  0.00    -0.153 A  
HETATM   10  C   UNL     1      -6.171  15.559  66.733  1.00  0.00     0.964 A  
HETATM   11  C   UNL     1      -5.794  15.045  69.076  1.00  0.00    -0.096 A  
HETATM   12  C   UNL     1      -5.476  15.776  67.928  1.00  0.00    -0.148 A  
BRANCH  10  13
HETATM   13  C   UNL     1      -5.907  16.437  65.521  1.00  0.00     3.720 C  
BRANCH  13  14
HETATM   14  C   UNL     1      -6.820  17.647  65.470  1.00  0.00     0.190 A  
HETATM   15  C   UNL     1      -6.526  18.817  64.758  1.00  0.00     0.138 A  
HETATM   16 CL   UNL     1      -5.131  18.963  63.750  1.00  0.00    -0.243 Cl 
HETATM   17  C   UNL     1      -7.351  19.941  64.873  1.00  0.00     0.417 A  
HETATM   18  C   UNL     1      -8.431  19.936  65.758  1.00  0.00    -0.043 A  
HETATM   19  C   UNL     1      -8.720  18.799  66.522  1.00  0.00    -0.317 A  
HETATM   20  C   UNL     1      -7.959  17.639  66.297  1.00  0.00    -0.292 A  
BRANCH  19  21
HETATM   21  C   UNL     1      -9.673  18.896  67.705  1.00  0.00    -0.323 C  
HETATM   22  O   UNL     1      -8.887  19.016  68.906  1.00  0.00    -0.331 OA 
HETATM   23  C   UNL     1      -9.663  19.385  70.051  1.00  0.00     0.620 C  
HETATM   24  H   UNL     1     -12.225  17.029  66.778  1.00  0.00     0.000 HD 
HETATM   25  C   UNL     1     -10.684  18.289  70.351  1.00  0.00     2.086 C  
HETATM   26  O   UNL     1     -11.577  17.718  66.691  1.00  0.00     1.138 OA 
HETATM   27  C   UNL     1     -11.567  18.054  69.116  1.00  0.00     2.955 C  
HETATM   28  O   UNL     1     -11.522  18.614  71.464  1.00  0.00     3.014 OA 
HETATM   29  H   UNL     1     -13.021  16.834  68.617  1.00  0.00     0.000 HD 
HETATM   30  C   UNL     1     -10.728  17.774  67.847  1.00  0.00    -0.319 C  
HETATM   31  H   UNL     1     -12.158  17.933  71.651  1.00  0.00     0.000 HD 
HETATM   32  O   UNL     1     -12.476  16.979  69.381  1.00  0.00     1.675 OA 
BRANCH  23  33
HETATM   33  C   UNL     1      -8.698  19.602  71.221  1.00  0.00     3.124 C  
HETATM   34  O   UNL     1      -7.970  20.821  71.017  1.00  0.00     1.189 OA 
HETATM   35  H   UNL     1      -7.371  20.956  71.743  1.00  0.00     0.000 HD 
ENDBRANCH  23  33
ENDBRANCH  19  21
ENDBRANCH  13  14
ENDBRANCH  10  13
ENDBRANCH   6   7
ENDBRANCH   1   6
TORSDOF 6
ENDMDL
MODEL      295
REMARK 921   NORMALIZED FREE ENERGY PREDICTED BY IDOCK:   20.70 KCAL/MOL
REMARK 922        TOTAL FREE ENERGY PREDICTED BY IDOCK:   26.99 KCAL/MOL
REMARK 923 INTER-LIGAND FREE ENERGY PREDICTED BY IDOCK:   27.43 KCAL/MOL
REMARK 924 INTRA-LIGAND FREE ENERGY PREDICTED BY IDOCK:   -0.44 KCAL/MOL
REMARK 927      BINDING AFFINITY PREDICTED BY RF-SCORE:    0.00 PKD
ROOT
HETATM    1  C   UNL     1      -8.098  18.399  71.824  1.00  0.00     9.872 C  
HETATM    2  C   UNL     1      -7.137  18.939  70.780  1.00  0.00     1.831 C  
HETATM    3  O   UNL     1      -7.875  20.781  72.032  1.00  0.00     0.961 OA 
HETATM    4  C   UNL     1      -6.722  20.264  71.362  1.00  0.00     0.399 C  
HETATM    5  C   UNL     1      -8.765  19.683  72.310  1.00  0.00     4.244 C  
ENDROOT
BRANCH   1   6
HETATM    6  O   UNL     1      -8.988  17.502  71.169  1.00  0.00     6.134 OA 
BRANCH   6   7
HETATM    7  C   UNL     1      -8.489  16.650  70.229  1.00  0.00     2.386 A  
HETATM    8  C   UNL     1      -7.090  14.866  69.380  1.00  0.00    -0.175 A  
HETATM    9  C   UNL     1      -7.431  15.763  70.406  1.00  0.00     1.049 A  
HETATM   10  C   UNL     1      -7.800  14.845  68.167  1.00  0.00    -0.122 A  
HETATM   11  C   UNL     1      -9.187  16.646  69.020  1.00  0.00    -0.223 A  
HETATM   12  C   UNL     1      -8.843  15.761  67.995  1.00  0.00    -0.176 A  
BRANCH  10  13
HETATM   13  C   UNL     1      -7.506  13.805  67.098  1.00  0.00     0.094 C  
BRANCH  13  14
HETATM   14  C   UNL     1      -7.321  12.415  67.676  1.00  0.00    -0.132 A  
HETATM   15  C   UNL     1      -6.394  11.485  67.189  1.00  0.00    -0.124 A  
HETATM   16 CL   UNL     1      -5.263  11.868  65.941  1.00  0.00     0.633 Cl 
HETATM   17  C   UNL     1      -6.379  10.176  67.683  1.00  0.00    -0.058 A  
HETATM   18  C   UNL     1      -7.338   9.761  68.610  1.00  0.00    -0.074 A  
HETATM   19  C   UNL     1      -8.310  10.654  69.077  1.00  0.00    -0.153 A  
HETATM   20  C   UNL     1      -8.228  11.995  68.667  1.00  0.00    -0.052 A  
BRANCH  19  21
HETATM   21  C   UNL     1      -9.533  10.131  69.818  1.00  0.00    -0.167 C  
HETATM   22  O   UNL     1      -9.238   8.802  70.290  1.00  0.00    -0.157 OA 
HETATM   23  C   UNL     1     -10.202   8.312  71.227  1.00  0.00    -0.202 C  
HETATM   24  H   UNL     1     -12.048  11.514  68.201  1.00  0.00     0.000 HD 
HETATM   25  C   UNL     1     -11.565   8.200  70.547  1.00  0.00    -0.127 C  
HETATM   26  O   UNL     1     -11.222  11.497  68.670  1.00  0.00    -0.205 OA 
HETATM   27  C   UNL     1     -11.970   9.566  69.974  1.00  0.00     0.182 C  
HETATM   28  O   UNL     1     -12.587   7.751  71.443  1.00  0.00    -0.323 OA 
HETATM   29  H   UNL     1     -13.467  10.283  68.925  1.00  0.00     0.000 HD 
HETATM   30  C   UNL     1     -10.878  10.158  69.054  1.00  0.00    -0.224 C  
HETATM   31  H   UNL     1     -13.435   7.681  71.020  1.00  0.00     0.000 HD 
HETATM   32  O   UNL     1     -13.217   9.438  69.279  1.00  0.00     2.616 OA 
BRANCH  23  33
HETATM   33  C   UNL     1      -9.707   6.956  71.742  1.00  0.00    -0.159 C  
HETATM   34  O   UNL     1      -8.751   7.166  72.791  1.00  0.00    -0.117 OA 
HETATM   35  H   UNL     1      -8.444   6.326  73.111  1.00  0.00     0.000 HD 
ENDBRANCH  23  33
ENDBRANCH  19  21
ENDBRANCH  13  14
ENDBRANCH  10  13
ENDBRANCH   6   7
ENDBRANCH   1   6
TORSDOF 6
ENDMDL
MODEL      296
REMARK 921   NORMALIZED FREE ENERGY PREDICTED BY IDOCK:   22.22 KCAL/MOL
REMARK 922        TOTAL FREE ENERGY PREDICTED BY IDOCK:   29.05 KCAL/MOL
REMARK 923 INTER-LIGAND FREE ENERGY PREDICTED BY IDOCK:   29.71 KCAL/MOL
REMARK 924 INTRA-LIGAND FREE ENERGY PREDICTED BY IDOCK:   -0.66 KCAL/MOL
REMARK 927      BINDING AFFINITY PREDICTED BY RF-SCORE:    0.00 PKD
ROOT
HETATM    1  C   UNL     1      -6.384   9.256  71.208  1.00  0.00    -0.072 C  
HETATM    2  C   UNL     1      -6.695  10.141  70.015  1.00  0.00    -0.127 C  
HETATM    3  O   UNL     1      -5.612  11.496  71.595  1.00  0.00    -0.351 OA 
HETATM    4  C   UNL     1      -5.728  11.282  70.185  1.00  0.00    -0.120 C  
HETATM    5  C   UNL     1      -6.032  10.295  72.269  1.00  0.00     0.818 C  
ENDROOT
BRANCH   1   6
HETATM    6  O   UNL     1      -7.557   8.505  71.506  1.00  0.00    -0.092 OA 
BRANCH   6   7
HETATM    7  C   UNL     1      -8.758   9.150  71.543  1.00  0.00     0.058 A  
HETATM    8  C   UNL     1     -10.418  10.688  72.402  1.00  0.00     7.615 A  
HETATM    9  C   UNL     1      -9.197  10.008  72.546  1.00  0.00     5.823 A  
HETATM   10  C   UNL     1     -11.213  10.518  71.255  1.00  0.00     0.400 A  
HETATM   11  C   UNL     1      -9.551   8.964  70.409  1.00  0.00    -0.227 A  
HETATM   12  C   UNL     1     -10.770   9.632  70.267  1.00  0.00    -0.335 A  
BRANCH  10  13
HETATM   13  C   UNL     1     -12.479  11.333  71.044  1.00  0.00    -0.503 C  
BRANCH  13  14
HETATM   14  C   UNL     1     -12.236  12.577  70.211  1.00  0.00    -0.345 A  
HETATM   15  C   UNL     1     -12.905  13.792  70.409  1.00  0.00    -0.096 A  
HETATM   16 CL   UNL     1     -14.003  14.043  71.718  1.00  0.00    -0.475 Cl 
HETATM   17  C   UNL     1     -12.729  14.851  69.513  1.00  0.00     0.088 A  
HETATM   18  C   UNL     1     -11.946  14.683  68.367  1.00  0.00    -0.289 A  
HETATM   19  C   UNL     1     -11.307  13.464  68.115  1.00  0.00    -0.321 A  
HETATM   20  C   UNL     1     -11.392  12.457  69.091  1.00  0.00    -0.327 A  
BRANCH  19  21
HETATM   21  C   UNL     1     -10.736  13.173  66.734  1.00  0.00    -0.267 C  
HETATM   22  O   UNL     1      -9.973  14.321  66.313  1.00  0.00    -0.284 OA 
HETATM   23  C   UNL     1      -9.169  14.067  65.157  1.00  0.00     1.150 C  
HETATM   24  H   UNL     1     -13.050  11.288  65.338  1.00  0.00     0.000 HD 
HETATM   25  C   UNL     1     -10.071  13.732  63.970  1.00  0.00     1.128 C  
HETATM   26  O   UNL     1     -12.433  11.549  66.011  1.00  0.00     0.732 OA 
HETATM   27  C   UNL     1     -10.960  12.530  64.321  1.00  0.00    -0.360 C  
HETATM   28  O   UNL     1      -9.325  13.429  62.787  1.00  0.00     3.698 OA 
HETATM   29  H   UNL     1     -12.400  11.521  63.447  1.00  0.00     0.000 HD 
HETATM   30  C   UNL     1     -11.742  12.749  65.637  1.00  0.00    -0.399 C  
HETATM   31  H   UNL     1      -9.887  13.220  62.049  1.00  0.00     0.000 HD 
HETATM   32  O   UNL     1     -11.850  12.265  63.230  1.00  0.00    -0.448 OA 
BRANCH  23  33
HETATM   33  C   UNL     1      -8.319  15.315  64.894  1.00  0.00     5.952 C  
HETATM   34  O   UNL     1      -8.888  16.056  63.805  1.00  0.00     7.689 OA 
HETATM   35  H   UNL     1      -8.362  16.830  63.641  1.00  0.00     0.000 HD 
ENDBRANCH  23  33
ENDBRANCH  19  21
ENDBRANCH  13  14
ENDBRANCH  10  13
ENDBRANCH   6   7
ENDBRANCH   1   6
TORSDOF 6
ENDMDL
MODEL      297
REMARK 921   NORMALIZED FREE ENERGY PREDICTED BY IDOCK:   22.87 KCAL/MOL
REMARK 922        TOTAL FREE ENERGY PREDICTED BY IDOCK:   29.92 KCAL/MOL
REMARK 923 INTER-LIGAND FREE ENERGY PREDICTED BY IDOCK:   30.69 KCAL/MOL
REMARK 924 INTRA-LIGAND FREE ENERGY PREDICTED BY IDOCK:   -0.77 KCAL/MOL
REMARK 927      BINDING AFFINITY PREDICTED BY RF-SCORE:    0.00 PKD
ROOT
HETATM    1  C   UNL     1      -8.743   5.067  66.994  1.00  0.00    -0.103 C  
HETATM    2  C   UNL     1      -9.297   3.904  66.190  1.00  0.00    -0.179 C  
HETATM    3  O   UNL     1      -7.377   3.113  67.283  1.00  0.00    -0.057 OA 
HETATM    4  C   UNL     1      -8.685   2.708  66.869  1.00  0.00    -0.123 C  
HETATM    5  C   UNL     1      -7.350   4.552  67.345  1.00  0.00    -0.073 C  
ENDROOT
BRANCH   1   6
HETATM    6  O   UNL     1      -8.736   6.212  66.148  1.00  0.00    -0.138 OA 
BRANCH   6   7
HETATM    7  C   UNL     1      -9.745   7.122  66.265  1.00  0.00     0.010 A  
HETATM    8  C   UNL     1     -11.790   8.252  65.630  1.00  0.00     9.530 A  
HETATM    9  C   UNL     1     -10.750   7.355  65.330  1.00  0.00     4.421 A  
HETATM   10  C   UNL     1     -11.837   8.924  66.863  1.00  0.00     4.499 A  
HETATM   11  C   UNL     1      -9.778   7.799  67.485  1.00  0.00    -0.201 A  
HETATM   12  C   UNL     1     -10.806   8.698  67.781  1.00  0.00    -0.075 A  
BRANCH  10  13
HETATM   13  C   UNL     1     -13.015   9.809  67.235  1.00  0.00    11.486 C  
BRANCH  13  14
HETATM   14  C   UNL     1     -12.644  10.876  68.246  1.00  0.00     1.804 A  
HETATM   15  C   UNL     1     -13.050  10.856  69.587  1.00  0.00     0.754 A  
HETATM   16 CL   UNL     1     -13.929   9.536  70.270  1.00  0.00     0.732 Cl 
HETATM   17  C   UNL     1     -12.784  11.946  70.423  1.00  0.00    -0.033 A  
HETATM   18  C   UNL     1     -12.180  13.097  69.912  1.00  0.00    -0.293 A  
HETATM   19  C   UNL     1     -11.808  13.165  68.564  1.00  0.00    -0.377 A  
HETATM   20  C   UNL     1     -11.966  12.015  67.773  1.00  0.00    -0.177 A  
BRANCH  19  21
HETATM   21  C   UNL     1     -11.460  14.509  67.937  1.00  0.00    -0.325 C  
HETATM   22  O   UNL     1     -10.327  14.317  67.067  1.00  0.00    -0.263 OA 
HETATM   23  C   UNL     1     -10.075  15.442  66.218  1.00  0.00    -0.292 C  
HETATM   24  H   UNL     1     -12.232  16.671  70.300  1.00  0.00     0.000 HD 
HETATM   25  C   UNL     1      -9.720  16.658  67.073  1.00  0.00    -0.249 C  
HETATM   26  O   UNL     1     -12.381  15.946  69.705  1.00  0.00    -0.252 OA 
HETATM   27  C   UNL     1     -10.856  16.939  68.068  1.00  0.00    -0.338 C  
HETATM   28  O   UNL     1      -9.494  17.831  66.284  1.00  0.00    -0.374 OA 
HETATM   29  H   UNL     1     -11.190  18.210  69.526  1.00  0.00     0.000 HD 
HETATM   30  C   UNL     1     -11.216  15.690  68.906  1.00  0.00    -0.311 C  
HETATM   31  H   UNL     1      -9.273  18.587  66.816  1.00  0.00     0.000 HD 
HETATM   32  O   UNL     1     -10.488  18.037  68.910  1.00  0.00    -0.302 OA 
BRANCH  23  33
HETATM   33  C   UNL     1      -8.937  15.063  65.264  1.00  0.00     1.519 C  
HETATM   34  O   UNL     1      -9.463  14.277  64.185  1.00  0.00     0.473 OA 
HETATM   35  H   UNL     1      -8.758  14.042  63.594  1.00  0.00     0.000 HD 
ENDBRANCH  23  33
ENDBRANCH  19  21
ENDBRANCH  13  14
ENDBRANCH  10  13
ENDBRANCH   6   7
ENDBRANCH   1   6
TORSDOF 6
ENDMDL
MODEL      298
REMARK 921   NORMALIZED FREE ENERGY PREDICTED BY IDOCK:   23.30 KCAL/MOL
REMARK 922        TOTAL FREE ENERGY PREDICTED BY IDOCK:   30.51 KCAL/MOL
REMARK 923 INTER-LIGAND FREE ENERGY PREDICTED BY IDOCK:   29.74 KCAL/MOL
REMARK 924 INTRA-LIGAND FREE ENERGY PREDICTED BY IDOCK:    0.76 KCAL/MOL
REMARK 927      BINDING AFFINITY PREDICTED BY RF-SCORE:    0.00 PKD
ROOT
HETATM    1  C   UNL     1     -13.196  13.341  64.317  1.00  0.00     0.836 C  
HETATM    2  C   UNL     1     -12.792  13.750  65.722  1.00  0.00    -0.430 C  
HETATM    3  O   UNL     1     -11.983  15.413  64.278  1.00  0.00    -0.458 OA 
HETATM    4  C   UNL     1     -12.544  15.228  65.581  1.00  0.00     0.803 C  
HETATM    5  C   UNL     1     -12.327  14.269  63.473  1.00  0.00     0.323 C  
ENDROOT
BRANCH   1   6
HETATM    6  O   UNL     1     -12.882  11.961  64.162  1.00  0.00    -0.410 OA 
BRANCH   6   7
HETATM    7  C   UNL     1     -12.668  11.206  65.278  1.00  0.00     3.836 A  
HETATM    8  C   UNL     1     -11.565   9.538  66.642  1.00  0.00     2.532 A  
HETATM    9  C   UNL     1     -11.756  10.162  65.397  1.00  0.00     3.540 A  
HETATM   10  C   UNL     1     -12.283   9.949  67.779  1.00  0.00     3.575 A  
HETATM   11  C   UNL     1     -13.396  11.608  66.398  1.00  0.00     7.571 A  
HETATM   12  C   UNL     1     -13.215  10.983  67.635  1.00  0.00     7.767 A  
BRANCH  10  13
HETATM   13  C   UNL     1     -12.002   9.353  69.148  1.00  0.00     1.038 C  
BRANCH  13  14
HETATM   14  C   UNL     1     -10.545   9.482  69.550  1.00  0.00    -0.238 A  
HETATM   15  C   UNL     1      -9.985   8.849  70.667  1.00  0.00    -0.216 A  
HETATM   16 CL   UNL     1     -10.876   7.745  71.651  1.00  0.00    -0.255 Cl 
HETATM   17  C   UNL     1      -8.669   9.127  71.052  1.00  0.00    -0.251 A  
HETATM   18  C   UNL     1      -7.925  10.096  70.373  1.00  0.00     0.242 A  
HETATM   19  C   UNL     1      -8.476  10.781  69.284  1.00  0.00    -0.058 A  
HETATM   20  C   UNL     1      -9.750  10.396  68.834  1.00  0.00    -0.203 A  
BRANCH  19  21
HETATM   21  C   UNL     1      -7.806  12.044  68.759  1.00  0.00    -0.033 C  
HETATM   22  O   UNL     1      -7.542  12.911  69.879  1.00  0.00     0.952 OA 
HETATM   23  C   UNL     1      -6.676  14.003  69.553  1.00  0.00    -0.091 C  
HETATM   24  H   UNL     1      -9.165  12.445  65.785  1.00  0.00     0.000 HD 
HETATM   25  C   UNL     1      -7.348  14.893  68.509  1.00  0.00    -0.119 C  
HETATM   26  O   UNL     1      -8.715  11.975  66.477  1.00  0.00    -0.194 OA 
HETATM   27  C   UNL     1      -7.704  14.058  67.270  1.00  0.00    -0.098 C  
HETATM   28  O   UNL     1      -6.516  15.987  68.108  1.00  0.00    -0.112 OA 
HETATM   29  H   UNL     1      -8.615  14.368  65.559  1.00  0.00     0.000 HD 
HETATM   30  C   UNL     1      -8.539  12.809  67.632  1.00  0.00    -0.181 C  
HETATM   31  H   UNL     1      -6.934  16.541  67.459  1.00  0.00     0.000 HD 
HETATM   32  O   UNL     1      -8.394  14.884  66.324  1.00  0.00     0.095 OA 
BRANCH  23  33
HETATM   33  C   UNL     1      -6.376  14.766  70.847  1.00  0.00     0.118 C  
HETATM   34  O   UNL     1      -5.133  15.469  70.707  1.00  0.00    -0.138 OA 
HETATM   35  H   UNL     1      -4.947  15.943  71.509  1.00  0.00     0.000 HD 
ENDBRANCH  23  33
ENDBRANCH  19  21
ENDBRANCH  13  14
ENDBRANCH  10  13
ENDBRANCH   6   7
ENDBRANCH   1   6
TORSDOF 6
ENDMDL
MODEL      299
REMARK 921   NORMALIZED FREE ENERGY PREDICTED BY IDOCK:   24.75 KCAL/MOL
REMARK 922        TOTAL FREE ENERGY PREDICTED BY IDOCK:   32.46 KCAL/MOL
REMARK 923 INTER-LIGAND FREE ENERGY PREDICTED BY IDOCK:   29.40 KCAL/MOL
REMARK 924 INTRA-LIGAND FREE ENERGY PREDICTED BY IDOCK:    3.06 KCAL/MOL
REMARK 927      BINDING AFFINITY PREDICTED BY RF-SCORE:    0.00 PKD
ROOT
HETATM    1  C   UNL     1      -7.451  17.348  70.831  1.00  0.00     4.682 C  
HETATM    2  C   UNL     1      -7.179  16.508  72.066  1.00  0.00     7.806 C  
HETATM    3  O   UNL     1      -6.614  18.718  72.617  1.00  0.00     2.071 OA 
HETATM    4  C   UNL     1      -7.185  17.530  73.172  1.00  0.00    10.664 C  
HETATM    5  C   UNL     1      -6.724  18.643  71.183  1.00  0.00     2.165 C  
ENDROOT
BRANCH   1   6
HETATM    6  O   UNL     1      -6.897  16.664  69.713  1.00  0.00    -0.145 OA 
BRANCH   6   7
HETATM    7  C   UNL     1      -6.903  15.300  69.707  1.00  0.00    -0.172 A  
HETATM    8  C   UNL     1      -5.957  13.082  69.929  1.00  0.00    -0.136 A  
HETATM    9  C   UNL     1      -5.790  14.475  69.846  1.00  0.00    -0.122 A  
HETATM   10  C   UNL     1      -7.235  12.499  69.874  1.00  0.00     0.883 A  
HETATM   11  C   UNL     1      -8.173  14.726  69.636  1.00  0.00     0.124 A  
HETATM   12  C   UNL     1      -8.340  13.340  69.708  1.00  0.00     1.932 A  
BRANCH  10  13
HETATM   13  C   UNL     1      -7.430  11.005  70.073  1.00  0.00     0.458 C  
BRANCH  13  14
HETATM   14  C   UNL     1      -7.035  10.200  68.849  1.00  0.00    -0.063 A  
HETATM   15  C   UNL     1      -6.185  10.676  67.843  1.00  0.00    -0.054 A  
HETATM   16 CL   UNL     1      -5.388  12.205  67.948  1.00  0.00    -0.057 Cl 
HETATM   17  C   UNL     1      -5.980   9.929  66.678  1.00  0.00    -0.055 A  
HETATM   18  C   UNL     1      -6.680   8.738  66.471  1.00  0.00    -0.071 A  
HETATM   19  C   UNL     1      -7.575   8.263  67.437  1.00  0.00    -0.098 A  
HETATM   20  C   UNL     1      -7.670   8.959  68.653  1.00  0.00    -0.097 A  
BRANCH  19  21
HETATM   21  C   UNL     1      -8.567   7.163  67.081  1.00  0.00    -0.121 C  
HETATM   22  O   UNL     1      -8.549   6.183  68.138  1.00  0.00    -0.116 OA 
HETATM   23  C   UNL     1      -9.627   5.246  68.052  1.00  0.00    -0.132 C  
HETATM   24  H   UNL     1      -8.408   7.033  63.793  1.00  0.00     0.000 HD 
HETATM   25  C   UNL     1      -9.502   4.440  66.760  1.00  0.00    -0.180 C  
HETATM   26  O   UNL     1      -8.513   7.448  64.641  1.00  0.00    -0.022 OA 
HETATM   27  C   UNL     1      -9.481   5.395  65.557  1.00  0.00     0.012 C  
HETATM   28  O   UNL     1     -10.575   3.508  66.593  1.00  0.00     0.671 OA 
HETATM   29  H   UNL     1      -9.283   5.229  63.611  1.00  0.00     0.000 HD 
HETATM   30  C   UNL     1      -8.396   6.487  65.701  1.00  0.00    -0.144 C  
HETATM   31  H   UNL     1     -10.498   3.007  65.789  1.00  0.00     0.000 HD 
HETATM   32  O   UNL     1      -9.296   4.638  64.354  1.00  0.00    -0.139 OA 
BRANCH  23  33
HETATM   33  C   UNL     1      -9.566   4.347  69.292  1.00  0.00    -0.191 C  
HETATM   34  O   UNL     1      -9.872   2.997  68.916  1.00  0.00     0.046 OA 
HETATM   35  H   UNL     1      -9.834   2.440  69.685  1.00  0.00     0.000 HD 
ENDBRANCH  23  33
ENDBRANCH  19  21
ENDBRANCH  13  14
ENDBRANCH  10  13
ENDBRANCH   6   7
ENDBRANCH   1   6
TORSDOF 6
ENDMDL
MODEL      300
REMARK 921   NORMALIZED FREE ENERGY PREDICTED BY IDOCK:   26.42 KCAL/MOL
REMARK 922        TOTAL FREE ENERGY PREDICTED BY IDOCK:   34.72 KCAL/MOL
REMARK 923 INTER-LIGAND FREE ENERGY PREDICTED BY IDOCK:   33.55 KCAL/MOL
REMARK 924 INTRA-LIGAND FREE ENERGY PREDICTED BY IDOCK:    1.16 KCAL/MOL
REMARK 927      BINDING AFFINITY PREDICTED BY RF-SCORE:    0.00 PKD
ROOT
HETATM    1  C   UNL     1      -9.707  17.208  71.824  1.00  0.00     7.452 C  
HETATM    2  C   UNL     1     -10.254  18.390  72.604  1.00  0.00     5.204 C  
HETATM    3  O   UNL     1     -12.106  17.134  71.900  1.00  0.00     0.917 OA 
HETATM    4  C   UNL     1     -11.631  17.925  72.994  1.00  0.00     2.002 C  
HETATM    5  C   UNL     1     -10.969  16.696  71.133  1.00  0.00     0.540 C  
ENDROOT
BRANCH   1   6
HETATM    6  O   UNL     1      -8.721  17.703  70.924  1.00  0.00     5.136 OA 
BRANCH   6   7
HETATM    7  C   UNL     1      -8.028  16.814  70.156  1.00  0.00     1.931 A  
HETATM    8  C   UNL     1      -7.565  14.678  69.116  1.00  0.00    -0.126 A  
HETATM    9  C   UNL     1      -8.299  15.456  70.028  1.00  0.00     0.365 A  
HETATM   10  C   UNL     1      -6.555  15.248  68.323  1.00  0.00    -0.116 A  
HETATM   11  C   UNL     1      -7.014  17.383  69.383  1.00  0.00    -0.108 A  
HETATM   12  C   UNL     1      -6.277  16.610  68.482  1.00  0.00    -0.135 A  
BRANCH  10  13
HETATM   13  C   UNL     1      -5.834  14.437  67.259  1.00  0.00     0.540 C  
BRANCH  13  14
HETATM   14  C   UNL     1      -6.390  13.032  67.125  1.00  0.00     0.228 A  
HETATM   15  C   UNL     1      -6.174  12.210  66.011  1.00  0.00     1.743 A  
HETATM   16 CL   UNL     1      -5.139  12.669  64.707  1.00  0.00     5.809 Cl 
HETATM   17  C   UNL     1      -6.834  10.981  65.899  1.00  0.00     0.036 A  
HETATM   18  C   UNL     1      -7.774  10.596  66.859  1.00  0.00    -0.122 A  
HETATM   19  C   UNL     1      -8.048  11.420  67.957  1.00  0.00    -0.134 A  
HETATM   20  C   UNL     1      -7.283  12.586  68.117  1.00  0.00    -0.106 A  
BRANCH  19  21
HETATM   21  C   UNL     1      -9.283  11.166  68.810  1.00  0.00    -0.145 C  
HETATM   22  O   UNL     1      -9.729  12.428  69.342  1.00  0.00     0.555 OA 
HETATM   23  C   UNL     1     -11.030  12.360  69.935  1.00  0.00     0.470 C  
HETATM   24  H   UNL     1      -8.722   8.180  70.086  1.00  0.00     0.000 HD 
HETATM   25  C   UNL     1     -10.995  11.413  71.134  1.00  0.00     2.636 C  
HETATM   26  O   UNL     1      -8.803   8.827  69.396  1.00  0.00    -0.139 OA 
HETATM   27  C   UNL     1     -10.500  10.030  70.685  1.00  0.00    -0.141 C  
HETATM   28  O   UNL     1     -12.278  11.269  71.752  1.00  0.00    -0.011 OA 
HETATM   29  H   UNL     1     -10.099   8.313  71.548  1.00  0.00     0.000 HD 
HETATM   30  C   UNL     1      -9.151  10.111  69.935  1.00  0.00    -0.073 C  
HETATM   31  H   UNL     1     -12.257  10.679  72.497  1.00  0.00     0.000 HD 
HETATM   32  O   UNL     1     -10.406   9.168  71.825  1.00  0.00    -0.344 OA 
BRANCH  23  33
HETATM   33  C   UNL     1     -11.435  13.781  70.341  1.00  0.00     0.045 C  
HETATM   34  O   UNL     1     -12.812  13.998  70.001  1.00  0.00    -0.357 OA 
HETATM   35  H   UNL     1     -13.064  14.879  70.252  1.00  0.00     0.000 HD 
ENDBRANCH  23  33
ENDBRANCH  19  21
ENDBRANCH  13  14
ENDBRANCH  10  13
ENDBRANCH   6   7
ENDBRANCH   1   6
TORSDOF 6
ENDMDL
MODEL      301
REMARK 921   NORMALIZED FREE ENERGY PREDICTED BY IDOCK:   30.38 KCAL/MOL
REMARK 922        TOTAL FREE ENERGY PREDICTED BY IDOCK:   40.07 KCAL/MOL
REMARK 923 INTER-LIGAND FREE ENERGY PREDICTED BY IDOCK:   40.99 KCAL/MOL
REMARK 924 INTRA-LIGAND FREE ENERGY PREDICTED BY IDOCK:   -0.92 KCAL/MOL
REMARK 927      BINDING AFFINITY PREDICTED BY RF-SCORE:    0.00 PKD
ROOT
HETATM    1  C   UNL     1      -6.048  12.715  70.885  1.00  0.00     0.444 C  
HETATM    2  C   UNL     1      -6.574  12.270  72.238  1.00  0.00     5.366 C  
HETATM    3  O   UNL     1      -5.666  10.367  71.211  1.00  0.00    -0.234 OA 
HETATM    4  C   UNL     1      -5.817  10.994  72.488  1.00  0.00     1.574 C  
HETATM    5  C   UNL     1      -5.830  11.372  70.193  1.00  0.00    -0.142 C  
ENDROOT
BRANCH   1   6
HETATM    6  O   UNL     1      -7.052  13.519  70.274  1.00  0.00     0.543 OA 
BRANCH   6   7
HETATM    7  C   UNL     1      -6.797  14.074  69.055  1.00  0.00    -0.111 A  
HETATM    8  C   UNL     1      -7.197  14.555  66.716  1.00  0.00     1.016 A  
HETATM    9  C   UNL     1      -7.504  13.831  67.881  1.00  0.00    -0.153 A  
HETATM   10  C   UNL     1      -6.183  15.528  66.712  1.00  0.00     0.964 A  
HETATM   11  C   UNL     1      -5.779  15.028  69.053  1.00  0.00    -0.096 A  
HETATM   12  C   UNL     1      -5.466  15.742  67.893  1.00  0.00    -0.148 A  
BRANCH  10  13
HETATM   13  C   UNL     1      -5.922  16.390  65.487  1.00  0.00     3.747 C  
BRANCH  13  14
HETATM   14  C   UNL     1      -6.815  17.615  65.438  1.00  0.00     0.472 A  
HETATM   15  C   UNL     1      -6.511  18.774  64.712  1.00  0.00     0.138 A  
HETATM   16 CL   UNL     1      -5.127  18.889  63.685  1.00  0.00    -0.244 Cl 
HETATM   17  C   UNL     1      -7.316  19.912  64.827  1.00  0.00     0.610 A  
HETATM   18  C   UNL     1      -8.385  19.932  65.726  1.00  0.00    -0.077 A  
HETATM   19  C   UNL     1      -8.683  18.806  66.503  1.00  0.00    -0.317 A  
HETATM   20  C   UNL     1      -7.944  17.633  66.278  1.00  0.00    -0.292 A  
BRANCH  19  21
HETATM   21  C   UNL     1      -9.619  18.930  67.697  1.00  0.00    -0.308 C  
HETATM   22  O   UNL     1     -10.457  20.084  67.492  1.00  0.00    -0.399 OA 
HETATM   23  C   UNL     1     -11.555  20.150  68.408  1.00  0.00     2.396 C  
HETATM   24  H   UNL     1      -7.807  17.792  70.203  1.00  0.00     0.000 HD 
HETATM   25  C   UNL     1     -11.023  20.291  69.834  1.00  0.00     1.751 C  
HETATM   26  O   UNL     1      -8.209  17.770  69.342  1.00  0.00     0.154 OA 
HETATM   27  C   UNL     1     -10.084  19.118  70.153  1.00  0.00     0.989 C  
HETATM   28  O   UNL     1     -12.073  20.323  70.807  1.00  0.00     6.765 OA 
HETATM   29  H   UNL     1      -8.957  18.567  71.662  1.00  0.00     0.000 HD 
HETATM   30  C   UNL     1      -8.965  18.966  69.098  1.00  0.00    -0.035 C  
HETATM   31  H   UNL     1     -11.742  20.411  71.693  1.00  0.00     0.000 HD 
HETATM   32  O   UNL     1      -9.537  19.292  71.466  1.00  0.00     2.934 OA 
BRANCH  23  33
HETATM   33  C   UNL     1     -12.431  21.341  68.005  1.00  0.00     8.195 C  
HETATM   34  O   UNL     1     -13.139  21.023  66.799  1.00  0.00     5.484 OA 
HETATM   35  H   UNL     1     -13.682  21.761  66.549  1.00  0.00     0.000 HD 
ENDBRANCH  23  33
ENDBRANCH  19  21
ENDBRANCH  13  14
ENDBRANCH  10  13
ENDBRANCH   6   7
ENDBRANCH   1   6
TORSDOF 6
ENDMDL
MODEL      302
REMARK 921   NORMALIZED FREE ENERGY PREDICTED BY IDOCK:   30.44 KCAL/MOL
REMARK 922        TOTAL FREE ENERGY PREDICTED BY IDOCK:   40.15 KCAL/MOL
REMARK 923 INTER-LIGAND FREE ENERGY PREDICTED BY IDOCK:   38.39 KCAL/MOL
REMARK 924 INTRA-LIGAND FREE ENERGY PREDICTED BY IDOCK:    1.76 KCAL/MOL
REMARK 927      BINDING AFFINITY PREDICTED BY RF-SCORE:    0.00 PKD
ROOT
HETATM    1  C   UNL     1      -5.891  13.486  69.711  1.00  0.00    -0.117 C  
HETATM    2  C   UNL     1      -7.278  13.679  70.296  1.00  0.00     1.054 C  
HETATM    3  O   UNL     1      -7.243  11.536  69.341  1.00  0.00    -0.092 OA 
HETATM    4  C   UNL     1      -7.775  12.266  70.450  1.00  0.00     3.621 C  
HETATM    5  C   UNL     1      -6.105  12.257  68.832  1.00  0.00    -0.073 C  
ENDROOT
BRANCH   1   6
HETATM    6  O   UNL     1      -5.561  14.663  68.983  1.00  0.00    -0.087 OA 
BRANCH   6   7
HETATM    7  C   UNL     1      -6.571  15.412  68.452  1.00  0.00    -0.113 A  
HETATM    8  C   UNL     1      -7.550  17.275  67.257  1.00  0.00    -0.204 A  
HETATM    9  C   UNL     1      -6.437  16.663  67.858  1.00  0.00    -0.150 A  
HETATM   10  C   UNL     1      -8.806  16.645  67.243  1.00  0.00    -0.206 A  
HETATM   11  C   UNL     1      -7.819  14.789  68.457  1.00  0.00    -0.130 A  
HETATM   12  C   UNL     1      -8.930  15.400  67.868  1.00  0.00    -0.173 A  
BRANCH  10  13
HETATM   13  C   UNL     1      -9.985  17.252  66.500  1.00  0.00    -0.310 C  
BRANCH  13  14
HETATM   14  C   UNL     1     -10.989  17.899  67.435  1.00  0.00    -0.089 A  
HETATM   15  C   UNL     1     -11.207  19.281  67.512  1.00  0.00     0.081 A  
HETATM   16 CL   UNL     1     -10.431  20.402  66.452  1.00  0.00    -0.320 Cl 
HETATM   17  C   UNL     1     -12.048  19.812  68.495  1.00  0.00     4.325 A  
HETATM   18  C   UNL     1     -12.619  18.977  69.460  1.00  0.00    13.915 A  
HETATM   19  C   UNL     1     -12.379  17.598  69.439  1.00  0.00     6.122 A  
HETATM   20  C   UNL     1     -11.638  17.071  68.370  1.00  0.00     0.497 A  
BRANCH  19  21
HETATM   21  C   UNL     1     -12.722  16.747  70.655  1.00  0.00     3.638 C  
HETATM   22  O   UNL     1     -12.195  17.403  71.825  1.00  0.00     2.361 OA 
HETATM   23  C   UNL     1     -12.683  16.844  73.049  1.00  0.00     0.929 C  
HETATM   24  H   UNL     1     -12.625  13.671  69.477  1.00  0.00     0.000 HD 
HETATM   25  C   UNL     1     -12.224  15.391  73.165  1.00  0.00    -0.456 C  
HETATM   26  O   UNL     1     -12.892  14.583  69.503  1.00  0.00     0.008 OA 
HETATM   27  C   UNL     1     -12.709  14.596  71.943  1.00  0.00    -0.332 C  
HETATM   28  O   UNL     1     -12.713  14.759  74.353  1.00  0.00    -0.438 OA 
HETATM   29  H   UNL     1     -12.518  12.763  71.270  1.00  0.00     0.000 HD 
HETATM   30  C   UNL     1     -12.288  15.263  70.613  1.00  0.00    -0.377 C  
HETATM   31  H   UNL     1     -12.427  13.855  74.425  1.00  0.00     0.000 HD 
HETATM   32  O   UNL     1     -12.218  13.253  72.026  1.00  0.00     0.225 OA 
BRANCH  23  33
HETATM   33  C   UNL     1     -12.153  17.704  74.201  1.00  0.00     0.769 C  
HETATM   34  O   UNL     1     -12.887  18.936  74.250  1.00  0.00     4.515 OA 
HETATM   35  H   UNL     1     -12.559  19.470  74.964  1.00  0.00     0.000 HD 
ENDBRANCH  23  33
ENDBRANCH  19  21
ENDBRANCH  13  14
ENDBRANCH  10  13
ENDBRANCH   6   7
ENDBRANCH   1   6
TORSDOF 6
ENDMDL
MODEL      303
REMARK 921   NORMALIZED FREE ENERGY PREDICTED BY IDOCK:   59.22 KCAL/MOL
REMARK 922        TOTAL FREE ENERGY PREDICTED BY IDOCK:   79.03 KCAL/MOL
REMARK 923 INTER-LIGAND FREE ENERGY PREDICTED BY IDOCK:   79.63 KCAL/MOL
REMARK 924 INTRA-LIGAND FREE ENERGY PREDICTED BY IDOCK:   -0.60 KCAL/MOL
REMARK 927      BINDING AFFINITY PREDICTED BY RF-SCORE:    0.00 PKD
ROOT
HETATM    1  C   UNL     1      -8.673  17.631  70.995  1.00  0.00     7.126 C  
HETATM    2  C   UNL     1      -7.723  18.728  70.548  1.00  0.00     2.455 C  
HETATM    3  O   UNL     1      -8.444  19.301  72.706  1.00  0.00     4.862 OA 
HETATM    4  C   UNL     1      -7.299  19.353  71.850  1.00  0.00     3.092 C  
HETATM    5  C   UNL     1      -9.333  18.283  72.208  1.00  0.00    10.975 C  
ENDROOT
BRANCH   1   6
HETATM    6  O   UNL     1      -9.572  17.375  69.921  1.00  0.00     0.581 OA 
BRANCH   6   7
HETATM    7  C   UNL     1      -9.113  16.707  68.824  1.00  0.00    -0.256 A  
HETATM    8  C   UNL     1      -7.446  15.715  67.376  1.00  0.00    -0.235 A  
HETATM    9  C   UNL     1      -7.777  16.516  68.482  1.00  0.00    -0.204 A  
HETATM   10  C   UNL     1      -8.443  15.097  66.602  1.00  0.00    -0.230 A  
HETATM   11  C   UNL     1     -10.108  16.110  68.050  1.00  0.00    -0.242 A  
HETATM   12  C   UNL     1      -9.781  15.320  66.944  1.00  0.00    -0.243 A  
BRANCH  10  13
HETATM   13  C   UNL     1      -8.088  14.143  65.474  1.00  0.00     4.274 C  
BRANCH  13  14
HETATM   14  C   UNL     1      -7.440  12.866  65.975  1.00  0.00     2.587 A  
HETATM   15  C   UNL     1      -7.086  11.793  65.147  1.00  0.00     2.340 A  
HETATM   16 CL   UNL     1      -7.243  11.857  63.428  1.00  0.00     2.834 Cl 
HETATM   17  C   UNL     1      -6.621  10.595  65.701  1.00  0.00    -0.079 A  
HETATM   18  C   UNL     1      -6.578  10.429  67.087  1.00  0.00    -0.073 A  
HETATM   19  C   UNL     1      -6.973  11.467  67.940  1.00  0.00    -0.073 A  
HETATM   20  C   UNL     1      -7.313  12.703  67.367  1.00  0.00    -0.140 A  
BRANCH  19  21
HETATM   21  C   UNL     1      -7.237  11.183  69.413  1.00  0.00    -0.091 C  
HETATM   22  O   UNL     1      -8.603  10.746  69.549  1.00  0.00    -0.045 OA 
HETATM   23  C   UNL     1      -8.890  10.194  70.838  1.00  0.00     1.445 C  
HETATM   24  H   UNL     1      -5.344  13.393  70.960  1.00  0.00     0.000 HD 
HETATM   25  C   UNL     1      -8.709  11.271  71.906  1.00  0.00    13.125 C  
HETATM   26  O   UNL     1      -5.537  12.693  70.348  1.00  0.00    -0.138 OA 
HETATM   27  C   UNL     1      -7.282  11.836  71.834  1.00  0.00     8.118 C  
HETATM   28  O   UNL     1      -8.944  10.773  73.228  1.00  0.00    10.886 OA 
HETATM   29  H   UNL     1      -6.259  13.240  72.747  1.00  0.00     0.000 HD 
HETATM   30  C   UNL     1      -6.922  12.323  70.411  1.00  0.00     1.560 C  
HETATM   31  H   UNL     1      -8.831  11.443  73.892  1.00  0.00     0.000 HD 
HETATM   32  O   UNL     1      -7.141  12.891  72.792  1.00  0.00     5.927 OA 
BRANCH  23  33
HETATM   33  C   UNL     1     -10.324   9.655  70.808  1.00  0.00    -0.286 C  
HETATM   34  O   UNL     1     -10.708   9.401  69.449  1.00  0.00    -0.223 OA 
HETATM   35  H   UNL     1     -11.597   9.067  69.429  1.00  0.00     0.000 HD 
ENDBRANCH  23  33
ENDBRANCH  19  21
ENDBRANCH  13  14
ENDBRANCH  10  13
ENDBRANCH   6   7
ENDBRANCH   1   6
TORSDOF 6
ENDMDL
