MODEL        1
REMARK 921   NORMALIZED FREE ENERGY PREDICTED BY IDOCK:   -6.53 KCAL/MOL
REMARK 922        TOTAL FREE ENERGY PREDICTED BY IDOCK:   -7.48 KCAL/MOL
REMARK 923 INTER-LIGAND FREE ENERGY PREDICTED BY IDOCK:   -7.29 KCAL/MOL
REMARK 924 INTRA-LIGAND FREE ENERGY PREDICTED BY IDOCK:   -0.19 KCAL/MOL
REMARK 927      BINDING AFFINITY PREDICTED BY RF-SCORE:    0.00 PKD
ROOT
HETATM    1  N   UNL     1     -12.755  11.946  63.120  1.00  0.00    -0.915 NA 
HETATM    2  H2  UNL     1     -13.506  12.202  62.479  1.00  0.00     0.000 HD 
HETATM    3  C   UNL     1     -12.027  12.902  63.776  1.00  0.00    -0.512 C  
HETATM    4  H1  UNL     1     -12.520  10.968  63.294  1.00  0.00     0.000 HD 
HETATM    5  N   UNL     1     -12.326  14.147  63.554  1.00  0.00    -1.127 N  
HETATM    6  H   UNL     1     -13.066  14.380  62.892  1.00  0.00     0.000 HD 
HETATM    7  C   UNL     1     -11.650  15.154  64.209  1.00  0.00    -0.184 C  
HETATM    8  N   UNL     1     -10.667  14.806  65.160  1.00  0.00    -0.385 N  
HETATM    9  O   UNL     1     -11.904  16.329  63.960  1.00  0.00    -0.958 OA 
HETATM   10  F   UNL     1     -10.647  11.207  64.823  1.00  0.00    -0.342 F  
HETATM   11  C   UNL     1     -10.330  13.480  65.366  1.00  0.00    -0.319 C  
HETATM   12  C   UNL     1     -10.946  12.511  64.701  1.00  0.00    -0.310 C  
ENDROOT
BRANCH   8  13
HETATM   13  C   UNL     1     -10.046  15.909  65.903  1.00  0.00    -0.352 C  
HETATM   14  C   UNL     1      -8.588  15.748  66.355  1.00  0.00    -0.311 C  
HETATM   15  S   UNL     1      -8.700  14.999  67.984  1.00  0.00    -0.164 SA 
HETATM   16  C   UNL     1     -10.305  15.774  68.273  1.00  0.00    -0.239 C  
HETATM   17  O   UNL     1     -10.880  16.216  67.035  1.00  0.00    -0.292 OA 
BRANCH  16  18
HETATM   18  C   UNL     1     -11.318  14.866  68.986  1.00  0.00    -0.292 C  
HETATM   19  O   UNL     1     -12.493  14.654  68.201  1.00  0.00    -0.587 OA 
HETATM   20  H   UNL     1     -13.120  14.093  68.642  1.00  0.00     0.000 HD 
ENDBRANCH  16  18
ENDBRANCH   8  13
TORSDOF 2
ENDMDL
MODEL        2
REMARK 921   NORMALIZED FREE ENERGY PREDICTED BY IDOCK:   -6.43 KCAL/MOL
REMARK 922        TOTAL FREE ENERGY PREDICTED BY IDOCK:   -7.38 KCAL/MOL
REMARK 923 INTER-LIGAND FREE ENERGY PREDICTED BY IDOCK:   -7.21 KCAL/MOL
REMARK 924 INTRA-LIGAND FREE ENERGY PREDICTED BY IDOCK:   -0.16 KCAL/MOL
REMARK 927      BINDING AFFINITY PREDICTED BY RF-SCORE:    0.00 PKD
ROOT
HETATM    1  N   UNL     1     -12.964  12.585  63.841  1.00  0.00    -0.750 NA 
HETATM    2  H2  UNL     1     -13.651  12.814  63.122  1.00  0.00     0.000 HD 
HETATM    3  C   UNL     1     -12.157  13.550  64.383  1.00  0.00    -0.420 C  
HETATM    4  H1  UNL     1     -12.855  11.630  64.181  1.00  0.00     0.000 HD 
HETATM    5  N   UNL     1     -12.296  14.767  63.949  1.00  0.00    -1.070 N  
HETATM    6  H   UNL     1     -12.973  14.968  63.213  1.00  0.00     0.000 HD 
HETATM    7  C   UNL     1     -11.533  15.787  64.477  1.00  0.00    -0.289 C  
HETATM    8  N   UNL     1     -10.642  15.493  65.531  1.00  0.00    -0.369 N  
HETATM    9  O   UNL     1     -11.635  16.926  64.031  1.00  0.00    -1.123 OA 
HETATM   10  F   UNL     1     -11.037  11.907  65.768  1.00  0.00    -0.321 F  
HETATM   11  C   UNL     1     -10.475  14.190  65.965  1.00  0.00    -0.304 C  
HETATM   12  C   UNL     1     -11.172  13.199  65.424  1.00  0.00    -0.291 C  
ENDROOT
BRANCH   8  13
HETATM   13  C   UNL     1      -9.927  16.627  66.129  1.00  0.00    -0.337 C  
HETATM   14  C   UNL     1      -8.465  16.424  66.546  1.00  0.00    -0.301 C  
HETATM   15  S   UNL     1      -8.555  15.861  68.250  1.00  0.00    -0.181 SA 
HETATM   16  C   UNL     1     -10.099  16.763  68.507  1.00  0.00    -0.281 C  
HETATM   17  O   UNL     1     -10.695  17.105  67.248  1.00  0.00    -0.302 OA 
BRANCH  16  18
HETATM   18  C   UNL     1     -11.134  16.002  69.348  1.00  0.00    -0.331 C  
HETATM   19  O   UNL     1     -12.242  15.559  68.562  1.00  0.00    -0.546 OA 
HETATM   20  H   UNL     1     -12.882  15.088  69.082  1.00  0.00     0.000 HD 
ENDBRANCH  16  18
ENDBRANCH   8  13
TORSDOF 2
ENDMDL
MODEL        3
REMARK 921   NORMALIZED FREE ENERGY PREDICTED BY IDOCK:   -6.26 KCAL/MOL
REMARK 922        TOTAL FREE ENERGY PREDICTED BY IDOCK:   -7.19 KCAL/MOL
REMARK 923 INTER-LIGAND FREE ENERGY PREDICTED BY IDOCK:   -7.11 KCAL/MOL
REMARK 924 INTRA-LIGAND FREE ENERGY PREDICTED BY IDOCK:   -0.08 KCAL/MOL
REMARK 927      BINDING AFFINITY PREDICTED BY RF-SCORE:    0.00 PKD
ROOT
HETATM    1  N   UNL     1     -11.599  16.590  63.879  1.00  0.00    -1.578 NA 
HETATM    2  H2  UNL     1     -12.389  16.825  63.278  1.00  0.00     0.000 HD 
HETATM    3  C   UNL     1     -11.477  15.345  64.436  1.00  0.00    -0.255 C  
HETATM    4  H1  UNL     1     -10.872  17.276  64.087  1.00  0.00     0.000 HD 
HETATM    5  N   UNL     1     -12.403  14.472  64.172  1.00  0.00    -0.858 N  
HETATM    6  H   UNL     1     -13.195  14.736  63.586  1.00  0.00     0.000 HD 
HETATM    7  C   UNL     1     -12.319  13.193  64.678  1.00  0.00    -0.405 C  
HETATM    8  N   UNL     1     -11.186  12.836  65.441  1.00  0.00    -0.285 N  
HETATM    9  O   UNL     1     -13.220  12.386  64.464  1.00  0.00    -0.834 OA 
HETATM   10  F   UNL     1      -9.448  16.002  65.587  1.00  0.00    -0.335 F  
HETATM   11  C   UNL     1     -10.223  13.779  65.746  1.00  0.00    -0.311 C  
HETATM   12  C   UNL     1     -10.325  15.026  65.302  1.00  0.00    -0.395 C  
ENDROOT
BRANCH   8  13
HETATM   13  C   UNL     1     -11.094  11.436  65.872  1.00  0.00    -0.162 C  
HETATM   14  C   UNL     1     -10.055  11.074  66.941  1.00  0.00    -0.210 C  
HETATM   15  S   UNL     1      -8.575  10.660  66.010  1.00  0.00    -0.177 SA 
HETATM   16  C   UNL     1      -9.566  10.110  64.605  1.00  0.00    -0.315 C  
HETATM   17  O   UNL     1     -10.904  10.616  64.705  1.00  0.00    -0.132 OA 
BRANCH  16  18
HETATM   18  C   UNL     1      -8.991  10.513  63.239  1.00  0.00    -0.229 C  
HETATM   19  O   UNL     1      -9.250  11.885  62.933  1.00  0.00    -0.624 OA 
HETATM   20  H   UNL     1      -8.894  12.134  62.089  1.00  0.00     0.000 HD 
ENDBRANCH  16  18
ENDBRANCH   8  13
TORSDOF 2
ENDMDL
MODEL        4
REMARK 921   NORMALIZED FREE ENERGY PREDICTED BY IDOCK:   -6.01 KCAL/MOL
REMARK 922        TOTAL FREE ENERGY PREDICTED BY IDOCK:   -6.91 KCAL/MOL
REMARK 923 INTER-LIGAND FREE ENERGY PREDICTED BY IDOCK:   -6.78 KCAL/MOL
REMARK 924 INTRA-LIGAND FREE ENERGY PREDICTED BY IDOCK:   -0.13 KCAL/MOL
REMARK 927      BINDING AFFINITY PREDICTED BY RF-SCORE:    0.00 PKD
ROOT
HETATM    1  N   UNL     1     -11.497  16.583  63.880  1.00  0.00    -1.599 NA 
HETATM    2  H2  UNL     1     -11.957  16.635  62.971  1.00  0.00     0.000 HD 
HETATM    3  C   UNL     1     -11.580  15.456  64.654  1.00  0.00    -0.311 C  
HETATM    4  H1  UNL     1     -10.959  17.369  64.244  1.00  0.00     0.000 HD 
HETATM    5  N   UNL     1     -12.266  14.455  64.189  1.00  0.00    -0.761 N  
HETATM    6  H   UNL     1     -12.737  14.537  63.288  1.00  0.00     0.000 HD 
HETATM    7  C   UNL     1     -12.361  13.282  64.908  1.00  0.00    -0.425 C  
HETATM    8  N   UNL     1     -11.657  13.173  66.127  1.00  0.00    -0.338 N  
HETATM    9  O   UNL     1     -13.049  12.356  64.487  1.00  0.00    -0.823 OA 
HETATM   10  F   UNL     1     -10.276  16.501  66.408  1.00  0.00    -0.268 F  
HETATM   11  C   UNL     1     -10.957  14.254  66.630  1.00  0.00    -0.310 C  
HETATM   12  C   UNL     1     -10.905  15.400  65.964  1.00  0.00    -0.314 C  
ENDROOT
BRANCH   8  13
HETATM   13  C   UNL     1     -11.707  11.872  66.805  1.00  0.00    -0.202 C  
HETATM   14  C   UNL     1     -11.420  11.828  68.311  1.00  0.00    -0.307 C  
HETATM   15  S   UNL     1      -9.644  11.578  68.425  1.00  0.00    -0.188 SA 
HETATM   16  C   UNL     1      -9.628  10.699  66.848  1.00  0.00    -0.171 C  
HETATM   17  O   UNL     1     -10.828  10.968  66.111  1.00  0.00    -0.234 OA 
BRANCH  16  18
HETATM   18  C   UNL     1      -8.421  11.035  65.959  1.00  0.00    -0.158 C  
HETATM   19  O   UNL     1      -7.793  12.258  66.349  1.00  0.00    -0.372 OA 
HETATM   20  H   UNL     1      -7.047  12.466  65.799  1.00  0.00     0.000 HD 
ENDBRANCH  16  18
ENDBRANCH   8  13
TORSDOF 2
ENDMDL
MODEL        5
REMARK 921   NORMALIZED FREE ENERGY PREDICTED BY IDOCK:   -5.82 KCAL/MOL
REMARK 922        TOTAL FREE ENERGY PREDICTED BY IDOCK:   -6.70 KCAL/MOL
REMARK 923 INTER-LIGAND FREE ENERGY PREDICTED BY IDOCK:   -6.65 KCAL/MOL
REMARK 924 INTRA-LIGAND FREE ENERGY PREDICTED BY IDOCK:   -0.04 KCAL/MOL
REMARK 927      BINDING AFFINITY PREDICTED BY RF-SCORE:    0.00 PKD
ROOT
HETATM    1  N   UNL     1     -10.054  10.590  62.374  1.00  0.00    -0.746 NA 
HETATM    2  H2  UNL     1     -10.474  10.617  61.445  1.00  0.00     0.000 HD 
HETATM    3  C   UNL     1     -10.417  11.486  63.343  1.00  0.00    -0.406 C  
HETATM    4  H1  UNL     1      -9.348   9.893  62.613  1.00  0.00     0.000 HD 
HETATM    5  N   UNL     1     -11.317  12.373  63.038  1.00  0.00    -0.679 N  
HETATM    6  H   UNL     1     -11.707  12.396  62.096  1.00  0.00     0.000 HD 
HETATM    7  C   UNL     1     -11.746  13.283  63.981  1.00  0.00    -0.430 C  
HETATM    8  N   UNL     1     -11.231  13.197  65.292  1.00  0.00    -0.288 N  
HETATM    9  O   UNL     1     -12.562  14.148  63.674  1.00  0.00    -0.831 OA 
HETATM   10  F   UNL     1      -8.824  10.530  64.898  1.00  0.00    -0.167 F  
HETATM   11  C   UNL     1     -10.250  12.273  65.600  1.00  0.00    -0.261 C  
HETATM   12  C   UNL     1      -9.799  11.428  64.681  1.00  0.00    -0.259 C  
ENDROOT
BRANCH   8  13
HETATM   13  C   UNL     1     -11.793  14.122  66.285  1.00  0.00    -0.411 C  
HETATM   14  C   UNL     1     -10.858  15.160  66.918  1.00  0.00    -0.317 C  
HETATM   15  S   UNL     1     -10.194  14.342  68.373  1.00  0.00    -0.247 SA 
HETATM   16  C   UNL     1     -11.685  13.338  68.538  1.00  0.00    -0.352 C  
HETATM   17  O   UNL     1     -12.432  13.344  67.313  1.00  0.00    -0.194 OA 
BRANCH  16  18
HETATM   18  C   UNL     1     -11.416  11.880  68.939  1.00  0.00    -0.301 C  
HETATM   19  O   UNL     1     -12.346  10.978  68.336  1.00  0.00    -0.762 OA 
HETATM   20  H   UNL     1     -12.179  10.077  68.584  1.00  0.00     0.000 HD 
ENDBRANCH  16  18
ENDBRANCH   8  13
TORSDOF 2
ENDMDL
MODEL        6
REMARK 921   NORMALIZED FREE ENERGY PREDICTED BY IDOCK:   -5.82 KCAL/MOL
REMARK 922        TOTAL FREE ENERGY PREDICTED BY IDOCK:   -6.69 KCAL/MOL
REMARK 923 INTER-LIGAND FREE ENERGY PREDICTED BY IDOCK:   -6.89 KCAL/MOL
REMARK 924 INTRA-LIGAND FREE ENERGY PREDICTED BY IDOCK:    0.20 KCAL/MOL
REMARK 927      BINDING AFFINITY PREDICTED BY RF-SCORE:    0.00 PKD
ROOT
HETATM    1  N   UNL     1     -11.382  14.831  71.623  1.00  0.00    -0.499 NA 
HETATM    2  H2  UNL     1     -11.463  14.186  72.409  1.00  0.00     0.000 HD 
HETATM    3  C   UNL     1     -11.534  14.397  70.333  1.00  0.00    -0.170 C  
HETATM    4  H1  UNL     1     -11.187  15.821  71.770  1.00  0.00     0.000 HD 
HETATM    5  N   UNL     1     -11.783  13.135  70.146  1.00  0.00    -0.527 N  
HETATM    6  H   UNL     1     -11.837  12.505  70.946  1.00  0.00     0.000 HD 
HETATM    7  C   UNL     1     -11.976  12.644  68.872  1.00  0.00    -0.242 C  
HETATM    8  N   UNL     1     -11.951  13.544  67.785  1.00  0.00    -0.354 N  
HETATM    9  O   UNL     1     -12.165  11.443  68.697  1.00  0.00    -0.532 OA 
HETATM   10  F   UNL     1     -11.086  16.619  69.477  1.00  0.00    -0.305 F  
HETATM   11  C   UNL     1     -11.652  14.879  67.989  1.00  0.00    -0.341 C  
HETATM   12  C   UNL     1     -11.417  15.345  69.209  1.00  0.00    -0.333 C  
ENDROOT
BRANCH   8  13
HETATM   13  C   UNL     1     -12.262  12.992  66.461  1.00  0.00    -0.246 C  
HETATM   14  C   UNL     1     -11.255  12.025  65.825  1.00  0.00    -0.334 C  
HETATM   15  S   UNL     1     -10.146  13.081  64.886  1.00  0.00    -0.159 SA 
HETATM   16  C   UNL     1     -11.457  14.297  64.631  1.00  0.00    -0.385 C  
HETATM   17  O   UNL     1     -12.524  14.087  65.566  1.00  0.00    -0.458 OA 
BRANCH  16  18
HETATM   18  C   UNL     1     -10.987  15.755  64.743  1.00  0.00    -0.393 C  
HETATM   19  O   UNL     1     -11.545  16.577  63.716  1.00  0.00    -1.617 OA 
HETATM   20  H   UNL     1     -11.254  17.479  63.785  1.00  0.00     0.000 HD 
ENDBRANCH  16  18
ENDBRANCH   8  13
TORSDOF 2
ENDMDL
MODEL        7
REMARK 921   NORMALIZED FREE ENERGY PREDICTED BY IDOCK:   -5.68 KCAL/MOL
REMARK 922        TOTAL FREE ENERGY PREDICTED BY IDOCK:   -6.53 KCAL/MOL
REMARK 923 INTER-LIGAND FREE ENERGY PREDICTED BY IDOCK:   -6.60 KCAL/MOL
REMARK 924 INTRA-LIGAND FREE ENERGY PREDICTED BY IDOCK:    0.07 KCAL/MOL
REMARK 927      BINDING AFFINITY PREDICTED BY RF-SCORE:    0.00 PKD
ROOT
HETATM    1  N   UNL     1     -12.410  13.783  63.109  1.00  0.00    -1.106 NA 
HETATM    2  H2  UNL     1     -12.785  12.939  62.675  1.00  0.00     0.000 HD 
HETATM    3  C   UNL     1     -12.053  13.801  64.431  1.00  0.00    -0.436 C  
HETATM    4  H1  UNL     1     -12.287  14.642  62.573  1.00  0.00     0.000 HD 
HETATM    5  N   UNL     1     -12.210  12.706  65.113  1.00  0.00    -0.466 N  
HETATM    6  H   UNL     1     -12.608  11.881  64.664  1.00  0.00     0.000 HD 
HETATM    7  C   UNL     1     -11.840  12.653  66.440  1.00  0.00    -0.402 C  
HETATM    8  N   UNL     1     -11.242  13.790  67.025  1.00  0.00    -0.302 N  
HETATM    9  O   UNL     1     -12.034  11.631  67.093  1.00  0.00    -0.614 OA 
HETATM   10  F   UNL     1     -11.446  16.142  64.289  1.00  0.00    -0.500 F  
HETATM   11  C   UNL     1     -11.109  14.961  66.303  1.00  0.00    -0.340 C  
HETATM   12  C   UNL     1     -11.510  15.030  65.039  1.00  0.00    -0.364 C  
ENDROOT
BRANCH   8  13
HETATM   13  C   UNL     1     -10.774  13.652  68.410  1.00  0.00    -0.258 C  
HETATM   14  C   UNL     1     -11.769  13.934  69.543  1.00  0.00    -0.313 C  
HETATM   15  S   UNL     1     -11.582  15.688  69.881  1.00  0.00    -0.370 SA 
HETATM   16  C   UNL     1      -9.858  15.648  69.347  1.00  0.00    -0.284 C  
HETATM   17  O   UNL     1      -9.600  14.469  68.572  1.00  0.00    -0.210 OA 
BRANCH  16  18
HETATM   18  C   UNL     1      -9.428  16.875  68.530  1.00  0.00    -0.266 C  
HETATM   19  O   UNL     1     -10.469  17.851  68.442  1.00  0.00    -0.367 OA 
HETATM   20  H   UNL     1     -10.203  18.609  67.937  1.00  0.00     0.000 HD 
ENDBRANCH  16  18
ENDBRANCH   8  13
TORSDOF 2
ENDMDL
MODEL        8
REMARK 921   NORMALIZED FREE ENERGY PREDICTED BY IDOCK:   -5.59 KCAL/MOL
REMARK 922        TOTAL FREE ENERGY PREDICTED BY IDOCK:   -6.44 KCAL/MOL
REMARK 923 INTER-LIGAND FREE ENERGY PREDICTED BY IDOCK:   -6.42 KCAL/MOL
REMARK 924 INTRA-LIGAND FREE ENERGY PREDICTED BY IDOCK:   -0.02 KCAL/MOL
REMARK 927      BINDING AFFINITY PREDICTED BY RF-SCORE:    0.00 PKD
ROOT
HETATM    1  N   UNL     1     -14.077  13.981  72.568  1.00  0.00    -0.674 NA 
HETATM    2  H2  UNL     1     -14.521  13.443  73.312  1.00  0.00     0.000 HD 
HETATM    3  C   UNL     1     -13.272  13.376  71.639  1.00  0.00    -0.364 C  
HETATM    4  H1  UNL     1     -14.218  14.988  72.489  1.00  0.00     0.000 HD 
HETATM    5  N   UNL     1     -13.093  12.093  71.740  1.00  0.00    -0.420 N  
HETATM    6  H   UNL     1     -13.528  11.579  72.506  1.00  0.00     0.000 HD 
HETATM    7  C   UNL     1     -12.318  11.422  70.817  1.00  0.00    -0.386 C  
HETATM    8  N   UNL     1     -11.771  12.146  69.736  1.00  0.00    -0.320 N  
HETATM    9  O   UNL     1     -12.114  10.219  70.944  1.00  0.00    -0.308 OA 
HETATM   10  F   UNL     1     -12.815  15.504  70.573  1.00  0.00    -0.423 F  
HETATM   11  C   UNL     1     -11.937  13.516  69.654  1.00  0.00    -0.337 C  
HETATM   12  C   UNL     1     -12.641  14.172  70.568  1.00  0.00    -0.342 C  
ENDROOT
BRANCH   8  13
HETATM   13  C   UNL     1     -11.039  11.372  68.726  1.00  0.00    -0.235 C  
HETATM   14  C   UNL     1      -9.605  11.799  68.384  1.00  0.00    -0.191 C  
HETATM   15  S   UNL     1      -9.793  12.973  67.037  1.00  0.00    -0.244 SA 
HETATM   16  C   UNL     1     -11.309  12.160  66.488  1.00  0.00    -0.350 C  
HETATM   17  O   UNL     1     -11.836  11.325  67.529  1.00  0.00    -0.613 OA 
BRANCH  16  18
HETATM   18  C   UNL     1     -12.410  13.132  66.036  1.00  0.00    -0.359 C  
HETATM   19  O   UNL     1     -13.155  12.618  64.930  1.00  0.00    -0.850 OA 
HETATM   20  H   UNL     1     -13.836  13.218  64.650  1.00  0.00     0.000 HD 
ENDBRANCH  16  18
ENDBRANCH   8  13
TORSDOF 2
ENDMDL
MODEL        9
REMARK 921   NORMALIZED FREE ENERGY PREDICTED BY IDOCK:   -5.51 KCAL/MOL
REMARK 922        TOTAL FREE ENERGY PREDICTED BY IDOCK:   -6.34 KCAL/MOL
REMARK 923 INTER-LIGAND FREE ENERGY PREDICTED BY IDOCK:   -6.15 KCAL/MOL
REMARK 924 INTRA-LIGAND FREE ENERGY PREDICTED BY IDOCK:   -0.20 KCAL/MOL
REMARK 927      BINDING AFFINITY PREDICTED BY RF-SCORE:    0.00 PKD
ROOT
HETATM    1  N   UNL     1     -12.534  14.062  62.967  1.00  0.00    -0.988 NA 
HETATM    2  H2  UNL     1     -12.326  14.069  61.969  1.00  0.00     0.000 HD 
HETATM    3  C   UNL     1     -11.977  13.129  63.801  1.00  0.00    -0.508 C  
HETATM    4  H1  UNL     1     -13.165  14.750  63.380  1.00  0.00     0.000 HD 
HETATM    5  N   UNL     1     -11.174  12.253  63.275  1.00  0.00    -0.686 N  
HETATM    6  H   UNL     1     -10.998  12.265  62.270  1.00  0.00     0.000 HD 
HETATM    7  C   UNL     1     -10.559  11.307  64.067  1.00  0.00    -0.386 C  
HETATM    8  N   UNL     1     -10.776  11.344  65.462  1.00  0.00    -0.272 N  
HETATM    9  O   UNL     1      -9.838  10.453  63.559  1.00  0.00    -0.309 OA 
HETATM   10  F   UNL     1     -13.185  14.028  65.699  1.00  0.00    -0.554 F  
HETATM   11  C   UNL     1     -11.658  12.257  66.009  1.00  0.00    -0.393 C  
HETATM   12  C   UNL     1     -12.290  13.137  65.243  1.00  0.00    -0.481 C  
ENDROOT
BRANCH   8  13
HETATM   13  C   UNL     1     -10.021  10.382  66.274  1.00  0.00    -0.226 C  
HETATM   14  C   UNL     1     -10.687   9.817  67.535  1.00  0.00    -0.264 C  
HETATM   15  S   UNL     1     -10.222  10.958  68.842  1.00  0.00    -0.195 SA 
HETATM   16  C   UNL     1      -8.684  11.369  67.988  1.00  0.00    -0.148 C  
HETATM   17  O   UNL     1      -8.753  10.974  66.611  1.00  0.00    -0.150 OA 
BRANCH  16  18
HETATM   18  C   UNL     1      -8.313  12.858  68.052  1.00  0.00    -0.169 C  
HETATM   19  O   UNL     1      -8.417  13.491  66.775  1.00  0.00    -0.418 OA 
HETATM   20  H   UNL     1      -8.188  14.411  66.814  1.00  0.00     0.000 HD 
ENDBRANCH  16  18
ENDBRANCH   8  13
TORSDOF 2
ENDMDL
MODEL       10
REMARK 921   NORMALIZED FREE ENERGY PREDICTED BY IDOCK:   -5.49 KCAL/MOL
REMARK 922        TOTAL FREE ENERGY PREDICTED BY IDOCK:   -6.33 KCAL/MOL
REMARK 923 INTER-LIGAND FREE ENERGY PREDICTED BY IDOCK:   -6.38 KCAL/MOL
REMARK 924 INTRA-LIGAND FREE ENERGY PREDICTED BY IDOCK:    0.05 KCAL/MOL
REMARK 927      BINDING AFFINITY PREDICTED BY RF-SCORE:    0.00 PKD
ROOT
HETATM    1  N   UNL     1     -11.505  16.544  63.909  1.00  0.00    -1.599 NA 
HETATM    2  H2  UNL     1     -12.247  16.743  63.238  1.00  0.00     0.000 HD 
HETATM    3  C   UNL     1     -11.471  15.362  64.599  1.00  0.00    -0.337 C  
HETATM    4  H1  UNL     1     -10.762  17.219  64.090  1.00  0.00     0.000 HD 
HETATM    5  N   UNL     1     -12.418  14.502  64.369  1.00  0.00    -0.673 N  
HETATM    6  H   UNL     1     -13.162  14.732  63.711  1.00  0.00     0.000 HD 
HETATM    7  C   UNL     1     -12.422  13.281  65.010  1.00  0.00    -0.443 C  
HETATM    8  N   UNL     1     -11.353  12.965  65.876  1.00  0.00    -0.301 N  
HETATM    9  O   UNL     1     -13.344  12.492  64.824  1.00  0.00    -0.773 OA 
HETATM   10  F   UNL     1      -9.486  16.059  65.801  1.00  0.00    -0.318 F  
HETATM   11  C   UNL     1     -10.368  13.897  66.141  1.00  0.00    -0.301 C  
HETATM   12  C   UNL     1     -10.388  15.092  65.564  1.00  0.00    -0.375 C  
ENDROOT
BRANCH   8  13
HETATM   13  C   UNL     1     -11.349  11.616  66.455  1.00  0.00    -0.263 C  
HETATM   14  C   UNL     1     -11.990  11.418  67.835  1.00  0.00    -0.045 C  
HETATM   15  S   UNL     1     -10.649  11.689  68.999  1.00  0.00    -0.101 SA 
HETATM   16  C   UNL     1      -9.433  11.120  67.791  1.00  0.00    -0.168 C  
HETATM   17  O   UNL     1      -9.993  11.136  66.471  1.00  0.00    -0.202 OA 
BRANCH  16  18
HETATM   18  C   UNL     1      -8.132  11.936  67.782  1.00  0.00    -0.146 C  
HETATM   19  O   UNL     1      -8.080  12.872  68.860  1.00  0.00    -0.336 OA 
HETATM   20  H   UNL     1      -7.276  13.377  68.855  1.00  0.00     0.000 HD 
ENDBRANCH  16  18
ENDBRANCH   8  13
TORSDOF 2
ENDMDL
MODEL       11
REMARK 921   NORMALIZED FREE ENERGY PREDICTED BY IDOCK:   -5.45 KCAL/MOL
REMARK 922        TOTAL FREE ENERGY PREDICTED BY IDOCK:   -6.28 KCAL/MOL
REMARK 923 INTER-LIGAND FREE ENERGY PREDICTED BY IDOCK:   -6.31 KCAL/MOL
REMARK 924 INTRA-LIGAND FREE ENERGY PREDICTED BY IDOCK:    0.03 KCAL/MOL
REMARK 927      BINDING AFFINITY PREDICTED BY RF-SCORE:    0.00 PKD
ROOT
HETATM    1  N   UNL     1     -10.448  17.887  68.047  1.00  0.00    -0.384 NA 
HETATM    2  H2  UNL     1     -10.700  18.290  68.949  1.00  0.00     0.000 HD 
HETATM    3  C   UNL     1     -10.767  16.592  67.736  1.00  0.00    -0.327 C  
HETATM    4  H1  UNL     1      -9.950  18.434  67.345  1.00  0.00     0.000 HD 
HETATM    5  N   UNL     1     -11.402  15.895  68.630  1.00  0.00    -0.359 N  
HETATM    6  H   UNL     1     -11.624  16.312  69.534  1.00  0.00     0.000 HD 
HETATM    7  C   UNL     1     -11.778  14.596  68.364  1.00  0.00    -0.320 C  
HETATM    8  N   UNL     1     -11.507  14.058  67.086  1.00  0.00    -0.333 N  
HETATM    9  O   UNL     1     -12.336  13.926  69.228  1.00  0.00    -0.323 OA 
HETATM   10  F   UNL     1      -9.676  16.787  65.581  1.00  0.00    -0.283 F  
HETATM   11  C   UNL     1     -10.802  14.794  66.152  1.00  0.00    -0.321 C  
HETATM   12  C   UNL     1     -10.395  16.028  66.424  1.00  0.00    -0.305 C  
ENDROOT
BRANCH   8  13
HETATM   13  C   UNL     1     -12.016  12.708  66.816  1.00  0.00    -0.292 C  
HETATM   14  C   UNL     1     -11.044  11.528  66.948  1.00  0.00    -0.307 C  
HETATM   15  S   UNL     1     -10.323  11.351  65.312  1.00  0.00    -0.295 SA 
HETATM   16  C   UNL     1     -11.816  12.013  64.541  1.00  0.00    -0.285 C  
HETATM   17  O   UNL     1     -12.616  12.706  65.509  1.00  0.00    -0.634 OA 
BRANCH  16  18
HETATM   18  C   UNL     1     -11.543  12.961  63.363  1.00  0.00    -0.403 C  
HETATM   19  O   UNL     1     -12.533  13.986  63.261  1.00  0.00    -1.139 OA 
HETATM   20  H   UNL     1     -12.365  14.572  62.533  1.00  0.00     0.000 HD 
ENDBRANCH  16  18
ENDBRANCH   8  13
TORSDOF 2
ENDMDL
MODEL       12
REMARK 921   NORMALIZED FREE ENERGY PREDICTED BY IDOCK:   -5.38 KCAL/MOL
REMARK 922        TOTAL FREE ENERGY PREDICTED BY IDOCK:   -6.21 KCAL/MOL
REMARK 923 INTER-LIGAND FREE ENERGY PREDICTED BY IDOCK:   -6.11 KCAL/MOL
REMARK 924 INTRA-LIGAND FREE ENERGY PREDICTED BY IDOCK:   -0.10 KCAL/MOL
REMARK 927      BINDING AFFINITY PREDICTED BY RF-SCORE:    0.00 PKD
ROOT
HETATM    1  N   UNL     1     -12.466  14.026  63.086  1.00  0.00    -1.070 NA 
HETATM    2  H2  UNL     1     -12.901  13.208  62.661  1.00  0.00     0.000 HD 
HETATM    3  C   UNL     1     -12.062  14.015  64.395  1.00  0.00    -0.458 C  
HETATM    4  H1  UNL     1     -12.316  14.882  62.551  1.00  0.00     0.000 HD 
HETATM    5  N   UNL     1     -12.253  12.925  65.076  1.00  0.00    -0.437 N  
HETATM    6  H   UNL     1     -12.710  12.126  64.637  1.00  0.00     0.000 HD 
HETATM    7  C   UNL     1     -11.840  12.842  66.389  1.00  0.00    -0.408 C  
HETATM    8  N   UNL     1     -11.161  13.941  66.958  1.00  0.00    -0.295 N  
HETATM    9  O   UNL     1     -12.064  11.827  67.042  1.00  0.00    -0.575 OA 
HETATM   10  F   UNL     1     -11.336  16.322  64.244  1.00  0.00    -0.517 F  
HETATM   11  C   UNL     1     -10.992  15.109  66.238  1.00  0.00    -0.335 C  
HETATM   12  C   UNL     1     -11.432  15.209  64.990  1.00  0.00    -0.339 C  
ENDROOT
BRANCH   8  13
HETATM   13  C   UNL     1     -10.652  13.768  68.324  1.00  0.00    -0.255 C  
HETATM   14  C   UNL     1     -10.780  14.944  69.300  1.00  0.00    -0.249 C  
HETATM   15  S   UNL     1      -9.261  15.879  69.083  1.00  0.00    -0.256 SA 
HETATM   16  C   UNL     1      -8.363  14.384  68.613  1.00  0.00    -0.147 C  
HETATM   17  O   UNL     1      -9.279  13.344  68.243  1.00  0.00    -0.204 OA 
BRANCH  16  18
HETATM   18  C   UNL     1      -7.367  14.590  67.462  1.00  0.00    -0.189 C  
HETATM   19  O   UNL     1      -6.884  13.349  66.943  1.00  0.00    -0.376 OA 
HETATM   20  H   UNL     1      -6.268  13.476  66.232  1.00  0.00     0.000 HD 
ENDBRANCH  16  18
ENDBRANCH   8  13
TORSDOF 2
ENDMDL
MODEL       13
REMARK 921   NORMALIZED FREE ENERGY PREDICTED BY IDOCK:   -5.35 KCAL/MOL
REMARK 922        TOTAL FREE ENERGY PREDICTED BY IDOCK:   -6.17 KCAL/MOL
REMARK 923 INTER-LIGAND FREE ENERGY PREDICTED BY IDOCK:   -6.22 KCAL/MOL
REMARK 924 INTRA-LIGAND FREE ENERGY PREDICTED BY IDOCK:    0.05 KCAL/MOL
REMARK 927      BINDING AFFINITY PREDICTED BY RF-SCORE:    0.00 PKD
ROOT
HETATM    1  N   UNL     1      -8.801  18.428  67.977  1.00  0.00    -0.280 NA 
HETATM    2  H2  UNL     1      -8.930  19.084  68.748  1.00  0.00     0.000 HD 
HETATM    3  C   UNL     1      -9.574  17.303  67.867  1.00  0.00    -0.269 C  
HETATM    4  H1  UNL     1      -8.093  18.588  67.261  1.00  0.00     0.000 HD 
HETATM    5  N   UNL     1     -10.476  17.099  68.780  1.00  0.00    -0.345 N  
HETATM    6  H   UNL     1     -10.572  17.756  69.554  1.00  0.00     0.000 HD 
HETATM    7  C   UNL     1     -11.306  16.000  68.707  1.00  0.00    -0.380 C  
HETATM    8  N   UNL     1     -11.190  15.134  67.598  1.00  0.00    -0.320 N  
HETATM    9  O   UNL     1     -12.125  15.787  69.596  1.00  0.00    -0.355 OA 
HETATM   10  F   UNL     1      -8.372  16.609  65.880  1.00  0.00    -0.336 F  
HETATM   11  C   UNL     1     -10.206  15.338  66.649  1.00  0.00    -0.271 C  
HETATM   12  C   UNL     1      -9.373  16.368  66.743  1.00  0.00    -0.245 C  
ENDROOT
BRANCH   8  13
HETATM   13  C   UNL     1     -12.161  14.036  67.513  1.00  0.00    -0.326 C  
HETATM   14  C   UNL     1     -11.710  12.635  67.945  1.00  0.00    -0.358 C  
HETATM   15  S   UNL     1     -11.058  11.888  66.446  1.00  0.00    -0.316 SA 
HETATM   16  C   UNL     1     -12.167  12.881  65.423  1.00  0.00    -0.478 C  
HETATM   17  O   UNL     1     -12.677  13.994  66.170  1.00  0.00    -0.450 OA 
BRANCH  16  18
HETATM   18  C   UNL     1     -11.521  13.411  64.135  1.00  0.00    -0.383 C  
HETATM   19  O   UNL     1     -12.371  14.334  63.450  1.00  0.00    -1.113 OA 
HETATM   20  H   UNL     1     -11.971  14.662  62.654  1.00  0.00     0.000 HD 
ENDBRANCH  16  18
ENDBRANCH   8  13
TORSDOF 2
ENDMDL
MODEL       14
REMARK 921   NORMALIZED FREE ENERGY PREDICTED BY IDOCK:   -5.30 KCAL/MOL
REMARK 922        TOTAL FREE ENERGY PREDICTED BY IDOCK:   -6.12 KCAL/MOL
REMARK 923 INTER-LIGAND FREE ENERGY PREDICTED BY IDOCK:   -6.03 KCAL/MOL
REMARK 924 INTRA-LIGAND FREE ENERGY PREDICTED BY IDOCK:   -0.09 KCAL/MOL
REMARK 927      BINDING AFFINITY PREDICTED BY RF-SCORE:    0.00 PKD
ROOT
HETATM    1  N   UNL     1     -12.023  16.104  63.847  1.00  0.00    -1.332 NA 
HETATM    2  H2  UNL     1     -11.877  17.106  63.970  1.00  0.00     0.000 HD 
HETATM    3  C   UNL     1     -11.286  15.189  64.549  1.00  0.00    -0.272 C  
HETATM    4  H1  UNL     1     -12.725  15.750  63.196  1.00  0.00     0.000 HD 
HETATM    5  N   UNL     1     -10.393  15.641  65.377  1.00  0.00    -0.381 N  
HETATM    6  H   UNL     1     -10.248  16.646  65.467  1.00  0.00     0.000 HD 
HETATM    7  C   UNL     1      -9.640  14.769  66.136  1.00  0.00    -0.309 C  
HETATM    8  N   UNL     1      -9.896  13.385  66.033  1.00  0.00    -0.284 N  
HETATM    9  O   UNL     1      -8.765  15.200  66.882  1.00  0.00    -0.225 OA 
HETATM   10  F   UNL     1     -12.405  13.353  63.431  1.00  0.00    -0.549 F  
HETATM   11  C   UNL     1     -10.824  12.909  65.126  1.00  0.00    -0.296 C  
HETATM   12  C   UNL     1     -11.515  13.744  64.359  1.00  0.00    -0.372 C  
ENDROOT
BRANCH   8  13
HETATM   13  C   UNL     1      -9.140  12.505  66.933  1.00  0.00    -0.213 C  
HETATM   14  C   UNL     1      -8.886  11.059  66.488  1.00  0.00    -0.169 C  
HETATM   15  S   UNL     1     -10.294  10.137  67.118  1.00  0.00    -0.246 SA 
HETATM   16  C   UNL     1     -10.485  11.294  68.491  1.00  0.00    -0.197 C  
HETATM   17  O   UNL     1      -9.784  12.516  68.220  1.00  0.00    -0.219 OA 
BRANCH  16  18
HETATM   18  C   UNL     1     -11.946  11.631  68.825  1.00  0.00    -0.264 C  
HETATM   19  O   UNL     1     -12.644  10.508  69.368  1.00  0.00    -0.701 OA 
HETATM   20  H   UNL     1     -13.547  10.717  69.574  1.00  0.00     0.000 HD 
ENDBRANCH  16  18
ENDBRANCH   8  13
TORSDOF 2
ENDMDL
MODEL       15
REMARK 921   NORMALIZED FREE ENERGY PREDICTED BY IDOCK:   -5.26 KCAL/MOL
REMARK 922        TOTAL FREE ENERGY PREDICTED BY IDOCK:   -6.07 KCAL/MOL
REMARK 923 INTER-LIGAND FREE ENERGY PREDICTED BY IDOCK:   -6.18 KCAL/MOL
REMARK 924 INTRA-LIGAND FREE ENERGY PREDICTED BY IDOCK:    0.12 KCAL/MOL
REMARK 927      BINDING AFFINITY PREDICTED BY RF-SCORE:    0.00 PKD
ROOT
HETATM    1  N   UNL     1     -12.593  13.918  63.026  1.00  0.00    -0.908 NA 
HETATM    2  H2  UNL     1     -12.452  13.984  62.018  1.00  0.00     0.000 HD 
HETATM    3  C   UNL     1     -11.829  13.080  63.795  1.00  0.00    -0.502 C  
HETATM    4  H1  UNL     1     -13.306  14.474  63.497  1.00  0.00     0.000 HD 
HETATM    5  N   UNL     1     -10.920  12.372  63.195  1.00  0.00    -0.688 N  
HETATM    6  H   UNL     1     -10.812  12.438  62.183  1.00  0.00     0.000 HD 
HETATM    7  C   UNL     1     -10.099  11.533  63.918  1.00  0.00    -0.345 C  
HETATM    8  N   UNL     1     -10.231  11.500  65.324  1.00  0.00    -0.255 N  
HETATM    9  O   UNL     1      -9.273  10.831  63.342  1.00  0.00    -0.219 OA 
HETATM   10  F   UNL     1     -13.054  13.709  65.789  1.00  0.00    -0.478 F  
HETATM   11  C   UNL     1     -11.223  12.230  65.951  1.00  0.00    -0.340 C  
HETATM   12  C   UNL     1     -12.047  13.001  65.252  1.00  0.00    -0.441 C  
ENDROOT
BRANCH   8  13
HETATM   13  C   UNL     1      -9.269  10.669  66.058  1.00  0.00    -0.182 C  
HETATM   14  C   UNL     1      -9.441   9.145  66.007  1.00  0.00    -0.255 C  
HETATM   15  S   UNL     1     -10.508   8.764  67.402  1.00  0.00    -0.244 SA 
HETATM   16  C   UNL     1      -9.892  10.196  68.314  1.00  0.00    -0.145 C  
HETATM   17  O   UNL     1      -9.241  11.115  67.426  1.00  0.00    -0.152 OA 
BRANCH  16  18
HETATM   18  C   UNL     1     -10.977  10.953  69.094  1.00  0.00    -0.239 C  
HETATM   19  O   UNL     1     -12.290  10.487  68.774  1.00  0.00    -0.790 OA 
HETATM   20  H   UNL     1     -12.961  10.955  69.256  1.00  0.00     0.000 HD 
ENDBRANCH  16  18
ENDBRANCH   8  13
TORSDOF 2
ENDMDL
MODEL       16
REMARK 921   NORMALIZED FREE ENERGY PREDICTED BY IDOCK:   -5.25 KCAL/MOL
REMARK 922        TOTAL FREE ENERGY PREDICTED BY IDOCK:   -6.05 KCAL/MOL
REMARK 923 INTER-LIGAND FREE ENERGY PREDICTED BY IDOCK:   -6.09 KCAL/MOL
REMARK 924 INTRA-LIGAND FREE ENERGY PREDICTED BY IDOCK:    0.04 KCAL/MOL
REMARK 927      BINDING AFFINITY PREDICTED BY RF-SCORE:    0.00 PKD
ROOT
HETATM    1  N   UNL     1     -13.485  15.614  73.319  1.00  0.00    -0.637 NA 
HETATM    2  H2  UNL     1     -13.374  16.519  73.777  1.00  0.00     0.000 HD 
HETATM    3  C   UNL     1     -12.869  15.343  72.126  1.00  0.00    -0.381 C  
HETATM    4  H1  UNL     1     -14.058  14.879  73.733  1.00  0.00     0.000 HD 
HETATM    5  N   UNL     1     -12.139  16.280  71.597  1.00  0.00    -0.640 N  
HETATM    6  H   UNL     1     -12.061  17.184  72.062  1.00  0.00     0.000 HD 
HETATM    7  C   UNL     1     -11.469  16.057  70.413  1.00  0.00    -0.377 C  
HETATM    8  N   UNL     1     -11.549  14.780  69.817  1.00  0.00    -0.281 N  
HETATM    9  O   UNL     1     -10.819  16.959  69.894  1.00  0.00    -0.254 OA 
HETATM   10  F   UNL     1     -13.868  13.137  72.051  1.00  0.00    -0.488 F  
HETATM   11  C   UNL     1     -12.354  13.800  70.367  1.00  0.00    -0.353 C  
HETATM   12  C   UNL     1     -13.040  14.027  71.480  1.00  0.00    -0.363 C  
ENDROOT
BRANCH   8  13
HETATM   13  C   UNL     1     -10.739  14.560  68.613  1.00  0.00    -0.253 C  
HETATM   14  C   UNL     1     -11.439  14.609  67.249  1.00  0.00    -0.372 C  
HETATM   15  S   UNL     1     -11.958  12.915  66.947  1.00  0.00    -0.259 SA 
HETATM   16  C   UNL     1     -10.583  12.278  67.928  1.00  0.00    -0.212 C  
HETATM   17  O   UNL     1     -10.040  13.311  68.761  1.00  0.00    -0.186 OA 
BRANCH  16  18
HETATM   18  C   UNL     1     -10.951  11.078  68.813  1.00  0.00    -0.221 C  
HETATM   19  O   UNL     1     -12.286  10.627  68.575  1.00  0.00    -0.814 OA 
HETATM   20  H   UNL     1     -12.514   9.885  69.122  1.00  0.00     0.000 HD 
ENDBRANCH  16  18
ENDBRANCH   8  13
TORSDOF 2
ENDMDL
MODEL       17
REMARK 921   NORMALIZED FREE ENERGY PREDICTED BY IDOCK:   -5.22 KCAL/MOL
REMARK 922        TOTAL FREE ENERGY PREDICTED BY IDOCK:   -6.02 KCAL/MOL
REMARK 923 INTER-LIGAND FREE ENERGY PREDICTED BY IDOCK:   -5.93 KCAL/MOL
REMARK 924 INTRA-LIGAND FREE ENERGY PREDICTED BY IDOCK:   -0.09 KCAL/MOL
REMARK 927      BINDING AFFINITY PREDICTED BY RF-SCORE:    0.00 PKD
ROOT
HETATM    1  N   UNL     1      -6.545  20.760  64.911  1.00  0.00    -0.481 NA 
HETATM    2  H2  UNL     1      -6.869  21.704  64.701  1.00  0.00     0.000 HD 
HETATM    3  C   UNL     1      -7.331  19.879  65.607  1.00  0.00    -0.296 C  
HETATM    4  H1  UNL     1      -5.625  20.438  64.611  1.00  0.00     0.000 HD 
HETATM    5  N   UNL     1      -8.503  20.289  65.989  1.00  0.00    -0.575 N  
HETATM    6  H   UNL     1      -8.797  21.244  65.787  1.00  0.00     0.000 HD 
HETATM    7  C   UNL     1      -9.352  19.439  66.666  1.00  0.00    -0.349 C  
HETATM    8  N   UNL     1      -8.945  18.106  66.887  1.00  0.00    -0.263 N  
HETATM    9  O   UNL     1     -10.440  19.845  67.065  1.00  0.00    -0.441 OA 
HETATM   10  F   UNL     1      -5.593  18.192  65.535  1.00  0.00    -0.177 F  
HETATM   11  C   UNL     1      -7.683  17.687  66.507  1.00  0.00    -0.270 C  
HETATM   12  C   UNL     1      -6.845  18.517  65.900  1.00  0.00    -0.283 C  
ENDROOT
BRANCH   8  13
HETATM   13  C   UNL     1      -9.922  17.213  67.521  1.00  0.00    -0.279 C  
HETATM   14  C   UNL     1      -9.399  15.976  68.263  1.00  0.00    -0.199 C  
HETATM   15  S   UNL     1      -9.352  14.686  67.014  1.00  0.00    -0.243 SA 
HETATM   16  C   UNL     1     -10.714  15.455  66.113  1.00  0.00    -0.314 C  
HETATM   17  O   UNL     1     -10.884  16.818  66.526  1.00  0.00    -0.162 OA 
BRANCH  16  18
HETATM   18  C   UNL     1     -10.550  15.423  64.586  1.00  0.00    -0.091 C  
HETATM   19  O   UNL     1     -11.387  16.383  63.937  1.00  0.00    -1.510 OA 
HETATM   20  H   UNL     1     -11.286  16.363  62.993  1.00  0.00     0.000 HD 
ENDBRANCH  16  18
ENDBRANCH   8  13
TORSDOF 2
ENDMDL
MODEL       18
REMARK 921   NORMALIZED FREE ENERGY PREDICTED BY IDOCK:   -5.21 KCAL/MOL
REMARK 922        TOTAL FREE ENERGY PREDICTED BY IDOCK:   -6.01 KCAL/MOL
REMARK 923 INTER-LIGAND FREE ENERGY PREDICTED BY IDOCK:   -5.84 KCAL/MOL
REMARK 924 INTRA-LIGAND FREE ENERGY PREDICTED BY IDOCK:   -0.16 KCAL/MOL
REMARK 927      BINDING AFFINITY PREDICTED BY RF-SCORE:    0.00 PKD
ROOT
HETATM    1  N   UNL     1     -13.048  11.649  62.715  1.00  0.00    -0.592 NA 
HETATM    2  H2  UNL     1     -14.005  11.978  62.588  1.00  0.00     0.000 HD 
HETATM    3  C   UNL     1     -12.295  12.052  63.785  1.00  0.00    -0.496 C  
HETATM    4  H1  UNL     1     -12.619  11.006  62.049  1.00  0.00     0.000 HD 
HETATM    5  N   UNL     1     -12.842  12.871  64.633  1.00  0.00    -0.740 N  
HETATM    6  H   UNL     1     -13.792  13.205  64.474  1.00  0.00     0.000 HD 
HETATM    7  C   UNL     1     -12.145  13.289  65.747  1.00  0.00    -0.441 C  
HETATM    8  N   UNL     1     -10.852  12.771  65.974  1.00  0.00    -0.272 N  
HETATM    9  O   UNL     1     -12.649  14.099  66.520  1.00  0.00    -0.394 OA 
HETATM   10  F   UNL     1     -10.393  10.776  62.995  1.00  0.00    -0.357 F  
HETATM   11  C   UNL     1     -10.264  11.927  65.050  1.00  0.00    -0.278 C  
HETATM   12  C   UNL     1     -10.913  11.562  63.952  1.00  0.00    -0.401 C  
ENDROOT
BRANCH   8  13
HETATM   13  C   UNL     1     -10.191  13.167  67.223  1.00  0.00    -0.243 C  
HETATM   14  C   UNL     1      -8.658  13.135  67.274  1.00  0.00    -0.210 C  
HETATM   15  S   UNL     1      -8.259  11.477  67.841  1.00  0.00    -0.142 SA 
HETATM   16  C   UNL     1      -9.813  11.374  68.754  1.00  0.00    -0.164 C  
HETATM   17  O   UNL     1     -10.734  12.372  68.293  1.00  0.00    -0.214 OA 
BRANCH  16  18
HETATM   18  C   UNL     1     -10.497  10.001  68.670  1.00  0.00    -0.204 C  
HETATM   19  O   UNL     1     -11.846  10.102  68.209  1.00  0.00    -0.697 OA 
HETATM   20  H   UNL     1     -12.269   9.253  68.157  1.00  0.00     0.000 HD 
ENDBRANCH  16  18
ENDBRANCH   8  13
TORSDOF 2
ENDMDL
MODEL       19
REMARK 921   NORMALIZED FREE ENERGY PREDICTED BY IDOCK:   -5.20 KCAL/MOL
REMARK 922        TOTAL FREE ENERGY PREDICTED BY IDOCK:   -6.01 KCAL/MOL
REMARK 923 INTER-LIGAND FREE ENERGY PREDICTED BY IDOCK:   -6.03 KCAL/MOL
REMARK 924 INTRA-LIGAND FREE ENERGY PREDICTED BY IDOCK:    0.02 KCAL/MOL
REMARK 927      BINDING AFFINITY PREDICTED BY RF-SCORE:    0.00 PKD
ROOT
HETATM    1  N   UNL     1     -14.369   8.865  73.284  1.00  0.00    -1.177 NA 
HETATM    2  H2  UNL     1     -14.781   8.024  73.690  1.00  0.00     0.000 HD 
HETATM    3  C   UNL     1     -13.351   8.787  72.372  1.00  0.00    -0.399 C  
HETATM    4  H1  UNL     1     -14.702   9.793  73.544  1.00  0.00     0.000 HD 
HETATM    5  N   UNL     1     -12.927   7.604  72.040  1.00  0.00    -0.478 N  
HETATM    6  H   UNL     1     -13.338   6.778  72.475  1.00  0.00     0.000 HD 
HETATM    7  C   UNL     1     -11.926   7.459  71.104  1.00  0.00    -0.320 C  
HETATM    8  N   UNL     1     -11.410   8.614  70.476  1.00  0.00    -0.248 N  
HETATM    9  O   UNL     1     -11.496   6.342  70.829  1.00  0.00    -0.327 OA 
HETATM   10  F   UNL     1     -13.213  11.202  72.241  1.00  0.00    -0.595 F  
HETATM   11  C   UNL     1     -11.843   9.870  70.858  1.00  0.00    -0.356 C  
HETATM   12  C   UNL     1     -12.771  10.015  71.795  1.00  0.00    -0.428 C  
ENDROOT
BRANCH   8  13
HETATM   13  C   UNL     1     -10.418   8.402  69.415  1.00  0.00    -0.217 C  
HETATM   14  C   UNL     1      -8.935   8.571  69.766  1.00  0.00    -0.145 C  
HETATM   15  S   UNL     1      -8.589  10.305  69.447  1.00  0.00    -0.127 SA 
HETATM   16  C   UNL     1      -9.866  10.365  68.172  1.00  0.00    -0.151 C  
HETATM   17  O   UNL     1     -10.760   9.251  68.304  1.00  0.00    -0.209 OA 
BRANCH  16  18
HETATM   18  C   UNL     1     -10.694  11.659  68.178  1.00  0.00    -0.213 C  
HETATM   19  O   UNL     1     -12.032  11.441  67.726  1.00  0.00    -0.637 OA 
HETATM   20  H   UNL     1     -12.543  12.241  67.729  1.00  0.00     0.000 HD 
ENDBRANCH  16  18
ENDBRANCH   8  13
TORSDOF 2
ENDMDL
MODEL       20
REMARK 921   NORMALIZED FREE ENERGY PREDICTED BY IDOCK:   -5.19 KCAL/MOL
REMARK 922        TOTAL FREE ENERGY PREDICTED BY IDOCK:   -5.99 KCAL/MOL
REMARK 923 INTER-LIGAND FREE ENERGY PREDICTED BY IDOCK:   -5.98 KCAL/MOL
REMARK 924 INTRA-LIGAND FREE ENERGY PREDICTED BY IDOCK:   -0.02 KCAL/MOL
REMARK 927      BINDING AFFINITY PREDICTED BY RF-SCORE:    0.00 PKD
ROOT
HETATM    1  N   UNL     1     -12.902  10.247  70.229  1.00  0.00    -0.564 NA 
HETATM    2  H2  UNL     1     -13.045   9.237  70.213  1.00  0.00     0.000 HD 
HETATM    3  C   UNL     1     -12.010  10.850  69.384  1.00  0.00    -0.322 C  
HETATM    4  H1  UNL     1     -13.419  10.842  70.876  1.00  0.00     0.000 HD 
HETATM    5  N   UNL     1     -11.352  10.091  68.559  1.00  0.00    -0.509 N  
HETATM    6  H   UNL     1     -11.494   9.081  68.576  1.00  0.00     0.000 HD 
HETATM    7  C   UNL     1     -10.462  10.642  67.662  1.00  0.00    -0.227 C  
HETATM    8  N   UNL     1     -10.321  12.047  67.621  1.00  0.00    -0.196 N  
HETATM    9  O   UNL     1      -9.808   9.917  66.918  1.00  0.00    -0.180 OA 
HETATM   10  F   UNL     1     -12.482  13.021  70.350  1.00  0.00    -0.376 F  
HETATM   11  C   UNL     1     -10.999  12.845  68.523  1.00  0.00    -0.259 C  
HETATM   12  C   UNL     1     -11.819  12.313  69.421  1.00  0.00    -0.310 C  
ENDROOT
BRANCH   8  13
HETATM   13  C   UNL     1      -9.439  12.592  66.582  1.00  0.00    -0.244 C  
HETATM   14  C   UNL     1      -8.970  14.046  66.720  1.00  0.00    -0.197 C  
HETATM   15  S   UNL     1     -10.221  15.008  65.860  1.00  0.00    -0.340 SA 
HETATM   16  C   UNL     1     -10.582  13.625  64.757  1.00  0.00    -0.422 C  
HETATM   17  O   UNL     1     -10.074  12.400  65.305  1.00  0.00    -0.276 OA 
BRANCH  16  18
HETATM   18  C   UNL     1     -12.076  13.442  64.452  1.00  0.00    -0.416 C  
HETATM   19  O   UNL     1     -12.444  14.040  63.207  1.00  0.00    -1.139 OA 
HETATM   20  H   UNL     1     -13.368  13.928  63.018  1.00  0.00     0.000 HD 
ENDBRANCH  16  18
ENDBRANCH   8  13
TORSDOF 2
ENDMDL
MODEL       21
REMARK 921   NORMALIZED FREE ENERGY PREDICTED BY IDOCK:   -5.18 KCAL/MOL
REMARK 922        TOTAL FREE ENERGY PREDICTED BY IDOCK:   -5.98 KCAL/MOL
REMARK 923 INTER-LIGAND FREE ENERGY PREDICTED BY IDOCK:   -6.10 KCAL/MOL
REMARK 924 INTRA-LIGAND FREE ENERGY PREDICTED BY IDOCK:    0.12 KCAL/MOL
REMARK 927      BINDING AFFINITY PREDICTED BY RF-SCORE:    0.00 PKD
ROOT
HETATM    1  N   UNL     1     -12.496  14.198  62.968  1.00  0.00    -0.878 NA 
HETATM    2  H2  UNL     1     -12.245  15.017  62.415  1.00  0.00     0.000 HD 
HETATM    3  C   UNL     1     -11.841  13.901  64.134  1.00  0.00    -0.385 C  
HETATM    4  H1  UNL     1     -13.244  13.571  62.673  1.00  0.00     0.000 HD 
HETATM    5  N   UNL     1     -10.888  14.701  64.510  1.00  0.00    -0.625 N  
HETATM    6  H   UNL     1     -10.639  15.501  63.930  1.00  0.00     0.000 HD 
HETATM    7  C   UNL     1     -10.212  14.472  65.690  1.00  0.00    -0.357 C  
HETATM    8  N   UNL     1     -10.610  13.389  66.503  1.00  0.00    -0.285 N  
HETATM    9  O   UNL     1      -9.281  15.203  66.018  1.00  0.00    -0.301 OA 
HETATM   10  F   UNL     1     -13.166  11.895  64.429  1.00  0.00    -0.419 F  
HETATM   11  C   UNL     1     -11.602  12.524  66.079  1.00  0.00    -0.406 C  
HETATM   12  C   UNL     1     -12.221  12.712  64.921  1.00  0.00    -0.471 C  
ENDROOT
BRANCH   8  13
HETATM   13  C   UNL     1      -9.929  13.247  67.795  1.00  0.00    -0.223 C  
HETATM   14  C   UNL     1     -10.286  12.041  68.674  1.00  0.00    -0.196 C  
HETATM   15  S   UNL     1     -11.647  12.616  69.698  1.00  0.00    -0.208 SA 
HETATM   16  C   UNL     1     -11.038  14.314  69.621  1.00  0.00    -0.175 C  
HETATM   17  O   UNL     1     -10.111  14.467  68.537  1.00  0.00    -0.232 OA 
BRANCH  16  18
HETATM   18  C   UNL     1     -12.146  15.368  69.469  1.00  0.00    -0.305 C  
HETATM   19  O   UNL     1     -13.286  15.065  70.275  1.00  0.00    -0.635 OA 
HETATM   20  H   UNL     1     -13.971  15.716  70.181  1.00  0.00     0.000 HD 
ENDBRANCH  16  18
ENDBRANCH   8  13
TORSDOF 2
ENDMDL
MODEL       22
REMARK 921   NORMALIZED FREE ENERGY PREDICTED BY IDOCK:   -5.16 KCAL/MOL
REMARK 922        TOTAL FREE ENERGY PREDICTED BY IDOCK:   -5.96 KCAL/MOL
REMARK 923 INTER-LIGAND FREE ENERGY PREDICTED BY IDOCK:   -5.93 KCAL/MOL
REMARK 924 INTRA-LIGAND FREE ENERGY PREDICTED BY IDOCK:   -0.02 KCAL/MOL
REMARK 927      BINDING AFFINITY PREDICTED BY RF-SCORE:    0.00 PKD
ROOT
HETATM    1  N   UNL     1     -12.128  12.669  66.130  1.00  0.00    -0.579 NA 
HETATM    2  H2  UNL     1     -12.694  12.038  66.697  1.00  0.00     0.000 HD 
HETATM    3  C   UNL     1     -11.746  13.896  66.601  1.00  0.00    -0.395 C  
HETATM    4  H1  UNL     1     -11.826  12.407  65.191  1.00  0.00     0.000 HD 
HETATM    5  N   UNL     1     -12.130  14.229  67.797  1.00  0.00    -0.576 N  
HETATM    6  H   UNL     1     -12.715  13.592  68.338  1.00  0.00     0.000 HD 
HETATM    7  C   UNL     1     -11.751  15.439  68.340  1.00  0.00    -0.316 C  
HETATM    8  N   UNL     1     -10.898  16.281  67.594  1.00  0.00    -0.319 N  
HETATM    9  O   UNL     1     -12.156  15.770  69.451  1.00  0.00    -0.354 OA 
HETATM   10  F   UNL     1     -10.628  14.409  64.514  1.00  0.00    -0.415 F  
HETATM   11  C   UNL     1     -10.521  15.935  66.310  1.00  0.00    -0.318 C  
HETATM   12  C   UNL     1     -10.924  14.793  65.766  1.00  0.00    -0.334 C  
ENDROOT
BRANCH   8  13
HETATM   13  C   UNL     1     -10.441  17.510  68.253  1.00  0.00    -0.383 C  
HETATM   14  C   UNL     1     -10.742  18.852  67.572  1.00  0.00    -0.434 C  
HETATM   15  S   UNL     1      -9.322  19.149  66.512  1.00  0.00    -0.357 SA 
HETATM   16  C   UNL     1      -8.248  18.214  67.622  1.00  0.00    -0.242 C  
HETATM   17  O   UNL     1      -9.029  17.391  68.500  1.00  0.00    -0.266 OA 
BRANCH  16  18
HETATM   18  C   UNL     1      -7.224  17.326  66.900  1.00  0.00    -0.200 C  
HETATM   19  O   UNL     1      -7.040  17.721  65.539  1.00  0.00    -0.446 OA 
HETATM   20  H   UNL     1      -6.407  17.172  65.092  1.00  0.00     0.000 HD 
ENDBRANCH  16  18
ENDBRANCH   8  13
TORSDOF 2
ENDMDL
MODEL       23
REMARK 921   NORMALIZED FREE ENERGY PREDICTED BY IDOCK:   -5.14 KCAL/MOL
REMARK 922        TOTAL FREE ENERGY PREDICTED BY IDOCK:   -5.94 KCAL/MOL
REMARK 923 INTER-LIGAND FREE ENERGY PREDICTED BY IDOCK:   -5.98 KCAL/MOL
REMARK 924 INTRA-LIGAND FREE ENERGY PREDICTED BY IDOCK:    0.04 KCAL/MOL
REMARK 927      BINDING AFFINITY PREDICTED BY RF-SCORE:    0.00 PKD
ROOT
HETATM    1  N   UNL     1     -11.638  13.414  70.419  1.00  0.00    -0.525 NA 
HETATM    2  H2  UNL     1     -11.399  14.188  71.039  1.00  0.00     0.000 HD 
HETATM    3  C   UNL     1     -11.562  13.546  69.058  1.00  0.00    -0.311 C  
HETATM    4  H1  UNL     1     -11.942  12.515  70.792  1.00  0.00     0.000 HD 
HETATM    5  N   UNL     1     -11.174  14.692  68.584  1.00  0.00    -0.262 N  
HETATM    6  H   UNL     1     -10.961  15.459  69.221  1.00  0.00     0.000 HD 
HETATM    7  C   UNL     1     -11.047  14.876  67.223  1.00  0.00    -0.336 C  
HETATM    8  N   UNL     1     -11.295  13.784  66.363  1.00  0.00    -0.310 N  
HETATM    9  O   UNL     1     -10.726  15.974  66.778  1.00  0.00    -0.317 OA 
HETATM   10  F   UNL     1     -12.372  11.284  68.742  1.00  0.00    -0.379 F  
HETATM   11  C   UNL     1     -11.739  12.579  66.873  1.00  0.00    -0.377 C  
HETATM   12  C   UNL     1     -11.910  12.413  68.179  1.00  0.00    -0.315 C  
ENDROOT
BRANCH   8  13
HETATM   13  C   UNL     1     -11.049  14.001  64.932  1.00  0.00    -0.375 C  
HETATM   14  C   UNL     1     -12.248  13.957  63.977  1.00  0.00    -0.369 C  
HETATM   15  S   UNL     1     -12.364  12.235  63.476  1.00  0.00    -0.509 SA 
HETATM   16  C   UNL     1     -10.586  12.011  63.696  1.00  0.00    -0.454 C  
HETATM   17  O   UNL     1     -10.043  13.067  64.501  1.00  0.00    -0.317 OA 
BRANCH  16  18
HETATM   18  C   UNL     1     -10.199  10.666  64.328  1.00  0.00    -0.320 C  
HETATM   19  O   UNL     1      -9.729   9.732  63.353  1.00  0.00    -0.503 OA 
HETATM   20  H   UNL     1      -9.490   8.900  63.744  1.00  0.00     0.000 HD 
ENDBRANCH  16  18
ENDBRANCH   8  13
TORSDOF 2
ENDMDL
MODEL       24
REMARK 921   NORMALIZED FREE ENERGY PREDICTED BY IDOCK:   -5.14 KCAL/MOL
REMARK 922        TOTAL FREE ENERGY PREDICTED BY IDOCK:   -5.93 KCAL/MOL
REMARK 923 INTER-LIGAND FREE ENERGY PREDICTED BY IDOCK:   -5.84 KCAL/MOL
REMARK 924 INTRA-LIGAND FREE ENERGY PREDICTED BY IDOCK:   -0.10 KCAL/MOL
REMARK 927      BINDING AFFINITY PREDICTED BY RF-SCORE:    0.00 PKD
ROOT
HETATM    1  N   UNL     1     -13.008  14.513  70.072  1.00  0.00    -0.502 NA 
HETATM    2  H2  UNL     1     -13.806  13.973  69.736  1.00  0.00     0.000 HD 
HETATM    3  C   UNL     1     -12.048  14.970  69.210  1.00  0.00    -0.247 C  
HETATM    4  H1  UNL     1     -12.898  14.730  71.063  1.00  0.00     0.000 HD 
HETATM    5  N   UNL     1     -12.189  14.693  67.948  1.00  0.00    -0.603 N  
HETATM    6  H   UNL     1     -12.983  14.133  67.637  1.00  0.00     0.000 HD 
HETATM    7  C   UNL     1     -11.272  15.152  67.026  1.00  0.00    -0.308 C  
HETATM    8  N   UNL     1     -10.212  15.970  67.473  1.00  0.00    -0.268 N  
HETATM    9  O   UNL     1     -11.384  14.848  65.842  1.00  0.00    -0.340 OA 
HETATM   10  F   UNL     1     -10.788  15.935  71.041  1.00  0.00    -0.318 F  
HETATM   11  C   UNL     1     -10.049  16.233  68.820  1.00  0.00    -0.243 C  
HETATM   12  C   UNL     1     -10.903  15.751  69.715  1.00  0.00    -0.314 C  
ENDROOT
BRANCH   8  13
HETATM   13  C   UNL     1      -9.320  16.517  66.443  1.00  0.00    -0.287 C  
HETATM   14  C   UNL     1      -7.846  16.739  66.804  1.00  0.00    -0.246 C  
HETATM   15  S   UNL     1      -7.785  18.418  67.442  1.00  0.00    -0.224 SA 
HETATM   16  C   UNL     1      -9.188  18.901  66.413  1.00  0.00    -0.313 C  
HETATM   17  O   UNL     1      -9.895  17.741  65.952  1.00  0.00    -0.524 OA 
BRANCH  16  18
HETATM   18  C   UNL     1     -10.185  19.836  67.115  1.00  0.00    -0.444 C  
HETATM   19  O   UNL     1      -9.718  21.186  67.151  1.00  0.00    -0.655 OA 
HETATM   20  H   UNL     1     -10.334  21.764  67.585  1.00  0.00     0.000 HD 
ENDBRANCH  16  18
ENDBRANCH   8  13
TORSDOF 2
ENDMDL
MODEL       25
REMARK 921   NORMALIZED FREE ENERGY PREDICTED BY IDOCK:   -5.08 KCAL/MOL
REMARK 922        TOTAL FREE ENERGY PREDICTED BY IDOCK:   -5.87 KCAL/MOL
REMARK 923 INTER-LIGAND FREE ENERGY PREDICTED BY IDOCK:   -5.88 KCAL/MOL
REMARK 924 INTRA-LIGAND FREE ENERGY PREDICTED BY IDOCK:    0.01 KCAL/MOL
REMARK 927      BINDING AFFINITY PREDICTED BY RF-SCORE:    0.00 PKD
ROOT
HETATM    1  N   UNL     1      -7.766  11.735  69.261  1.00  0.00    -0.344 NA 
HETATM    2  H2  UNL     1      -7.882  11.349  70.199  1.00  0.00     0.000 HD 
HETATM    3  C   UNL     1      -8.836  11.884  68.419  1.00  0.00    -0.159 C  
HETATM    4  H1  UNL     1      -6.850  12.024  68.919  1.00  0.00     0.000 HD 
HETATM    5  N   UNL     1     -10.003  11.517  68.856  1.00  0.00    -0.375 N  
HETATM    6  H   UNL     1     -10.092  11.112  69.788  1.00  0.00     0.000 HD 
HETATM    7  C   UNL     1     -11.123  11.670  68.067  1.00  0.00    -0.242 C  
HETATM    8  N   UNL     1     -10.984  12.281  66.802  1.00  0.00    -0.263 N  
HETATM    9  O   UNL     1     -12.216  11.278  68.466  1.00  0.00    -0.588 OA 
HETATM   10  F   UNL     1      -7.401  12.736  66.662  1.00  0.00     0.046 F  
HETATM   11  C   UNL     1      -9.735  12.639  66.331  1.00  0.00    -0.258 C  
HETATM   12  C   UNL     1      -8.649  12.447  67.068  1.00  0.00    -0.191 C  
ENDROOT
BRANCH   8  13
HETATM   13  C   UNL     1     -12.218  12.515  66.042  1.00  0.00    -0.190 C  
HETATM   14  C   UNL     1     -12.354  11.859  64.661  1.00  0.00    -0.020 C  
HETATM   15  S   UNL     1     -11.675  13.068  63.518  1.00  0.00    -0.399 SA 
HETATM   16  C   UNL     1     -12.151  14.425  64.610  1.00  0.00    -0.471 C  
HETATM   17  O   UNL     1     -12.418  13.935  65.932  1.00  0.00    -0.463 OA 
BRANCH  16  18
HETATM   18  C   UNL     1     -11.106  15.546  64.705  1.00  0.00    -0.359 C  
HETATM   19  O   UNL     1     -11.458  16.676  63.904  1.00  0.00    -1.604 OA 
HETATM   20  H   UNL     1     -10.812  17.369  63.962  1.00  0.00     0.000 HD 
ENDBRANCH  16  18
ENDBRANCH   8  13
TORSDOF 2
ENDMDL
MODEL       26
REMARK 921   NORMALIZED FREE ENERGY PREDICTED BY IDOCK:   -5.07 KCAL/MOL
REMARK 922        TOTAL FREE ENERGY PREDICTED BY IDOCK:   -5.86 KCAL/MOL
REMARK 923 INTER-LIGAND FREE ENERGY PREDICTED BY IDOCK:   -5.68 KCAL/MOL
REMARK 924 INTRA-LIGAND FREE ENERGY PREDICTED BY IDOCK:   -0.18 KCAL/MOL
REMARK 927      BINDING AFFINITY PREDICTED BY RF-SCORE:    0.00 PKD
ROOT
HETATM    1  N   UNL     1     -11.885  15.616  72.535  1.00  0.00    -0.443 NA 
HETATM    2  H2  UNL     1     -11.579  16.498  72.946  1.00  0.00     0.000 HD 
HETATM    3  C   UNL     1     -11.829  15.409  71.182  1.00  0.00    -0.371 C  
HETATM    4  H1  UNL     1     -12.243  14.859  73.116  1.00  0.00     0.000 HD 
HETATM    5  N   UNL     1     -11.373  16.374  70.442  1.00  0.00    -0.488 N  
HETATM    6  H   UNL     1     -11.094  17.255  70.873  1.00  0.00     0.000 HD 
HETATM    7  C   UNL     1     -11.264  16.214  69.076  1.00  0.00    -0.347 C  
HETATM    8  N   UNL     1     -11.606  14.968  68.509  1.00  0.00    -0.316 N  
HETATM    9  O   UNL     1     -10.877  17.146  68.376  1.00  0.00    -0.367 OA 
HETATM   10  F   UNL     1     -12.802  13.203  71.428  1.00  0.00    -0.413 F  
HETATM   11  C   UNL     1     -12.122  13.957  69.299  1.00  0.00    -0.339 C  
HETATM   12  C   UNL     1     -12.275  14.125  70.606  1.00  0.00    -0.362 C  
ENDROOT
BRANCH   8  13
HETATM   13  C   UNL     1     -11.378  14.813  67.067  1.00  0.00    -0.353 C  
HETATM   14  C   UNL     1     -12.253  13.816  66.298  1.00  0.00    -0.447 C  
HETATM   15  S   UNL     1     -11.355  12.262  66.389  1.00  0.00    -0.370 SA 
HETATM   16  C   UNL     1      -9.778  13.135  66.494  1.00  0.00    -0.268 C  
HETATM   17  O   UNL     1      -9.987  14.506  66.862  1.00  0.00    -0.250 OA 
BRANCH  16  18
HETATM   18  C   UNL     1      -8.783  12.510  67.482  1.00  0.00    -0.182 C  
HETATM   19  O   UNL     1      -8.721  13.236  68.712  1.00  0.00    -0.367 OA 
HETATM   20  H   UNL     1      -8.106  12.849  69.322  1.00  0.00     0.000 HD 
ENDBRANCH  16  18
ENDBRANCH   8  13
TORSDOF 2
ENDMDL
MODEL       27
REMARK 921   NORMALIZED FREE ENERGY PREDICTED BY IDOCK:   -5.07 KCAL/MOL
REMARK 922        TOTAL FREE ENERGY PREDICTED BY IDOCK:   -5.85 KCAL/MOL
REMARK 923 INTER-LIGAND FREE ENERGY PREDICTED BY IDOCK:   -5.79 KCAL/MOL
REMARK 924 INTRA-LIGAND FREE ENERGY PREDICTED BY IDOCK:   -0.06 KCAL/MOL
REMARK 927      BINDING AFFINITY PREDICTED BY RF-SCORE:    0.00 PKD
ROOT
HETATM    1  N   UNL     1     -12.783  12.992  71.032  1.00  0.00    -0.309 NA 
HETATM    2  H2  UNL     1     -12.778  12.022  71.348  1.00  0.00     0.000 HD 
HETATM    3  C   UNL     1     -11.956  13.414  70.025  1.00  0.00    -0.337 C  
HETATM    4  H1  UNL     1     -13.404  13.682  71.456  1.00  0.00     0.000 HD 
HETATM    5  N   UNL     1     -11.165  12.535  69.486  1.00  0.00    -0.467 N  
HETATM    6  H   UNL     1     -11.161  11.576  69.833  1.00  0.00     0.000 HD 
HETATM    7  C   UNL     1     -10.331  12.891  68.448  1.00  0.00    -0.244 C  
HETATM    8  N   UNL     1     -10.393  14.211  67.949  1.00  0.00    -0.232 N  
HETATM    9  O   UNL     1      -9.553  12.070  67.973  1.00  0.00    -0.186 OA 
HETATM   10  F   UNL     1     -12.772  15.686  70.236  1.00  0.00    -0.424 F  
HETATM   11  C   UNL     1     -11.212  15.149  68.550  1.00  0.00    -0.293 C  
HETATM   12  C   UNL     1     -11.980  14.821  69.582  1.00  0.00    -0.316 C  
ENDROOT
BRANCH   8  13
HETATM   13  C   UNL     1      -9.561  14.515  66.779  1.00  0.00    -0.263 C  
HETATM   14  C   UNL     1      -9.204  15.981  66.504  1.00  0.00    -0.276 C  
HETATM   15  S   UNL     1     -10.529  16.579  65.448  1.00  0.00    -0.176 SA 
HETATM   16  C   UNL     1     -10.788  14.925  64.772  1.00  0.00    -0.363 C  
HETATM   17  O   UNL     1     -10.186  13.936  65.619  1.00  0.00    -0.306 OA 
BRANCH  16  18
HETATM   18  C   UNL     1     -12.265  14.559  64.566  1.00  0.00    -0.465 C  
HETATM   19  O   UNL     1     -12.499  13.977  63.282  1.00  0.00    -1.139 OA 
HETATM   20  H   UNL     1     -13.412  13.751  63.154  1.00  0.00     0.000 HD 
ENDBRANCH  16  18
ENDBRANCH   8  13
TORSDOF 2
ENDMDL
MODEL       28
REMARK 921   NORMALIZED FREE ENERGY PREDICTED BY IDOCK:   -5.06 KCAL/MOL
REMARK 922        TOTAL FREE ENERGY PREDICTED BY IDOCK:   -5.85 KCAL/MOL
REMARK 923 INTER-LIGAND FREE ENERGY PREDICTED BY IDOCK:   -5.78 KCAL/MOL
REMARK 924 INTRA-LIGAND FREE ENERGY PREDICTED BY IDOCK:   -0.07 KCAL/MOL
REMARK 927      BINDING AFFINITY PREDICTED BY RF-SCORE:    0.00 PKD
ROOT
HETATM    1  N   UNL     1     -12.345  12.745  65.983  1.00  0.00    -0.554 NA 
HETATM    2  H2  UNL     1     -13.179  12.703  65.397  1.00  0.00     0.000 HD 
HETATM    3  C   UNL     1     -11.476  13.801  65.905  1.00  0.00    -0.322 C  
HETATM    4  H1  UNL     1     -12.130  12.002  66.647  1.00  0.00     0.000 HD 
HETATM    5  N   UNL     1     -11.751  14.747  65.058  1.00  0.00    -0.372 N  
HETATM    6  H   UNL     1     -12.578  14.674  64.466  1.00  0.00     0.000 HD 
HETATM    7  C   UNL     1     -10.931  15.851  64.956  1.00  0.00    -0.412 C  
HETATM    8  N   UNL     1      -9.822  15.956  65.823  1.00  0.00    -0.340 N  
HETATM    9  O   UNL     1     -11.169  16.720  64.122  1.00  0.00    -1.155 OA 
HETATM   10  F   UNL     1     -10.022  12.793  67.561  1.00  0.00    -0.201 F  
HETATM   11  C   UNL     1      -9.517  14.929  66.698  1.00  0.00    -0.265 C  
HETATM   12  C   UNL     1     -10.277  13.843  66.763  1.00  0.00    -0.268 C  
ENDROOT
BRANCH   8  13
HETATM   13  C   UNL     1      -9.037  17.194  65.746  1.00  0.00     0.172 C  
HETATM   14  C   UNL     1      -7.577  17.158  66.216  1.00  0.00    -0.317 C  
HETATM   15  S   UNL     1      -7.655  17.570  67.963  1.00  0.00    -0.227 SA 
HETATM   16  C   UNL     1      -9.145  18.556  67.704  1.00  0.00    -0.281 C  
HETATM   17  O   UNL     1      -9.754  18.226  66.448  1.00  0.00    -0.327 OA 
BRANCH  16  18
HETATM   18  C   UNL     1     -10.196  18.403  68.813  1.00  0.00    -0.302 C  
HETATM   19  O   UNL     1     -10.347  19.601  69.577  1.00  0.00    -0.607 OA 
HETATM   20  H   UNL     1     -10.997  19.506  70.263  1.00  0.00     0.000 HD 
ENDBRANCH  16  18
ENDBRANCH   8  13
TORSDOF 2
ENDMDL
MODEL       29
REMARK 921   NORMALIZED FREE ENERGY PREDICTED BY IDOCK:   -5.06 KCAL/MOL
REMARK 922        TOTAL FREE ENERGY PREDICTED BY IDOCK:   -5.84 KCAL/MOL
REMARK 923 INTER-LIGAND FREE ENERGY PREDICTED BY IDOCK:   -5.93 KCAL/MOL
REMARK 924 INTRA-LIGAND FREE ENERGY PREDICTED BY IDOCK:    0.08 KCAL/MOL
REMARK 927      BINDING AFFINITY PREDICTED BY RF-SCORE:    0.00 PKD
ROOT
HETATM    1  N   UNL     1     -12.490  14.101  63.014  1.00  0.00    -0.878 NA 
HETATM    2  H2  UNL     1     -12.314  14.945  62.469  1.00  0.00     0.000 HD 
HETATM    3  C   UNL     1     -11.794  13.842  64.164  1.00  0.00    -0.401 C  
HETATM    4  H1  UNL     1     -13.190  13.419  62.720  1.00  0.00     0.000 HD 
HETATM    5  N   UNL     1     -10.902  14.710  64.538  1.00  0.00    -0.625 N  
HETATM    6  H   UNL     1     -10.727  15.536  63.965  1.00  0.00     0.000 HD 
HETATM    7  C   UNL     1     -10.190  14.521  65.704  1.00  0.00    -0.357 C  
HETATM    8  N   UNL     1     -10.487  13.398  66.506  1.00  0.00    -0.279 N  
HETATM    9  O   UNL     1      -9.315  15.319  66.028  1.00  0.00    -0.307 OA 
HETATM   10  F   UNL     1     -12.950  11.732  64.451  1.00  0.00    -0.350 F  
HETATM   11  C   UNL     1     -11.413  12.462  66.086  1.00  0.00    -0.379 C  
HETATM   12  C   UNL     1     -12.064  12.616  64.940  1.00  0.00    -0.438 C  
ENDROOT
BRANCH   8  13
HETATM   13  C   UNL     1      -9.775  13.294  67.786  1.00  0.00    -0.217 C  
HETATM   14  C   UNL     1      -8.357  12.710  67.780  1.00  0.00    -0.172 C  
HETATM   15  S   UNL     1      -8.594  10.944  68.014  1.00  0.00    -0.136 SA 
HETATM   16  C   UNL     1     -10.116  11.232  68.942  1.00  0.00    -0.170 C  
HETATM   17  O   UNL     1     -10.605  12.560  68.704  1.00  0.00    -0.228 OA 
BRANCH  16  18
HETATM   18  C   UNL     1     -11.239  10.233  68.625  1.00  0.00    -0.208 C  
HETATM   19  O   UNL     1     -12.532  10.779  68.894  1.00  0.00    -0.782 OA 
HETATM   20  H   UNL     1     -13.227  10.161  68.698  1.00  0.00     0.000 HD 
ENDBRANCH  16  18
ENDBRANCH   8  13
TORSDOF 2
ENDMDL
MODEL       30
REMARK 921   NORMALIZED FREE ENERGY PREDICTED BY IDOCK:   -5.05 KCAL/MOL
REMARK 922        TOTAL FREE ENERGY PREDICTED BY IDOCK:   -5.83 KCAL/MOL
REMARK 923 INTER-LIGAND FREE ENERGY PREDICTED BY IDOCK:   -5.76 KCAL/MOL
REMARK 924 INTRA-LIGAND FREE ENERGY PREDICTED BY IDOCK:   -0.07 KCAL/MOL
REMARK 927      BINDING AFFINITY PREDICTED BY RF-SCORE:    0.00 PKD
ROOT
HETATM    1  N   UNL     1     -10.261  19.419  68.437  1.00  0.00    -0.422 NA 
HETATM    2  H2  UNL     1     -10.136  20.295  67.930  1.00  0.00     0.000 HD 
HETATM    3  C   UNL     1     -10.542  18.252  67.778  1.00  0.00    -0.393 C  
HETATM    4  H1  UNL     1     -10.180  19.381  69.453  1.00  0.00     0.000 HD 
HETATM    5  N   UNL     1     -10.646  18.300  66.484  1.00  0.00    -0.338 N  
HETATM    6  H   UNL     1     -10.540  19.191  65.999  1.00  0.00     0.000 HD 
HETATM    7  C   UNL     1     -10.897  17.152  65.761  1.00  0.00    -0.039 C  
HETATM    8  N   UNL     1     -10.986  15.923  66.449  1.00  0.00    -0.189 N  
HETATM    9  O   UNL     1     -11.041  17.211  64.543  1.00  0.00    -1.105 OA 
HETATM   10  F   UNL     1     -10.666  17.038  69.872  1.00  0.00    -0.314 F  
HETATM   11  C   UNL     1     -10.908  15.884  67.828  1.00  0.00    -0.324 C  
HETATM   12  C   UNL     1     -10.716  16.994  68.530  1.00  0.00    -0.352 C  
ENDROOT
BRANCH   8  13
HETATM   13  C   UNL     1     -11.154  14.717  65.627  1.00  0.00    -0.342 C  
HETATM   14  C   UNL     1     -12.329  13.784  65.943  1.00  0.00    -0.476 C  
HETATM   15  S   UNL     1     -11.671  12.616  67.139  1.00  0.00    -0.340 SA 
HETATM   16  C   UNL     1     -10.010  12.791  66.454  1.00  0.00    -0.265 C  
HETATM   17  O   UNL     1      -9.919  13.979  65.654  1.00  0.00    -0.311 OA 
BRANCH  16  18
HETATM   18  C   UNL     1      -8.898  12.828  67.513  1.00  0.00    -0.187 C  
HETATM   19  O   UNL     1      -7.757  13.564  67.065  1.00  0.00    -0.368 OA 
HETATM   20  H   UNL     1      -7.069  13.587  67.720  1.00  0.00     0.000 HD 
ENDBRANCH  16  18
ENDBRANCH   8  13
TORSDOF 2
ENDMDL
MODEL       31
REMARK 921   NORMALIZED FREE ENERGY PREDICTED BY IDOCK:   -5.04 KCAL/MOL
REMARK 922        TOTAL FREE ENERGY PREDICTED BY IDOCK:   -5.82 KCAL/MOL
REMARK 923 INTER-LIGAND FREE ENERGY PREDICTED BY IDOCK:   -6.24 KCAL/MOL
REMARK 924 INTRA-LIGAND FREE ENERGY PREDICTED BY IDOCK:    0.41 KCAL/MOL
REMARK 927      BINDING AFFINITY PREDICTED BY RF-SCORE:    0.00 PKD
ROOT
HETATM    1  N   UNL     1     -12.030  15.992  63.707  1.00  0.00    -1.339 NA 
HETATM    2  H2  UNL     1     -11.899  16.986  63.894  1.00  0.00     0.000 HD 
HETATM    3  C   UNL     1     -11.858  15.056  64.692  1.00  0.00    -0.375 C  
HETATM    4  H1  UNL     1     -12.295  15.660  62.779  1.00  0.00     0.000 HD 
HETATM    5  N   UNL     1     -11.521  15.478  65.873  1.00  0.00    -0.023 N  
HETATM    6  H   UNL     1     -11.373  16.475  66.032  1.00  0.00     0.000 HD 
HETATM    7  C   UNL     1     -11.363  14.587  66.914  1.00  0.00    -0.348 C  
HETATM    8  N   UNL     1     -11.627  13.220  66.683  1.00  0.00    -0.347 N  
HETATM    9  O   UNL     1     -10.999  14.986  68.016  1.00  0.00    -0.265 OA 
HETATM   10  F   UNL     1     -12.333  13.258  63.138  1.00  0.00    -0.607 F  
HETATM   11  C   UNL     1     -11.952  12.773  65.415  1.00  0.00    -0.436 C  
HETATM   12  C   UNL     1     -12.056  13.623  64.401  1.00  0.00    -0.427 C  
ENDROOT
BRANCH   8  13
HETATM   13  C   UNL     1     -11.543  12.325  67.844  1.00  0.00    -0.354 C  
HETATM   14  C   UNL     1     -10.343  12.474  68.788  1.00  0.00    -0.117 C  
HETATM   15  S   UNL     1      -9.099  11.366  68.116  1.00  0.00    -0.179 SA 
HETATM   16  C   UNL     1     -10.374  10.283  67.437  1.00  0.00    -0.233 C  
HETATM   17  O   UNL     1     -11.633  10.968  67.375  1.00  0.00    -0.525 OA 
BRANCH  16  18
HETATM   18  C   UNL     1     -10.047   9.732  66.041  1.00  0.00    -0.251 C  
HETATM   19  O   UNL     1     -10.220   8.315  65.971  1.00  0.00    -0.410 OA 
HETATM   20  H   UNL     1     -10.018   7.974  65.108  1.00  0.00     0.000 HD 
ENDBRANCH  16  18
ENDBRANCH   8  13
TORSDOF 2
ENDMDL
MODEL       32
REMARK 921   NORMALIZED FREE ENERGY PREDICTED BY IDOCK:   -5.03 KCAL/MOL
REMARK 922        TOTAL FREE ENERGY PREDICTED BY IDOCK:   -5.81 KCAL/MOL
REMARK 923 INTER-LIGAND FREE ENERGY PREDICTED BY IDOCK:   -5.89 KCAL/MOL
REMARK 924 INTRA-LIGAND FREE ENERGY PREDICTED BY IDOCK:    0.08 KCAL/MOL
REMARK 927      BINDING AFFINITY PREDICTED BY RF-SCORE:    0.00 PKD
ROOT
HETATM    1  N   UNL     1      -9.476   9.568  63.193  1.00  0.00    -0.493 NA 
HETATM    2  H2  UNL     1      -9.827   9.171  62.322  1.00  0.00     0.000 HD 
HETATM    3  C   UNL     1     -10.035  10.694  63.736  1.00  0.00    -0.317 C  
HETATM    4  H1  UNL     1      -8.695   9.140  63.691  1.00  0.00     0.000 HD 
HETATM    5  N   UNL     1     -11.030  11.240  63.101  1.00  0.00    -0.838 N  
HETATM    6  H   UNL     1     -11.350  10.838  62.220  1.00  0.00     0.000 HD 
HETATM    7  C   UNL     1     -11.654  12.357  63.612  1.00  0.00    -0.499 C  
HETATM    8  N   UNL     1     -11.229  12.862  64.860  1.00  0.00    -0.292 N  
HETATM    9  O   UNL     1     -12.562  12.896  62.986  1.00  0.00    -0.530 OA 
HETATM   10  F   UNL     1      -8.437  10.674  65.557  1.00  0.00    -0.160 F  
HETATM   11  C   UNL     1     -10.149  12.297  65.513  1.00  0.00    -0.256 C  
HETATM   12  C   UNL     1      -9.514  11.252  64.998  1.00  0.00    -0.209 C  
ENDROOT
BRANCH   8  13
HETATM   13  C   UNL     1     -11.990  13.991  65.410  1.00  0.00    -0.380 C  
HETATM   14  C   UNL     1     -11.364  15.390  65.341  1.00  0.00    -0.197 C  
HETATM   15  S   UNL     1     -10.437  15.546  66.872  1.00  0.00    -0.305 SA 
HETATM   16  C   UNL     1     -11.574  14.430  67.720  1.00  0.00    -0.356 C  
HETATM   17  O   UNL     1     -12.341  13.677  66.770  1.00  0.00    -0.387 OA 
BRANCH  16  18
HETATM   18  C   UNL     1     -10.886  13.450  68.682  1.00  0.00    -0.263 C  
HETATM   19  O   UNL     1     -10.434  14.097  69.873  1.00  0.00    -0.408 OA 
HETATM   20  H   UNL     1     -10.009  13.491  70.468  1.00  0.00     0.000 HD 
ENDBRANCH  16  18
ENDBRANCH   8  13
TORSDOF 2
ENDMDL
MODEL       33
REMARK 921   NORMALIZED FREE ENERGY PREDICTED BY IDOCK:   -5.03 KCAL/MOL
REMARK 922        TOTAL FREE ENERGY PREDICTED BY IDOCK:   -5.81 KCAL/MOL
REMARK 923 INTER-LIGAND FREE ENERGY PREDICTED BY IDOCK:   -5.91 KCAL/MOL
REMARK 924 INTRA-LIGAND FREE ENERGY PREDICTED BY IDOCK:    0.10 KCAL/MOL
REMARK 927      BINDING AFFINITY PREDICTED BY RF-SCORE:    0.00 PKD
ROOT
HETATM    1  N   UNL     1     -11.282  10.438  70.520  1.00  0.00    -0.346 NA 
HETATM    2  H2  UNL     1     -11.455  10.860  71.432  1.00  0.00     0.000 HD 
HETATM    3  C   UNL     1     -11.330  11.185  69.373  1.00  0.00    -0.283 C  
HETATM    4  H1  UNL     1     -11.067   9.445  70.430  1.00  0.00     0.000 HD 
HETATM    5  N   UNL     1     -11.604  12.450  69.487  1.00  0.00    -0.365 N  
HETATM    6  H   UNL     1     -11.796  12.846  70.407  1.00  0.00     0.000 HD 
HETATM    7  C   UNL     1     -11.636  13.260  68.372  1.00  0.00    -0.337 C  
HETATM    8  N   UNL     1     -11.315  12.701  67.116  1.00  0.00    -0.300 N  
HETATM    9  O   UNL     1     -11.942  14.445  68.480  1.00  0.00    -0.331 OA 
HETATM   10  F   UNL     1     -10.869   9.229  68.018  1.00  0.00    -0.277 F  
HETATM   11  C   UNL     1     -11.057  11.348  66.998  1.00  0.00    -0.303 C  
HETATM   12  C   UNL     1     -11.074  10.556  68.063  1.00  0.00    -0.300 C  
ENDROOT
BRANCH   8  13
HETATM   13  C   UNL     1     -11.264  13.624  65.976  1.00  0.00    -0.296 C  
HETATM   14  C   UNL     1     -12.532  13.800  65.129  1.00  0.00    -0.450 C  
HETATM   15  S   UNL     1     -12.396  12.548  63.847  1.00  0.00    -0.488 SA 
HETATM   16  C   UNL     1     -10.593  12.615  63.918  1.00  0.00    -0.428 C  
HETATM   17  O   UNL     1     -10.161  13.240  65.135  1.00  0.00    -0.307 OA 
BRANCH  16  18
HETATM   18  C   UNL     1      -9.912  11.244  63.803  1.00  0.00    -0.342 C  
HETATM   19  O   UNL     1     -10.200  10.605  62.557  1.00  0.00    -0.758 OA 
HETATM   20  H   UNL     1      -9.779   9.757  62.486  1.00  0.00     0.000 HD 
ENDBRANCH  16  18
ENDBRANCH   8  13
TORSDOF 2
ENDMDL
MODEL       34
REMARK 921   NORMALIZED FREE ENERGY PREDICTED BY IDOCK:   -5.03 KCAL/MOL
REMARK 922        TOTAL FREE ENERGY PREDICTED BY IDOCK:   -5.81 KCAL/MOL
REMARK 923 INTER-LIGAND FREE ENERGY PREDICTED BY IDOCK:   -5.67 KCAL/MOL
REMARK 924 INTRA-LIGAND FREE ENERGY PREDICTED BY IDOCK:   -0.14 KCAL/MOL
REMARK 927      BINDING AFFINITY PREDICTED BY RF-SCORE:    0.00 PKD
ROOT
HETATM    1  N   UNL     1     -14.356   8.925  72.967  1.00  0.00    -1.154 NA 
HETATM    2  H2  UNL     1     -14.661   8.209  73.626  1.00  0.00     0.000 HD 
HETATM    3  C   UNL     1     -13.088   8.918  72.450  1.00  0.00    -0.418 C  
HETATM    4  H1  UNL     1     -14.985   9.670  72.669  1.00  0.00     0.000 HD 
HETATM    5  N   UNL     1     -12.287   7.968  72.829  1.00  0.00    -0.610 N  
HETATM    6  H   UNL     1     -12.606   7.276  73.507  1.00  0.00     0.000 HD 
HETATM    7  C   UNL     1     -11.008   7.890  72.321  1.00  0.00    -0.300 C  
HETATM    8  N   UNL     1     -10.607   8.827  71.344  1.00  0.00    -0.253 N  
HETATM    9  O   UNL     1     -10.239   7.018  72.718  1.00  0.00    -0.181 OA 
HETATM   10  F   UNL     1     -13.528  10.951  71.207  1.00  0.00    -0.365 F  
HETATM   11  C   UNL     1     -11.453   9.854  70.970  1.00  0.00    -0.388 C  
HETATM   12  C   UNL     1     -12.667   9.961  71.495  1.00  0.00    -0.415 C  
ENDROOT
BRANCH   8  13
HETATM   13  C   UNL     1      -9.273   8.642  70.759  1.00  0.00    -0.185 C  
HETATM   14  C   UNL     1      -8.637   9.824  70.017  1.00  0.00    -0.204 C  
HETATM   15  S   UNL     1      -9.174   9.630  68.314  1.00  0.00    -0.129 SA 
HETATM   16  C   UNL     1      -9.281   7.839  68.511  1.00  0.00    -0.137 C  
HETATM   17  O   UNL     1      -9.313   7.488  69.901  1.00  0.00    -0.151 OA 
BRANCH  16  18
HETATM   18  C   UNL     1     -10.497   7.206  67.818  1.00  0.00    -0.223 C  
HETATM   19  O   UNL     1     -11.508   6.824  68.755  1.00  0.00    -0.559 OA 
HETATM   20  H   UNL     1     -12.260   6.433  68.327  1.00  0.00     0.000 HD 
ENDBRANCH  16  18
ENDBRANCH   8  13
TORSDOF 2
ENDMDL
MODEL       35
REMARK 921   NORMALIZED FREE ENERGY PREDICTED BY IDOCK:   -4.99 KCAL/MOL
REMARK 922        TOTAL FREE ENERGY PREDICTED BY IDOCK:   -5.77 KCAL/MOL
REMARK 923 INTER-LIGAND FREE ENERGY PREDICTED BY IDOCK:   -5.77 KCAL/MOL
REMARK 924 INTRA-LIGAND FREE ENERGY PREDICTED BY IDOCK:    0.00 KCAL/MOL
REMARK 927      BINDING AFFINITY PREDICTED BY RF-SCORE:    0.00 PKD
ROOT
HETATM    1  N   UNL     1     -11.186  16.696  70.088  1.00  0.00    -0.435 NA 
HETATM    2  H2  UNL     1     -10.692  17.562  70.306  1.00  0.00     0.000 HD 
HETATM    3  C   UNL     1     -11.182  16.178  68.820  1.00  0.00    -0.365 C  
HETATM    4  H1  UNL     1     -11.700  16.186  70.806  1.00  0.00     0.000 HD 
HETATM    5  N   UNL     1     -10.527  16.829  67.905  1.00  0.00    -0.322 N  
HETATM    6  H   UNL     1     -10.060  17.704  68.141  1.00  0.00     0.000 HD 
HETATM    7  C   UNL     1     -10.460  16.342  66.617  1.00  0.00    -0.274 C  
HETATM    8  N   UNL     1     -11.069  15.102  66.326  1.00  0.00    -0.333 N  
HETATM    9  O   UNL     1      -9.880  16.984  65.745  1.00  0.00    -0.525 OA 
HETATM   10  F   UNL     1     -12.613  14.348  69.506  1.00  0.00    -0.342 F  
HETATM   11  C   UNL     1     -11.792  14.433  67.296  1.00  0.00    -0.405 C  
HETATM   12  C   UNL     1     -11.899  14.924  68.525  1.00  0.00    -0.294 C  
ENDROOT
BRANCH   8  13
HETATM   13  C   UNL     1     -10.884  14.577  64.968  1.00  0.00    -0.412 C  
HETATM   14  C   UNL     1     -12.135  14.266  64.136  1.00  0.00    -0.393 C  
HETATM   15  S   UNL     1     -12.515  12.551  64.515  1.00  0.00    -0.405 SA 
HETATM   16  C   UNL     1     -10.773  12.196  64.834  1.00  0.00    -0.295 C  
HETATM   17  O   UNL     1     -10.043  13.412  65.045  1.00  0.00    -0.301 OA 
BRANCH  16  18
HETATM   18  C   UNL     1     -10.535  11.268  66.035  1.00  0.00    -0.257 C  
HETATM   19  O   UNL     1     -11.698  11.150  66.859  1.00  0.00    -0.410 OA 
HETATM   20  H   UNL     1     -11.551  10.576  67.601  1.00  0.00     0.000 HD 
ENDBRANCH  16  18
ENDBRANCH   8  13
TORSDOF 2
ENDMDL
MODEL       36
REMARK 921   NORMALIZED FREE ENERGY PREDICTED BY IDOCK:   -4.96 KCAL/MOL
REMARK 922        TOTAL FREE ENERGY PREDICTED BY IDOCK:   -5.74 KCAL/MOL
REMARK 923 INTER-LIGAND FREE ENERGY PREDICTED BY IDOCK:   -5.65 KCAL/MOL
REMARK 924 INTRA-LIGAND FREE ENERGY PREDICTED BY IDOCK:   -0.09 KCAL/MOL
REMARK 927      BINDING AFFINITY PREDICTED BY RF-SCORE:    0.00 PKD
ROOT
HETATM    1  N   UNL     1     -10.822   9.951  70.420  1.00  0.00    -0.298 NA 
HETATM    2  H2  UNL     1     -10.805  10.061  71.434  1.00  0.00     0.000 HD 
HETATM    3  C   UNL     1     -11.201  10.981  69.601  1.00  0.00    -0.278 C  
HETATM    4  H1  UNL     1     -10.557   9.069  69.980  1.00  0.00     0.000 HD 
HETATM    5  N   UNL     1     -11.538  12.104  70.161  1.00  0.00    -0.536 N  
HETATM    6  H   UNL     1     -11.535  12.185  71.177  1.00  0.00     0.000 HD 
HETATM    7  C   UNL     1     -11.900  13.188  69.388  1.00  0.00    -0.326 C  
HETATM    8  N   UNL     1     -11.844  13.069  67.983  1.00  0.00    -0.355 N  
HETATM    9  O   UNL     1     -12.262  14.232  69.923  1.00  0.00    -0.324 OA 
HETATM   10  F   UNL     1     -10.925   9.590  67.636  1.00  0.00    -0.331 F  
HETATM   11  C   UNL     1     -11.517  11.861  67.395  1.00  0.00    -0.323 C  
HETATM   12  C   UNL     1     -11.217  10.802  68.136  1.00  0.00    -0.302 C  
ENDROOT
BRANCH   8  13
HETATM   13  C   UNL     1     -12.140  14.278  67.205  1.00  0.00    -0.377 C  
HETATM   14  C   UNL     1     -12.376  14.129  65.696  1.00  0.00    -0.456 C  
HETATM   15  S   UNL     1     -10.746  14.317  64.963  1.00  0.00    -0.441 SA 
HETATM   16  C   UNL     1     -10.216  15.381  66.322  1.00  0.00    -0.290 C  
HETATM   17  O   UNL     1     -11.094  15.236  67.446  1.00  0.00    -0.320 OA 
BRANCH  16  18
HETATM   18  C   UNL     1      -8.776  15.125  66.790  1.00  0.00    -0.273 C  
HETATM   19  O   UNL     1      -8.451  13.733  66.785  1.00  0.00    -0.419 OA 
HETATM   20  H   UNL     1      -7.560  13.574  67.074  1.00  0.00     0.000 HD 
ENDBRANCH  16  18
ENDBRANCH   8  13
TORSDOF 2
ENDMDL
MODEL       37
REMARK 921   NORMALIZED FREE ENERGY PREDICTED BY IDOCK:   -4.94 KCAL/MOL
REMARK 922        TOTAL FREE ENERGY PREDICTED BY IDOCK:   -5.71 KCAL/MOL
REMARK 923 INTER-LIGAND FREE ENERGY PREDICTED BY IDOCK:   -5.63 KCAL/MOL
REMARK 924 INTRA-LIGAND FREE ENERGY PREDICTED BY IDOCK:   -0.09 KCAL/MOL
REMARK 927      BINDING AFFINITY PREDICTED BY RF-SCORE:    0.00 PKD
ROOT
HETATM    1  N   UNL     1     -11.158   5.510  66.182  1.00  0.00    -0.778 NA 
HETATM    2  H2  UNL     1     -11.391   5.830  65.242  1.00  0.00     0.000 HD 
HETATM    3  C   UNL     1     -10.904   6.400  67.191  1.00  0.00    -0.393 C  
HETATM    4  H1  UNL     1     -11.108   4.516  66.404  1.00  0.00     0.000 HD 
HETATM    5  N   UNL     1     -10.968   7.667  66.909  1.00  0.00    -0.491 N  
HETATM    6  H   UNL     1     -11.180   7.964  65.957  1.00  0.00     0.000 HD 
HETATM    7  C   UNL     1     -10.752   8.612  67.890  1.00  0.00    -0.093 C  
HETATM    8  N   UNL     1     -10.514   8.177  69.211  1.00  0.00    -0.222 N  
HETATM    9  O   UNL     1     -10.768   9.807  67.608  1.00  0.00    -0.260 OA 
HETATM   10  F   UNL     1     -10.453   4.594  68.742  1.00  0.00    -0.158 F  
HETATM   11  C   UNL     1     -10.413   6.829  69.497  1.00  0.00    -0.220 C  
HETATM   12  C   UNL     1     -10.572   5.917  68.545  1.00  0.00    -0.252 C  
ENDROOT
BRANCH   8  13
HETATM   13  C   UNL     1     -10.391   9.220  70.238  1.00  0.00    -0.229 C  
HETATM   14  C   UNL     1      -9.543   8.917  71.480  1.00  0.00    -0.292 C  
HETATM   15  S   UNL     1     -10.700   8.200  72.653  1.00  0.00    -0.313 SA 
HETATM   16  C   UNL     1     -12.066   9.137  71.937  1.00  0.00    -0.378 C  
HETATM   17  O   UNL     1     -11.715   9.621  70.633  1.00  0.00    -0.269 OA 
BRANCH  16  18
HETATM   18  C   UNL     1     -13.377   8.345  71.827  1.00  0.00    -0.357 C  
HETATM   19  O   UNL     1     -14.327   8.741  72.818  1.00  0.00    -0.920 OA 
HETATM   20  H   UNL     1     -15.138   8.251  72.751  1.00  0.00     0.000 HD 
ENDBRANCH  16  18
ENDBRANCH   8  13
TORSDOF 2
ENDMDL
MODEL       38
REMARK 921   NORMALIZED FREE ENERGY PREDICTED BY IDOCK:   -4.86 KCAL/MOL
REMARK 922        TOTAL FREE ENERGY PREDICTED BY IDOCK:   -5.63 KCAL/MOL
REMARK 923 INTER-LIGAND FREE ENERGY PREDICTED BY IDOCK:   -5.74 KCAL/MOL
REMARK 924 INTRA-LIGAND FREE ENERGY PREDICTED BY IDOCK:    0.11 KCAL/MOL
REMARK 927      BINDING AFFINITY PREDICTED BY RF-SCORE:    0.00 PKD
ROOT
HETATM    1  N   UNL     1     -13.287  14.313  73.040  1.00  0.00    -0.644 NA 
HETATM    2  H2  UNL     1     -13.742  13.412  73.184  1.00  0.00     0.000 HD 
HETATM    3  C   UNL     1     -12.621  14.593  71.876  1.00  0.00    -0.339 C  
HETATM    4  H1  UNL     1     -13.312  15.038  73.757  1.00  0.00     0.000 HD 
HETATM    5  N   UNL     1     -12.589  13.670  70.962  1.00  0.00    -0.361 N  
HETATM    6  H   UNL     1     -13.031  12.768  71.137  1.00  0.00     0.000 HD 
HETATM    7  C   UNL     1     -11.960  13.903  69.757  1.00  0.00    -0.338 C  
HETATM    8  N   UNL     1     -11.401  15.178  69.518  1.00  0.00    -0.266 N  
HETATM    9  O   UNL     1     -11.892  13.012  68.916  1.00  0.00    -0.302 OA 
HETATM   10  F   UNL     1     -11.985  16.780  72.705  1.00  0.00    -0.558 F  
HETATM   11  C   UNL     1     -11.410  16.143  70.507  1.00  0.00    -0.373 C  
HETATM   12  C   UNL     1     -11.971  15.904  71.686  1.00  0.00    -0.480 C  
ENDROOT
BRANCH   8  13
HETATM   13  C   UNL     1     -10.833  15.410  68.185  1.00  0.00    -0.285 C  
HETATM   14  C   UNL     1      -9.406  14.919  67.910  1.00  0.00    -0.191 C  
HETATM   15  S   UNL     1      -8.356  16.305  68.363  1.00  0.00    -0.200 SA 
HETATM   16  C   UNL     1      -9.665  17.480  67.955  1.00  0.00    -0.278 C  
HETATM   17  O   UNL     1     -10.934  16.815  67.890  1.00  0.00    -0.337 OA 
BRANCH  16  18
HETATM   18  C   UNL     1      -9.778  18.655  68.937  1.00  0.00    -0.322 C  
HETATM   19  O   UNL     1     -10.635  19.686  68.442  1.00  0.00    -0.467 OA 
HETATM   20  H   UNL     1     -10.705  20.413  69.049  1.00  0.00     0.000 HD 
ENDBRANCH  16  18
ENDBRANCH   8  13
TORSDOF 2
ENDMDL
MODEL       39
REMARK 921   NORMALIZED FREE ENERGY PREDICTED BY IDOCK:   -4.84 KCAL/MOL
REMARK 922        TOTAL FREE ENERGY PREDICTED BY IDOCK:   -5.60 KCAL/MOL
REMARK 923 INTER-LIGAND FREE ENERGY PREDICTED BY IDOCK:   -5.56 KCAL/MOL
REMARK 924 INTRA-LIGAND FREE ENERGY PREDICTED BY IDOCK:   -0.04 KCAL/MOL
REMARK 927      BINDING AFFINITY PREDICTED BY RF-SCORE:    0.00 PKD
ROOT
HETATM    1  N   UNL     1      -9.529  20.865  67.029  1.00  0.00    -0.690 NA 
HETATM    2  H2  UNL     1      -8.972  21.442  67.659  1.00  0.00     0.000 HD 
HETATM    3  C   UNL     1      -9.482  19.498  67.091  1.00  0.00    -0.332 C  
HETATM    4  H1  UNL     1     -10.141  21.287  66.330  1.00  0.00     0.000 HD 
HETATM    5  N   UNL     1      -8.703  18.961  67.982  1.00  0.00    -0.291 N  
HETATM    6  H   UNL     1      -8.137  19.556  68.586  1.00  0.00     0.000 HD 
HETATM    7  C   UNL     1      -8.635  17.590  68.113  1.00  0.00    -0.258 C  
HETATM    8  N   UNL     1      -9.467  16.787  67.302  1.00  0.00    -0.228 N  
HETATM    9  O   UNL     1      -7.862  17.086  68.924  1.00  0.00    -0.249 OA 
HETATM   10  F   UNL     1     -11.024  19.308  65.231  1.00  0.00    -0.520 F  
HETATM   11  C   UNL     1     -10.269  17.364  66.335  1.00  0.00    -0.338 C  
HETATM   12  C   UNL     1     -10.298  18.681  66.172  1.00  0.00    -0.443 C  
ENDROOT
BRANCH   8  13
HETATM   13  C   UNL     1      -9.434  15.341  67.549  1.00  0.00    -0.202 C  
HETATM   14  C   UNL     1     -10.203  14.424  66.589  1.00  0.00    -0.277 C  
HETATM   15  S   UNL     1     -11.844  14.292  67.307  1.00  0.00    -0.405 SA 
HETATM   16  C   UNL     1     -11.180  14.540  68.968  1.00  0.00    -0.268 C  
HETATM   17  O   UNL     1      -9.863  15.105  68.902  1.00  0.00    -0.212 OA 
BRANCH  16  18
HETATM   18  C   UNL     1     -12.052  15.433  69.862  1.00  0.00    -0.355 C  
HETATM   19  O   UNL     1     -11.311  16.524  70.414  1.00  0.00    -0.496 OA 
HETATM   20  H   UNL     1     -11.850  17.076  70.968  1.00  0.00     0.000 HD 
ENDBRANCH  16  18
ENDBRANCH   8  13
TORSDOF 2
ENDMDL
MODEL       40
REMARK 921   NORMALIZED FREE ENERGY PREDICTED BY IDOCK:   -4.82 KCAL/MOL
REMARK 922        TOTAL FREE ENERGY PREDICTED BY IDOCK:   -5.58 KCAL/MOL
REMARK 923 INTER-LIGAND FREE ENERGY PREDICTED BY IDOCK:   -5.41 KCAL/MOL
REMARK 924 INTRA-LIGAND FREE ENERGY PREDICTED BY IDOCK:   -0.17 KCAL/MOL
REMARK 927      BINDING AFFINITY PREDICTED BY RF-SCORE:    0.00 PKD
ROOT
HETATM    1  N   UNL     1     -14.337   8.862  73.223  1.00  0.00    -1.177 NA 
HETATM    2  H2  UNL     1     -14.858   9.651  73.603  1.00  0.00     0.000 HD 
HETATM    3  C   UNL     1     -13.372   9.043  72.268  1.00  0.00    -0.467 C  
HETATM    4  H1  UNL     1     -14.516   7.909  73.540  1.00  0.00     0.000 HD 
HETATM    5  N   UNL     1     -13.144  10.257  71.864  1.00  0.00    -0.461 N  
HETATM    6  H   UNL     1     -13.693  11.029  72.242  1.00  0.00     0.000 HD 
HETATM    7  C   UNL     1     -12.163  10.507  70.927  1.00  0.00    -0.388 C  
HETATM    8  N   UNL     1     -11.380   9.430  70.459  1.00  0.00    -0.265 N  
HETATM    9  O   UNL     1     -11.984  11.649  70.514  1.00  0.00    -0.360 OA 
HETATM   10  F   UNL     1     -12.970   6.657  72.146  1.00  0.00    -0.327 F  
HETATM   11  C   UNL     1     -11.651   8.138  70.868  1.00  0.00    -0.267 C  
HETATM   12  C   UNL     1     -12.627   7.888  71.732  1.00  0.00    -0.328 C  
ENDROOT
BRANCH   8  13
HETATM   13  C   UNL     1     -10.284   9.760  69.540  1.00  0.00    -0.221 C  
HETATM   14  C   UNL     1     -10.032   8.828  68.348  1.00  0.00    -0.179 C  
HETATM   15  S   UNL     1      -8.862   7.612  68.965  1.00  0.00    -0.134 SA 
HETATM   16  C   UNL     1      -8.176   8.807  70.132  1.00  0.00    -0.117 C  
HETATM   17  O   UNL     1      -9.078   9.908  70.312  1.00  0.00    -0.208 OA 
BRANCH  16  18
HETATM   18  C   UNL     1      -7.847   8.215  71.510  1.00  0.00    -0.108 C  
HETATM   19  O   UNL     1      -8.683   8.752  72.538  1.00  0.00    -0.406 OA 
HETATM   20  H   UNL     1      -8.479   8.386  73.390  1.00  0.00     0.000 HD 
ENDBRANCH  16  18
ENDBRANCH   8  13
TORSDOF 2
ENDMDL
MODEL       41
REMARK 921   NORMALIZED FREE ENERGY PREDICTED BY IDOCK:   -4.81 KCAL/MOL
REMARK 922        TOTAL FREE ENERGY PREDICTED BY IDOCK:   -5.57 KCAL/MOL
REMARK 923 INTER-LIGAND FREE ENERGY PREDICTED BY IDOCK:   -5.38 KCAL/MOL
REMARK 924 INTRA-LIGAND FREE ENERGY PREDICTED BY IDOCK:   -0.19 KCAL/MOL
REMARK 927      BINDING AFFINITY PREDICTED BY RF-SCORE:    0.00 PKD
ROOT
HETATM    1  N   UNL     1      -9.320   8.498  65.688  1.00  0.00    -0.426 NA 
HETATM    2  H2  UNL     1      -9.264   7.807  66.436  1.00  0.00     0.000 HD 
HETATM    3  C   UNL     1     -10.036   9.655  65.843  1.00  0.00    -0.281 C  
HETATM    4  H1  UNL     1      -8.844   8.351  64.797  1.00  0.00     0.000 HD 
HETATM    5  N   UNL     1     -10.642   9.841  66.978  1.00  0.00    -0.225 N  
HETATM    6  H   UNL     1     -10.591   9.127  67.703  1.00  0.00     0.000 HD 
HETATM    7  C   UNL     1     -11.353  11.000  67.205  1.00  0.00    -0.188 C  
HETATM    8  N   UNL     1     -11.365  11.998  66.207  1.00  0.00    -0.347 N  
HETATM    9  O   UNL     1     -11.962  11.151  68.260  1.00  0.00    -0.592 OA 
HETATM   10  F   UNL     1      -9.510  10.345  63.581  1.00  0.00    -0.238 F  
HETATM   11  C   UNL     1     -10.746  11.778  64.990  1.00  0.00    -0.292 C  
HETATM   12  C   UNL     1     -10.102  10.643  64.749  1.00  0.00    -0.344 C  
ENDROOT
BRANCH   8  13
HETATM   13  C   UNL     1     -12.050  13.254  66.535  1.00  0.00    -0.375 C  
HETATM   14  C   UNL     1     -12.816  13.975  65.419  1.00  0.00    -0.410 C  
HETATM   15  S   UNL     1     -11.607  15.079  64.680  1.00  0.00    -0.331 SA 
HETATM   16  C   UNL     1     -10.716  15.213  66.245  1.00  0.00    -0.320 C  
HETATM   17  O   UNL     1     -11.092  14.148  67.129  1.00  0.00    -0.293 OA 
BRANCH  16  18
HETATM   18  C   UNL     1      -9.188  15.210  66.096  1.00  0.00    -0.283 C  
HETATM   19  O   UNL     1      -8.596  14.047  66.679  1.00  0.00    -0.431 OA 
HETATM   20  H   UNL     1      -7.650  14.045  66.587  1.00  0.00     0.000 HD 
ENDBRANCH  16  18
ENDBRANCH   8  13
TORSDOF 2
ENDMDL
MODEL       42
REMARK 921   NORMALIZED FREE ENERGY PREDICTED BY IDOCK:   -4.80 KCAL/MOL
REMARK 922        TOTAL FREE ENERGY PREDICTED BY IDOCK:   -5.56 KCAL/MOL
REMARK 923 INTER-LIGAND FREE ENERGY PREDICTED BY IDOCK:   -5.69 KCAL/MOL
REMARK 924 INTRA-LIGAND FREE ENERGY PREDICTED BY IDOCK:    0.13 KCAL/MOL
REMARK 927      BINDING AFFINITY PREDICTED BY RF-SCORE:    0.00 PKD
ROOT
HETATM    1  N   UNL     1     -11.971   8.807  70.546  1.00  0.00    -0.473 NA 
HETATM    2  H2  UNL     1     -11.517   8.170  69.892  1.00  0.00     0.000 HD 
HETATM    3  C   UNL     1     -11.961  10.161  70.340  1.00  0.00    -0.267 C  
HETATM    4  H1  UNL     1     -12.450   8.457  71.376  1.00  0.00     0.000 HD 
HETATM    5  N   UNL     1     -11.351  10.606  69.282  1.00  0.00    -0.262 N  
HETATM    6  H   UNL     1     -10.884   9.952  68.654  1.00  0.00     0.000 HD 
HETATM    7  C   UNL     1     -11.332  11.956  69.004  1.00  0.00    -0.279 C  
HETATM    8  N   UNL     1     -12.031  12.835  69.859  1.00  0.00    -0.325 N  
HETATM    9  O   UNL     1     -10.715  12.375  68.030  1.00  0.00    -0.210 OA 
HETATM   10  F   UNL     1     -13.173  10.536  72.405  1.00  0.00    -0.518 F  
HETATM   11  C   UNL     1     -12.649  12.359  71.001  1.00  0.00    -0.254 C  
HETATM   12  C   UNL     1     -12.627  11.065  71.297  1.00  0.00    -0.412 C  
ENDROOT
BRANCH   8  13
HETATM   13  C   UNL     1     -12.067  14.249  69.467  1.00  0.00    -0.330 C  
HETATM   14  C   UNL     1     -10.872  15.135  69.840  1.00  0.00    -0.270 C  
HETATM   15  S   UNL     1     -11.288  15.797  71.459  1.00  0.00    -0.282 SA 
HETATM   16  C   UNL     1     -13.052  15.701  71.087  1.00  0.00    -0.459 C  
HETATM   17  O   UNL     1     -13.284  14.827  69.973  1.00  0.00     0.021 OA 
BRANCH  16  18
HETATM   18  C   UNL     1     -13.914  15.228  72.267  1.00  0.00    -0.546 C  
HETATM   19  O   UNL     1     -13.931  16.181  73.333  1.00  0.00    -0.817 OA 
HETATM   20  H   UNL     1     -14.463  15.889  74.063  1.00  0.00     0.000 HD 
ENDBRANCH  16  18
ENDBRANCH   8  13
TORSDOF 2
ENDMDL
MODEL       43
REMARK 921   NORMALIZED FREE ENERGY PREDICTED BY IDOCK:   -4.74 KCAL/MOL
REMARK 922        TOTAL FREE ENERGY PREDICTED BY IDOCK:   -5.49 KCAL/MOL
REMARK 923 INTER-LIGAND FREE ENERGY PREDICTED BY IDOCK:   -5.79 KCAL/MOL
REMARK 924 INTRA-LIGAND FREE ENERGY PREDICTED BY IDOCK:    0.30 KCAL/MOL
REMARK 927      BINDING AFFINITY PREDICTED BY RF-SCORE:    0.00 PKD
ROOT
HETATM    1  N   UNL     1     -12.458  15.752  71.447  1.00  0.00    -0.438 NA 
HETATM    2  H2  UNL     1     -12.437  16.659  71.913  1.00  0.00     0.000 HD 
HETATM    3  C   UNL     1     -11.931  15.586  70.194  1.00  0.00    -0.366 C  
HETATM    4  H1  UNL     1     -12.871  14.936  71.899  1.00  0.00     0.000 HD 
HETATM    5  N   UNL     1     -11.404  16.626  69.619  1.00  0.00    -0.298 N  
HETATM    6  H   UNL     1     -11.415  17.528  70.094  1.00  0.00     0.000 HD 
HETATM    7  C   UNL     1     -10.831  16.516  68.370  1.00  0.00    -0.348 C  
HETATM    8  N   UNL     1     -10.780  15.246  67.755  1.00  0.00    -0.278 N  
HETATM    9  O   UNL     1     -10.376  17.510  67.811  1.00  0.00    -0.335 OA 
HETATM   10  F   UNL     1     -12.595  13.256  70.166  1.00  0.00    -0.323 F  
HETATM   11  C   UNL     1     -11.372  14.152  68.358  1.00  0.00    -0.287 C  
HETATM   12  C   UNL     1     -11.969  14.265  69.538  1.00  0.00    -0.336 C  
ENDROOT
BRANCH   8  13
HETATM   13  C   UNL     1     -10.070  15.161  66.473  1.00  0.00    -0.269 C  
HETATM   14  C   UNL     1     -10.523  16.080  65.332  1.00  0.00    -0.392 C  
HETATM   15  S   UNL     1     -11.774  15.133  64.457  1.00  0.00    -0.246 SA 
HETATM   16  C   UNL     1     -10.989  13.579  64.938  1.00  0.00    -0.352 C  
HETATM   17  O   UNL     1     -10.092  13.789  66.036  1.00  0.00    -0.295 OA 
BRANCH  16  18
HETATM   18  C   UNL     1     -11.981  12.471  65.321  1.00  0.00    -0.438 C  
HETATM   19  O   UNL     1     -13.080  12.397  64.410  1.00  0.00    -0.786 OA 
HETATM   20  H   UNL     1     -13.693  11.711  64.646  1.00  0.00     0.000 HD 
ENDBRANCH  16  18
ENDBRANCH   8  13
TORSDOF 2
ENDMDL
MODEL       44
REMARK 921   NORMALIZED FREE ENERGY PREDICTED BY IDOCK:   -4.71 KCAL/MOL
REMARK 922        TOTAL FREE ENERGY PREDICTED BY IDOCK:   -5.46 KCAL/MOL
REMARK 923 INTER-LIGAND FREE ENERGY PREDICTED BY IDOCK:   -5.61 KCAL/MOL
REMARK 924 INTRA-LIGAND FREE ENERGY PREDICTED BY IDOCK:    0.15 KCAL/MOL
REMARK 927      BINDING AFFINITY PREDICTED BY RF-SCORE:    0.00 PKD
ROOT
HETATM    1  N   UNL     1     -13.228  10.809  72.133  1.00  0.00    -0.591 NA 
HETATM    2  H2  UNL     1     -13.398   9.805  72.190  1.00  0.00     0.000 HD 
HETATM    3  C   UNL     1     -12.697  11.375  71.004  1.00  0.00    -0.349 C  
HETATM    4  H1  UNL     1     -13.447  11.427  72.914  1.00  0.00     0.000 HD 
HETATM    5  N   UNL     1     -12.417  10.588  70.009  1.00  0.00    -0.508 N  
HETATM    6  H   UNL     1     -12.575   9.584  70.096  1.00  0.00     0.000 HD 
HETATM    7  C   UNL     1     -11.909  11.102  68.835  1.00  0.00    -0.337 C  
HETATM    8  N   UNL     1     -11.750  12.500  68.718  1.00  0.00    -0.312 N  
HETATM    9  O   UNL     1     -11.603  10.350  67.914  1.00  0.00    -0.406 OA 
HETATM   10  F   UNL     1     -12.707  13.567  72.036  1.00  0.00    -0.387 F  
HETATM   11  C   UNL     1     -12.018  13.327  69.792  1.00  0.00    -0.324 C  
HETATM   12  C   UNL     1     -12.460  12.830  70.941  1.00  0.00    -0.283 C  
ENDROOT
BRANCH   8  13
HETATM   13  C   UNL     1     -11.302  13.008  67.415  1.00  0.00    -0.305 C  
HETATM   14  C   UNL     1      -9.817  12.871  67.056  1.00  0.00    -0.233 C  
HETATM   15  S   UNL     1      -9.065  14.386  67.664  1.00  0.00    -0.203 SA 
HETATM   16  C   UNL     1     -10.609  15.292  67.430  1.00  0.00    -0.282 C  
HETATM   17  O   UNL     1     -11.711  14.383  67.303  1.00  0.00    -0.370 OA 
BRANCH  16  18
HETATM   18  C   UNL     1     -10.924  16.289  68.555  1.00  0.00    -0.345 C  
HETATM   19  O   UNL     1     -10.575  17.628  68.197  1.00  0.00    -0.376 OA 
HETATM   20  H   UNL     1     -10.769  18.245  68.892  1.00  0.00     0.000 HD 
ENDBRANCH  16  18
ENDBRANCH   8  13
TORSDOF 2
ENDMDL
MODEL       45
REMARK 921   NORMALIZED FREE ENERGY PREDICTED BY IDOCK:   -4.71 KCAL/MOL
REMARK 922        TOTAL FREE ENERGY PREDICTED BY IDOCK:   -5.45 KCAL/MOL
REMARK 923 INTER-LIGAND FREE ENERGY PREDICTED BY IDOCK:   -5.32 KCAL/MOL
REMARK 924 INTRA-LIGAND FREE ENERGY PREDICTED BY IDOCK:   -0.13 KCAL/MOL
REMARK 927      BINDING AFFINITY PREDICTED BY RF-SCORE:    0.00 PKD
ROOT
HETATM    1  N   UNL     1     -11.238  12.705  63.082  1.00  0.00    -0.738 NA 
HETATM    2  H2  UNL     1     -10.670  11.999  62.613  1.00  0.00     0.000 HD 
HETATM    3  C   UNL     1     -10.948  13.117  64.355  1.00  0.00    -0.390 C  
HETATM    4  H1  UNL     1     -12.041  13.129  62.618  1.00  0.00     0.000 HD 
HETATM    5  N   UNL     1      -9.924  12.577  64.946  1.00  0.00    -0.457 N  
HETATM    6  H   UNL     1      -9.384  11.857  64.466  1.00  0.00     0.000 HD 
HETATM    7  C   UNL     1      -9.563  12.972  66.216  1.00  0.00    -0.238 C  
HETATM    8  N   UNL     1     -10.293  14.008  66.838  1.00  0.00    -0.267 N  
HETATM    9  O   UNL     1      -8.624  12.426  66.788  1.00  0.00    -0.190 OA 
HETATM   10  F   UNL     1     -12.865  14.599  64.368  1.00  0.00    -0.376 F  
HETATM   11  C   UNL     1     -11.401  14.554  66.218  1.00  0.00    -0.352 C  
HETATM   12  C   UNL     1     -11.781  14.141  65.015  1.00  0.00    -0.376 C  
ENDROOT
BRANCH   8  13
HETATM   13  C   UNL     1      -9.810  14.464  68.147  1.00  0.00    -0.223 C  
HETATM   14  C   UNL     1     -10.792  15.200  69.067  1.00  0.00    -0.242 C  
HETATM   15  S   UNL     1     -10.603  16.934  68.634  1.00  0.00    -0.357 SA 
HETATM   16  C   UNL     1      -8.884  16.665  68.149  1.00  0.00    -0.206 C  
HETATM   17  O   UNL     1      -8.635  15.268  67.939  1.00  0.00    -0.148 OA 
BRANCH  16  18
HETATM   18  C   UNL     1      -8.464  17.432  66.887  1.00  0.00    -0.241 C  
HETATM   19  O   UNL     1      -9.360  17.201  65.797  1.00  0.00    -0.523 OA 
HETATM   20  H   UNL     1      -9.101  17.676  65.017  1.00  0.00     0.000 HD 
ENDBRANCH  16  18
ENDBRANCH   8  13
TORSDOF 2
ENDMDL
MODEL       46
REMARK 921   NORMALIZED FREE ENERGY PREDICTED BY IDOCK:   -4.68 KCAL/MOL
REMARK 922        TOTAL FREE ENERGY PREDICTED BY IDOCK:   -5.42 KCAL/MOL
REMARK 923 INTER-LIGAND FREE ENERGY PREDICTED BY IDOCK:   -5.48 KCAL/MOL
REMARK 924 INTRA-LIGAND FREE ENERGY PREDICTED BY IDOCK:    0.06 KCAL/MOL
REMARK 927      BINDING AFFINITY PREDICTED BY RF-SCORE:    0.00 PKD
ROOT
HETATM    1  N   UNL     1      -7.383  14.661  69.483  1.00  0.00    -0.299 NA 
HETATM    2  H2  UNL     1      -6.955  14.254  70.314  1.00  0.00     0.000 HD 
HETATM    3  C   UNL     1      -8.148  13.904  68.636  1.00  0.00    -0.097 C  
HETATM    4  H1  UNL     1      -7.258  15.647  69.253  1.00  0.00     0.000 HD 
HETATM    5  N   UNL     1      -8.308  12.648  68.929  1.00  0.00    -0.341 N  
HETATM    6  H   UNL     1      -7.851  12.257  69.752  1.00  0.00     0.000 HD 
HETATM    7  C   UNL     1      -9.092  11.841  68.132  1.00  0.00    -0.185 C  
HETATM    8  N   UNL     1      -9.757  12.416  67.028  1.00  0.00    -0.207 N  
HETATM    9  O   UNL     1      -9.202  10.645  68.386  1.00  0.00    -0.146 OA 
HETATM   10  F   UNL     1      -8.491  15.799  67.166  1.00  0.00    -0.173 F  
HETATM   11  C   UNL     1      -9.556  13.745  66.704  1.00  0.00    -0.288 C  
HETATM   12  C   UNL     1      -8.762  14.512  67.440  1.00  0.00    -0.199 C  
ENDROOT
BRANCH   8  13
HETATM   13  C   UNL     1     -10.659  11.541  66.270  1.00  0.00    -0.263 C  
HETATM   14  C   UNL     1     -10.231  11.102  64.863  1.00  0.00    -0.303 C  
HETATM   15  S   UNL     1     -10.893  12.368  63.774  1.00  0.00    -0.472 SA 
HETATM   16  C   UNL     1     -12.252  12.696  64.916  1.00  0.00    -0.471 C  
HETATM   17  O   UNL     1     -11.954  12.166  66.216  1.00  0.00    -0.605 OA 
BRANCH  16  18
HETATM   18  C   UNL     1     -12.600  14.184  65.062  1.00  0.00    -0.380 C  
HETATM   19  O   UNL     1     -12.523  14.877  63.815  1.00  0.00    -1.048 OA 
HETATM   20  H   UNL     1     -12.738  15.798  63.905  1.00  0.00     0.000 HD 
ENDBRANCH  16  18
ENDBRANCH   8  13
TORSDOF 2
ENDMDL
MODEL       47
REMARK 921   NORMALIZED FREE ENERGY PREDICTED BY IDOCK:   -4.67 KCAL/MOL
REMARK 922        TOTAL FREE ENERGY PREDICTED BY IDOCK:   -5.41 KCAL/MOL
REMARK 923 INTER-LIGAND FREE ENERGY PREDICTED BY IDOCK:   -5.63 KCAL/MOL
REMARK 924 INTRA-LIGAND FREE ENERGY PREDICTED BY IDOCK:    0.22 KCAL/MOL
REMARK 927      BINDING AFFINITY PREDICTED BY RF-SCORE:    0.00 PKD
ROOT
HETATM    1  N   UNL     1     -14.361   8.804  73.211  1.00  0.00    -1.130 NA 
HETATM    2  H2  UNL     1     -14.940   9.532  73.630  1.00  0.00     0.000 HD 
HETATM    3  C   UNL     1     -13.377   9.113  72.309  1.00  0.00    -0.477 C  
HETATM    4  H1  UNL     1     -14.493   7.821  73.450  1.00  0.00     0.000 HD 
HETATM    5  N   UNL     1     -13.209  10.366  72.005  1.00  0.00    -0.506 N  
HETATM    6  H   UNL     1     -13.815  11.074  72.419  1.00  0.00     0.000 HD 
HETATM    7  C   UNL     1     -12.215  10.743  71.127  1.00  0.00    -0.352 C  
HETATM    8  N   UNL     1     -11.354   9.751  70.609  1.00  0.00    -0.304 N  
HETATM    9  O   UNL     1     -12.091  11.921  70.807  1.00  0.00    -0.357 OA 
HETATM   10  F   UNL     1     -12.830   6.770  72.024  1.00  0.00    -0.364 F  
HETATM   11  C   UNL     1     -11.561   8.418  70.910  1.00  0.00    -0.262 C  
HETATM   12  C   UNL     1     -12.548   8.047  71.716  1.00  0.00    -0.325 C  
ENDROOT
BRANCH   8  13
HETATM   13  C   UNL     1     -10.250  10.213  69.759  1.00  0.00    -0.247 C  
HETATM   14  C   UNL     1     -10.594  11.021  68.501  1.00  0.00    -0.190 C  
HETATM   15  S   UNL     1     -10.787   9.787  67.209  1.00  0.00    -0.079 SA 
HETATM   16  C   UNL     1      -9.622   8.683  68.037  1.00  0.00    -0.149 C  
HETATM   17  O   UNL     1      -9.446   9.073  69.406  1.00  0.00    -0.154 OA 
BRANCH  16  18
HETATM   18  C   UNL     1     -10.029   7.203  67.998  1.00  0.00    -0.158 C  
HETATM   19  O   UNL     1     -11.379   7.030  67.561  1.00  0.00    -0.579 OA 
HETATM   20  H   UNL     1     -11.631   6.115  67.537  1.00  0.00     0.000 HD 
ENDBRANCH  16  18
ENDBRANCH   8  13
TORSDOF 2
ENDMDL
MODEL       48
REMARK 921   NORMALIZED FREE ENERGY PREDICTED BY IDOCK:   -4.67 KCAL/MOL
REMARK 922        TOTAL FREE ENERGY PREDICTED BY IDOCK:   -5.41 KCAL/MOL
REMARK 923 INTER-LIGAND FREE ENERGY PREDICTED BY IDOCK:   -5.25 KCAL/MOL
REMARK 924 INTRA-LIGAND FREE ENERGY PREDICTED BY IDOCK:   -0.16 KCAL/MOL
REMARK 927      BINDING AFFINITY PREDICTED BY RF-SCORE:    0.00 PKD
ROOT
HETATM    1  N   UNL     1     -12.398  14.199  68.652  1.00  0.00    -0.543 NA 
HETATM    2  H2  UNL     1     -13.088  13.810  68.009  1.00  0.00     0.000 HD 
HETATM    3  C   UNL     1     -11.383  15.002  68.203  1.00  0.00    -0.330 C  
HETATM    4  H1  UNL     1     -12.440  14.005  69.653  1.00  0.00     0.000 HD 
HETATM    5  N   UNL     1     -11.330  15.250  66.928  1.00  0.00    -0.267 N  
HETATM    6  H   UNL     1     -12.017  14.831  66.301  1.00  0.00     0.000 HD 
HETATM    7  C   UNL     1     -10.350  16.075  66.418  1.00  0.00    -0.305 C  
HETATM    8  N   UNL     1      -9.444  16.686  67.312  1.00  0.00    -0.230 N  
HETATM    9  O   UNL     1     -10.275  16.268  65.209  1.00  0.00    -0.548 OA 
HETATM   10  F   UNL     1     -10.476  15.198  70.441  1.00  0.00    -0.277 F  
HETATM   11  C   UNL     1      -9.486  16.391  68.662  1.00  0.00    -0.239 C  
HETATM   12  C   UNL     1     -10.397  15.558  69.149  1.00  0.00    -0.237 C  
ENDROOT
BRANCH   8  13
HETATM   13  C   UNL     1      -8.484  17.634  66.735  1.00  0.00    -0.251 C  
HETATM   14  C   UNL     1      -7.174  17.890  67.491  1.00  0.00    -0.196 C  
HETATM   15  S   UNL     1      -7.545  19.265  68.587  1.00  0.00    -0.356 SA 
HETATM   16  C   UNL     1      -8.785  19.897  67.436  1.00  0.00    -0.336 C  
HETATM   17  O   UNL     1      -9.166  18.879  66.500  1.00  0.00    -0.314 OA 
BRANCH  16  18
HETATM   18  C   UNL     1     -10.053  20.434  68.117  1.00  0.00    -0.181 C  
HETATM   19  O   UNL     1     -10.283  19.815  69.385  1.00  0.00    -0.641 OA 
HETATM   20  H   UNL     1     -11.066  20.147  69.806  1.00  0.00     0.000 HD 
ENDBRANCH  16  18
ENDBRANCH   8  13
TORSDOF 2
ENDMDL
MODEL       49
REMARK 921   NORMALIZED FREE ENERGY PREDICTED BY IDOCK:   -4.67 KCAL/MOL
REMARK 922        TOTAL FREE ENERGY PREDICTED BY IDOCK:   -5.41 KCAL/MOL
REMARK 923 INTER-LIGAND FREE ENERGY PREDICTED BY IDOCK:   -5.21 KCAL/MOL
REMARK 924 INTRA-LIGAND FREE ENERGY PREDICTED BY IDOCK:   -0.19 KCAL/MOL
REMARK 927      BINDING AFFINITY PREDICTED BY RF-SCORE:    0.00 PKD
ROOT
HETATM    1  N   UNL     1     -12.158  11.616  68.620  1.00  0.00    -0.469 NA 
HETATM    2  H2  UNL     1     -13.096  11.952  68.398  1.00  0.00     0.000 HD 
HETATM    3  C   UNL     1     -11.946  10.728  69.640  1.00  0.00    -0.313 C  
HETATM    4  H1  UNL     1     -11.346  11.930  68.088  1.00  0.00     0.000 HD 
HETATM    5  N   UNL     1     -12.981  10.328  70.317  1.00  0.00    -0.555 N  
HETATM    6  H   UNL     1     -13.906  10.695  70.093  1.00  0.00     0.000 HD 
HETATM    7  C   UNL     1     -12.835   9.411  71.336  1.00  0.00    -0.345 C  
HETATM    8  N   UNL     1     -11.554   8.877  71.592  1.00  0.00    -0.313 N  
HETATM    9  O   UNL     1     -13.809   9.072  72.003  1.00  0.00    -0.412 OA 
HETATM   10  F   UNL     1      -9.556  10.766  69.246  1.00  0.00    -0.206 F  
HETATM   11  C   UNL     1     -10.453   9.332  70.890  1.00  0.00    -0.302 C  
HETATM   12  C   UNL     1     -10.583  10.251  69.942  1.00  0.00    -0.276 C  
ENDROOT
BRANCH   8  13
HETATM   13  C   UNL     1     -11.467   7.830  72.618  1.00  0.00    -0.375 C  
HETATM   14  C   UNL     1     -10.149   7.680  73.389  1.00  0.00    -0.319 C  
HETATM   15  S   UNL     1      -9.189   6.510  72.421  1.00  0.00    -0.134 SA 
HETATM   16  C   UNL     1     -10.694   5.719  71.813  1.00  0.00    -0.249 C  
HETATM   17  O   UNL     1     -11.827   6.575  72.013  1.00  0.00    -0.308 OA 
BRANCH  16  18
HETATM   18  C   UNL     1     -10.636   5.322  70.330  1.00  0.00    -0.208 C  
HETATM   19  O   UNL     1     -11.515   6.115  69.529  1.00  0.00    -0.429 OA 
HETATM   20  H   UNL     1     -11.479   5.870  68.612  1.00  0.00     0.000 HD 
ENDBRANCH  16  18
ENDBRANCH   8  13
TORSDOF 2
ENDMDL
MODEL       50
REMARK 921   NORMALIZED FREE ENERGY PREDICTED BY IDOCK:   -4.65 KCAL/MOL
REMARK 922        TOTAL FREE ENERGY PREDICTED BY IDOCK:   -5.39 KCAL/MOL
REMARK 923 INTER-LIGAND FREE ENERGY PREDICTED BY IDOCK:   -5.22 KCAL/MOL
REMARK 924 INTRA-LIGAND FREE ENERGY PREDICTED BY IDOCK:   -0.17 KCAL/MOL
REMARK 927      BINDING AFFINITY PREDICTED BY RF-SCORE:    0.00 PKD
ROOT
HETATM    1  N   UNL     1     -12.682  13.292  65.277  1.00  0.00    -0.629 NA 
HETATM    2  H2  UNL     1     -13.336  12.579  65.602  1.00  0.00     0.000 HD 
HETATM    3  C   UNL     1     -12.067  14.142  66.157  1.00  0.00    -0.435 C  
HETATM    4  H1  UNL     1     -12.463  13.395  64.286  1.00  0.00     0.000 HD 
HETATM    5  N   UNL     1     -12.345  14.009  67.419  1.00  0.00    -0.529 N  
HETATM    6  H   UNL     1     -13.020  13.305  67.718  1.00  0.00     0.000 HD 
HETATM    7  C   UNL     1     -11.735  14.816  68.357  1.00  0.00    -0.314 C  
HETATM    8  N   UNL     1     -10.765  15.746  67.924  1.00  0.00    -0.293 N  
HETATM    9  O   UNL     1     -12.037  14.718  69.543  1.00  0.00    -0.307 OA 
HETATM   10  F   UNL     1     -10.940  15.287  64.343  1.00  0.00    -0.341 F  
HETATM   11  C   UNL     1     -10.498  15.904  66.577  1.00  0.00    -0.304 C  
HETATM   12  C   UNL     1     -11.121  15.164  65.668  1.00  0.00    -0.334 C  
ENDROOT
BRANCH   8  13
HETATM   13  C   UNL     1     -10.070  16.510  68.968  1.00  0.00    -0.279 C  
HETATM   14  C   UNL     1      -9.515  17.893  68.605  1.00  0.00    -0.298 C  
HETATM   15  S   UNL     1      -7.844  17.572  68.029  1.00  0.00    -0.232 SA 
HETATM   16  C   UNL     1      -7.719  16.112  69.084  1.00  0.00    -0.230 C  
HETATM   17  O   UNL     1      -9.022  15.685  69.507  1.00  0.00    -0.271 OA 
BRANCH  16  18
HETATM   18  C   UNL     1      -7.005  14.923  68.424  1.00  0.00    -0.110 C  
HETATM   19  O   UNL     1      -7.142  14.939  67.001  1.00  0.00    -0.316 OA 
HETATM   20  H   UNL     1      -6.701  14.204  66.593  1.00  0.00     0.000 HD 
ENDBRANCH  16  18
ENDBRANCH   8  13
TORSDOF 2
ENDMDL
MODEL       51
REMARK 921   NORMALIZED FREE ENERGY PREDICTED BY IDOCK:   -4.62 KCAL/MOL
REMARK 922        TOTAL FREE ENERGY PREDICTED BY IDOCK:   -5.35 KCAL/MOL
REMARK 923 INTER-LIGAND FREE ENERGY PREDICTED BY IDOCK:   -5.46 KCAL/MOL
REMARK 924 INTRA-LIGAND FREE ENERGY PREDICTED BY IDOCK:    0.11 KCAL/MOL
REMARK 927      BINDING AFFINITY PREDICTED BY RF-SCORE:    0.00 PKD
ROOT
HETATM    1  N   UNL     1     -12.375  13.806  62.958  1.00  0.00    -1.030 NA 
HETATM    2  H2  UNL     1     -12.013  13.533  62.045  1.00  0.00     0.000 HD 
HETATM    3  C   UNL     1     -11.899  13.236  64.109  1.00  0.00    -0.443 C  
HETATM    4  H1  UNL     1     -13.104  14.514  63.047  1.00  0.00     0.000 HD 
HETATM    5  N   UNL     1     -10.970  12.334  63.996  1.00  0.00    -0.346 N  
HETATM    6  H   UNL     1     -10.639  12.060  63.072  1.00  0.00     0.000 HD 
HETATM    7  C   UNL     1     -10.429  11.746  65.120  1.00  0.00    -0.283 C  
HETATM    8  N   UNL     1     -10.865  12.180  66.391  1.00  0.00    -0.260 N  
HETATM    9  O   UNL     1      -9.586  10.862  65.007  1.00  0.00    -0.220 OA 
HETATM   10  F   UNL     1     -13.445  14.532  65.452  1.00  0.00    -0.324 F  
HETATM   11  C   UNL     1     -11.877  13.115  66.502  1.00  0.00    -0.400 C  
HETATM   12  C   UNL     1     -12.435  13.647  65.421  1.00  0.00    -0.499 C  
ENDROOT
BRANCH   8  13
HETATM   13  C   UNL     1     -10.189  11.597  67.556  1.00  0.00    -0.195 C  
HETATM   14  C   UNL     1     -10.716  10.267  68.110  1.00  0.00    -0.246 C  
HETATM   15  S   UNL     1     -11.946  10.742  69.331  1.00  0.00    -0.233 SA 
HETATM   16  C   UNL     1     -11.076  12.289  69.662  1.00  0.00     0.047 C  
HETATM   17  O   UNL     1     -10.159  12.587  68.601  1.00  0.00    -0.210 OA 
BRANCH  16  18
HETATM   18  C   UNL     1     -12.004  13.497  69.860  1.00  0.00    -0.348 C  
HETATM   19  O   UNL     1     -11.386  14.525  70.637  1.00  0.00    -0.469 OA 
HETATM   20  H   UNL     1     -11.959  15.272  70.760  1.00  0.00     0.000 HD 
ENDBRANCH  16  18
ENDBRANCH   8  13
TORSDOF 2
ENDMDL
MODEL       52
REMARK 921   NORMALIZED FREE ENERGY PREDICTED BY IDOCK:   -4.60 KCAL/MOL
REMARK 922        TOTAL FREE ENERGY PREDICTED BY IDOCK:   -5.33 KCAL/MOL
REMARK 923 INTER-LIGAND FREE ENERGY PREDICTED BY IDOCK:   -5.24 KCAL/MOL
REMARK 924 INTRA-LIGAND FREE ENERGY PREDICTED BY IDOCK:   -0.09 KCAL/MOL
REMARK 927      BINDING AFFINITY PREDICTED BY RF-SCORE:    0.00 PKD
ROOT
HETATM    1  N   UNL     1      -9.735  10.046  69.992  1.00  0.00    -0.367 NA 
HETATM    2  H2  UNL     1      -8.810   9.778  70.328  1.00  0.00     0.000 HD 
HETATM    3  C   UNL     1      -9.892  11.034  69.056  1.00  0.00    -0.149 C  
HETATM    4  H1  UNL     1     -10.577   9.587  70.341  1.00  0.00     0.000 HD 
HETATM    5  N   UNL     1      -8.819  11.618  68.612  1.00  0.00    -0.316 N  
HETATM    6  H   UNL     1      -7.907  11.350  68.978  1.00  0.00     0.000 HD 
HETATM    7  C   UNL     1      -8.910  12.599  67.647  1.00  0.00    -0.184 C  
HETATM    8  N   UNL     1     -10.179  12.916  67.116  1.00  0.00    -0.237 N  
HETATM    9  O   UNL     1      -7.899  13.181  67.264  1.00  0.00    -0.168 OA 
HETATM   10  F   UNL     1     -12.302  10.805  69.141  1.00  0.00    -0.375 F  
HETATM   11  C   UNL     1     -11.318  12.313  67.618  1.00  0.00    -0.311 C  
HETATM   12  C   UNL     1     -11.238  11.404  68.581  1.00  0.00    -0.243 C  
ENDROOT
BRANCH   8  13
HETATM   13  C   UNL     1     -10.212  13.893  66.021  1.00  0.00    -0.310 C  
HETATM   14  C   UNL     1     -11.356  14.914  65.996  1.00  0.00    -0.306 C  
HETATM   15  S   UNL     1     -12.652  14.119  65.038  1.00  0.00    -0.308 SA 
HETATM   16  C   UNL     1     -11.432  13.179  64.096  1.00  0.00    -0.403 C  
HETATM   17  O   UNL     1     -10.168  13.174  64.775  1.00  0.00    -0.334 OA 
BRANCH  16  18
HETATM   18  C   UNL     1     -11.843  11.726  63.817  1.00  0.00    -0.380 C  
HETATM   19  O   UNL     1     -12.905  11.643  62.864  1.00  0.00    -0.852 OA 
HETATM   20  H   UNL     1     -13.159  10.745  62.691  1.00  0.00     0.000 HD 
ENDBRANCH  16  18
ENDBRANCH   8  13
TORSDOF 2
ENDMDL
MODEL       53
REMARK 921   NORMALIZED FREE ENERGY PREDICTED BY IDOCK:   -4.58 KCAL/MOL
REMARK 922        TOTAL FREE ENERGY PREDICTED BY IDOCK:   -5.31 KCAL/MOL
REMARK 923 INTER-LIGAND FREE ENERGY PREDICTED BY IDOCK:   -5.42 KCAL/MOL
REMARK 924 INTRA-LIGAND FREE ENERGY PREDICTED BY IDOCK:    0.11 KCAL/MOL
REMARK 927      BINDING AFFINITY PREDICTED BY RF-SCORE:    0.00 PKD
ROOT
HETATM    1  N   UNL     1     -13.902  14.147  72.745  1.00  0.00    -0.654 NA 
HETATM    2  H2  UNL     1     -14.434  13.886  73.576  1.00  0.00     0.000 HD 
HETATM    3  C   UNL     1     -13.295  13.198  71.966  1.00  0.00    -0.493 C  
HETATM    4  H1  UNL     1     -13.804  15.123  72.466  1.00  0.00     0.000 HD 
HETATM    5  N   UNL     1     -13.421  11.955  72.321  1.00  0.00    -0.548 N  
HETATM    6  H   UNL     1     -13.938  11.719  73.168  1.00  0.00     0.000 HD 
HETATM    7  C   UNL     1     -12.859  10.952  71.560  1.00  0.00    -0.454 C  
HETATM    8  N   UNL     1     -12.194  11.298  70.364  1.00  0.00    -0.351 N  
HETATM    9  O   UNL     1     -12.940   9.782  71.926  1.00  0.00    -0.385 OA 
HETATM   10  F   UNL     1     -12.387  14.905  70.504  1.00  0.00    -0.306 F  
HETATM   11  C   UNL     1     -12.036  12.625  70.010  1.00  0.00    -0.306 C  
HETATM   12  C   UNL     1     -12.533  13.595  70.766  1.00  0.00    -0.359 C  
ENDROOT
BRANCH   8  13
HETATM   13  C   UNL     1     -11.701  10.190  69.537  1.00  0.00    -0.061 C  
HETATM   14  C   UNL     1     -10.342   9.571  69.890  1.00  0.00    -0.236 C  
HETATM   15  S   UNL     1      -9.151  10.525  68.941  1.00  0.00    -0.177 SA 
HETATM   16  C   UNL     1     -10.382  10.864  67.664  1.00  0.00    -0.197 C  
HETATM   17  O   UNL     1     -11.704  10.616  68.163  1.00  0.00    -0.474 OA 
BRANCH  16  18
HETATM   18  C   UNL     1     -10.329  12.295  67.109  1.00  0.00    -0.218 C  
HETATM   19  O   UNL     1      -9.482  13.140  67.890  1.00  0.00    -0.203 OA 
HETATM   20  H   UNL     1      -9.448  14.025  67.546  1.00  0.00     0.000 HD 
ENDBRANCH  16  18
ENDBRANCH   8  13
TORSDOF 2
ENDMDL
MODEL       54
REMARK 921   NORMALIZED FREE ENERGY PREDICTED BY IDOCK:   -4.52 KCAL/MOL
REMARK 922        TOTAL FREE ENERGY PREDICTED BY IDOCK:   -5.25 KCAL/MOL
REMARK 923 INTER-LIGAND FREE ENERGY PREDICTED BY IDOCK:   -5.18 KCAL/MOL
REMARK 924 INTRA-LIGAND FREE ENERGY PREDICTED BY IDOCK:   -0.06 KCAL/MOL
REMARK 927      BINDING AFFINITY PREDICTED BY RF-SCORE:    0.00 PKD
ROOT
HETATM    1  N   UNL     1     -11.955  10.983  68.302  1.00  0.00    -0.757 NA 
HETATM    2  H2  UNL     1     -12.360  10.594  69.153  1.00  0.00     0.000 HD 
HETATM    3  C   UNL     1     -11.712  12.326  68.182  1.00  0.00    -0.349 C  
HETATM    4  H1  UNL     1     -11.717  10.386  67.510  1.00  0.00     0.000 HD 
HETATM    5  N   UNL     1     -12.015  13.086  69.191  1.00  0.00    -0.296 N  
HETATM    6  H   UNL     1     -12.440  12.678  70.024  1.00  0.00     0.000 HD 
HETATM    7  C   UNL     1     -11.765  14.441  69.143  1.00  0.00    -0.317 C  
HETATM    8  N   UNL     1     -11.127  14.974  68.002  1.00  0.00    -0.287 N  
HETATM    9  O   UNL     1     -12.097  15.162  70.080  1.00  0.00    -0.308 OA 
HETATM   10  F   UNL     1     -10.904  12.030  65.917  1.00  0.00    -0.285 F  
HETATM   11  C   UNL     1     -10.838  14.165  66.919  1.00  0.00    -0.296 C  
HETATM   12  C   UNL     1     -11.123  12.869  66.943  1.00  0.00    -0.278 C  
ENDROOT
BRANCH   8  13
HETATM   13  C   UNL     1     -10.791  16.403  68.039  1.00  0.00    -0.342 C  
HETATM   14  C   UNL     1     -10.315  17.069  66.742  1.00  0.00    -0.302 C  
HETATM   15  S   UNL     1      -8.529  16.869  66.761  1.00  0.00    -0.257 SA 
HETATM   16  C   UNL     1      -8.510  16.869  68.567  1.00  0.00    -0.258 C  
HETATM   17  O   UNL     1      -9.823  16.611  69.083  1.00  0.00    -0.263 OA 
BRANCH  16  18
HETATM   18  C   UNL     1      -7.534  15.853  69.181  1.00  0.00    -0.210 C  
HETATM   19  O   UNL     1      -8.181  14.621  69.509  1.00  0.00    -0.380 OA 
HETATM   20  H   UNL     1      -7.578  13.993  69.888  1.00  0.00     0.000 HD 
ENDBRANCH  16  18
ENDBRANCH   8  13
TORSDOF 2
ENDMDL
MODEL       55
REMARK 921   NORMALIZED FREE ENERGY PREDICTED BY IDOCK:   -4.52 KCAL/MOL
REMARK 922        TOTAL FREE ENERGY PREDICTED BY IDOCK:   -5.24 KCAL/MOL
REMARK 923 INTER-LIGAND FREE ENERGY PREDICTED BY IDOCK:   -5.09 KCAL/MOL
REMARK 924 INTRA-LIGAND FREE ENERGY PREDICTED BY IDOCK:   -0.15 KCAL/MOL
REMARK 927      BINDING AFFINITY PREDICTED BY RF-SCORE:    0.00 PKD
ROOT
HETATM    1  N   UNL     1     -14.400   9.096  73.052  1.00  0.00    -1.093 NA 
HETATM    2  H2  UNL     1     -14.479  10.050  73.403  1.00  0.00     0.000 HD 
HETATM    3  C   UNL     1     -13.400   8.739  72.188  1.00  0.00    -0.423 C  
HETATM    4  H1  UNL     1     -15.064   8.374  73.333  1.00  0.00     0.000 HD 
HETATM    5  N   UNL     1     -12.554   9.659  71.830  1.00  0.00    -0.393 N  
HETATM    6  H   UNL     1     -12.666  10.612  72.176  1.00  0.00     0.000 HD 
HETATM    7  C   UNL     1     -11.508   9.354  70.986  1.00  0.00    -0.334 C  
HETATM    8  N   UNL     1     -11.343   8.017  70.564  1.00  0.00    -0.257 N  
HETATM    9  O   UNL     1     -10.740  10.236  70.614  1.00  0.00    -0.258 OA 
HETATM   10  F   UNL     1     -14.255   6.476  72.051  1.00  0.00    -0.400 F  
HETATM   11  C   UNL     1     -12.265   7.051  70.922  1.00  0.00    -0.342 C  
HETATM   12  C   UNL     1     -13.302   7.352  71.694  1.00  0.00    -0.364 C  
ENDROOT
BRANCH   8  13
HETATM   13  C   UNL     1     -10.157   7.722  69.750  1.00  0.00    -0.194 C  
HETATM   14  C   UNL     1     -10.299   6.715  68.602  1.00  0.00    -0.188 C  
HETATM   15  S   UNL     1      -9.916   5.125  69.347  1.00  0.00    -0.230 SA 
HETATM   16  C   UNL     1      -8.829   5.909  70.556  1.00  0.00    -0.144 C  
HETATM   17  O   UNL     1      -9.094   7.317  70.631  1.00  0.00    -0.155 OA 
BRANCH  16  18
HETATM   18  C   UNL     1      -8.934   5.316  71.969  1.00  0.00    -0.134 C  
HETATM   19  O   UNL     1     -10.148   4.583  72.152  1.00  0.00    -0.183 OA 
HETATM   20  H   UNL     1     -10.213   4.216  73.026  1.00  0.00     0.000 HD 
ENDBRANCH  16  18
ENDBRANCH   8  13
TORSDOF 2
ENDMDL
MODEL       56
REMARK 921   NORMALIZED FREE ENERGY PREDICTED BY IDOCK:   -4.51 KCAL/MOL
REMARK 922        TOTAL FREE ENERGY PREDICTED BY IDOCK:   -5.23 KCAL/MOL
REMARK 923 INTER-LIGAND FREE ENERGY PREDICTED BY IDOCK:   -5.43 KCAL/MOL
REMARK 924 INTRA-LIGAND FREE ENERGY PREDICTED BY IDOCK:    0.21 KCAL/MOL
REMARK 927      BINDING AFFINITY PREDICTED BY RF-SCORE:    0.00 PKD
ROOT
HETATM    1  N   UNL     1     -12.232   8.166  72.896  1.00  0.00    -0.636 NA 
HETATM    2  H2  UNL     1     -11.788   7.272  73.107  1.00  0.00     0.000 HD 
HETATM    3  C   UNL     1     -11.946   8.845  71.741  1.00  0.00    -0.359 C  
HETATM    4  H1  UNL     1     -12.906   8.584  73.537  1.00  0.00     0.000 HD 
HETATM    5  N   UNL     1     -11.088   8.311  70.924  1.00  0.00    -0.256 N  
HETATM    6  H   UNL     1     -10.639   7.428  71.166  1.00  0.00     0.000 HD 
HETATM    7  C   UNL     1     -10.782   8.932  69.731  1.00  0.00    -0.225 C  
HETATM    8  N   UNL     1     -11.457  10.125  69.394  1.00  0.00    -0.186 N  
HETATM    9  O   UNL     1      -9.937   8.448  68.985  1.00  0.00    -0.179 OA 
HETATM   10  F   UNL     1     -13.423  10.657  72.380  1.00  0.00    -0.502 F  
HETATM   11  C   UNL     1     -12.343  10.704  70.283  1.00  0.00    -0.325 C  
HETATM   12  C   UNL     1     -12.602  10.135  71.453  1.00  0.00    -0.422 C  
ENDROOT
BRANCH   8  13
HETATM   13  C   UNL     1     -11.172  10.693  68.071  1.00  0.00    -0.307 C  
HETATM   14  C   UNL     1      -9.727  11.101  67.753  1.00  0.00    -0.171 C  
HETATM   15  S   UNL     1      -9.616  12.816  68.276  1.00  0.00    -0.182 SA 
HETATM   16  C   UNL     1     -11.374  13.070  67.951  1.00  0.00    -0.288 C  
HETATM   17  O   UNL     1     -12.054  11.810  67.861  1.00  0.00    -0.592 OA 
BRANCH  16  18
HETATM   18  C   UNL     1     -12.084  13.936  69.002  1.00  0.00    -0.329 C  
HETATM   19  O   UNL     1     -11.330  14.035  70.212  1.00  0.00    -0.474 OA 
HETATM   20  H   UNL     1     -11.770  14.570  70.862  1.00  0.00     0.000 HD 
ENDBRANCH  16  18
ENDBRANCH   8  13
TORSDOF 2
ENDMDL
MODEL       57
REMARK 921   NORMALIZED FREE ENERGY PREDICTED BY IDOCK:   -4.47 KCAL/MOL
REMARK 922        TOTAL FREE ENERGY PREDICTED BY IDOCK:   -5.18 KCAL/MOL
REMARK 923 INTER-LIGAND FREE ENERGY PREDICTED BY IDOCK:   -5.40 KCAL/MOL
REMARK 924 INTRA-LIGAND FREE ENERGY PREDICTED BY IDOCK:    0.22 KCAL/MOL
REMARK 927      BINDING AFFINITY PREDICTED BY RF-SCORE:    0.00 PKD
ROOT
HETATM    1  N   UNL     1     -11.038  13.328  64.013  1.00  0.00    -0.528 NA 
HETATM    2  H2  UNL     1     -11.562  13.398  63.140  1.00  0.00     0.000 HD 
HETATM    3  C   UNL     1     -10.768  14.438  64.768  1.00  0.00    -0.403 C  
HETATM    4  H1  UNL     1     -10.698  12.429  64.354  1.00  0.00     0.000 HD 
HETATM    5  N   UNL     1     -11.202  15.584  64.334  1.00  0.00    -0.728 N  
HETATM    6  H   UNL     1     -11.703  15.633  63.447  1.00  0.00     0.000 HD 
HETATM    7  C   UNL     1     -10.988  16.733  65.065  1.00  0.00    -0.108 C  
HETATM    8  N   UNL     1     -10.339  16.632  66.315  1.00  0.00    -0.321 N  
HETATM    9  O   UNL     1     -11.358  17.819  64.628  1.00  0.00    -0.616 OA 
HETATM   10  F   UNL     1      -9.533  13.109  66.375  1.00  0.00    -0.245 F  
HETATM   11  C   UNL     1      -9.850  15.416  66.754  1.00  0.00    -0.245 C  
HETATM   12  C   UNL     1     -10.011  14.316  66.029  1.00  0.00    -0.319 C  
ENDROOT
BRANCH   8  13
HETATM   13  C   UNL     1     -10.224  17.866  67.101  1.00  0.00    -0.353 C  
HETATM   14  C   UNL     1      -9.437  19.038  66.501  1.00  0.00    -0.345 C  
HETATM   15  S   UNL     1      -7.748  18.781  67.059  1.00  0.00    -0.239 SA 
HETATM   16  C   UNL     1      -8.327  17.943  68.550  1.00  0.00    -0.300 C  
HETATM   17  O   UNL     1      -9.692  17.528  68.395  1.00  0.00    -0.287 OA 
BRANCH  16  18
HETATM   18  C   UNL     1      -7.486  16.721  68.946  1.00  0.00    -0.240 C  
HETATM   19  O   UNL     1      -6.411  16.492  68.032  1.00  0.00    -0.121 OA 
HETATM   20  H   UNL     1      -5.891  15.736  68.277  1.00  0.00     0.000 HD 
ENDBRANCH  16  18
ENDBRANCH   8  13
TORSDOF 2
ENDMDL
MODEL       58
REMARK 921   NORMALIZED FREE ENERGY PREDICTED BY IDOCK:   -4.47 KCAL/MOL
REMARK 922        TOTAL FREE ENERGY PREDICTED BY IDOCK:   -5.18 KCAL/MOL
REMARK 923 INTER-LIGAND FREE ENERGY PREDICTED BY IDOCK:   -5.29 KCAL/MOL
REMARK 924 INTRA-LIGAND FREE ENERGY PREDICTED BY IDOCK:    0.11 KCAL/MOL
REMARK 927      BINDING AFFINITY PREDICTED BY RF-SCORE:    0.00 PKD
ROOT
HETATM    1  N   UNL     1     -11.610   8.281  70.499  1.00  0.00    -0.444 NA 
HETATM    2  H2  UNL     1     -11.358   7.405  70.043  1.00  0.00     0.000 HD 
HETATM    3  C   UNL     1     -11.528   9.476  69.835  1.00  0.00    -0.062 C  
HETATM    4  H1  UNL     1     -11.934   8.299  71.466  1.00  0.00     0.000 HD 
HETATM    5  N   UNL     1     -11.115   9.454  68.603  1.00  0.00    -0.463 N  
HETATM    6  H   UNL     1     -10.846   8.569  68.174  1.00  0.00     0.000 HD 
HETATM    7  C   UNL     1     -11.040  10.621  67.872  1.00  0.00    -0.308 C  
HETATM    8  N   UNL     1     -11.468  11.826  68.469  1.00  0.00    -0.269 N  
HETATM    9  O   UNL     1     -10.605  10.601  66.724  1.00  0.00    -0.248 OA 
HETATM   10  F   UNL     1     -12.248  10.683  71.808  1.00  0.00    -0.419 F  
HETATM   11  C   UNL     1     -11.874  11.847  69.791  1.00  0.00    -0.340 C  
HETATM   12  C   UNL     1     -11.901  10.733  70.512  1.00  0.00    -0.356 C  
ENDROOT
BRANCH   8  13
HETATM   13  C   UNL     1     -11.464  13.023  67.619  1.00  0.00    -0.324 C  
HETATM   14  C   UNL     1     -10.118  13.698  67.324  1.00  0.00    -0.239 C  
HETATM   15  S   UNL     1      -9.916  14.898  68.646  1.00  0.00    -0.229 SA 
HETATM   16  C   UNL     1     -11.705  15.080  68.808  1.00  0.00    -0.334 C  
HETATM   17  O   UNL     1     -12.380  13.979  68.184  1.00  0.00    -0.248 OA 
BRANCH  16  18
HETATM   18  C   UNL     1     -12.192  15.193  70.260  1.00  0.00    -0.350 C  
HETATM   19  O   UNL     1     -13.618  15.161  70.350  1.00  0.00    -0.662 OA 
HETATM   20  H   UNL     1     -13.920  15.231  71.248  1.00  0.00     0.000 HD 
ENDBRANCH  16  18
ENDBRANCH   8  13
TORSDOF 2
ENDMDL
MODEL       59
REMARK 921   NORMALIZED FREE ENERGY PREDICTED BY IDOCK:   -4.43 KCAL/MOL
REMARK 922        TOTAL FREE ENERGY PREDICTED BY IDOCK:   -5.14 KCAL/MOL
REMARK 923 INTER-LIGAND FREE ENERGY PREDICTED BY IDOCK:   -5.17 KCAL/MOL
REMARK 924 INTRA-LIGAND FREE ENERGY PREDICTED BY IDOCK:    0.04 KCAL/MOL
REMARK 927      BINDING AFFINITY PREDICTED BY RF-SCORE:    0.00 PKD
ROOT
HETATM    1  N   UNL     1     -10.702   9.286  70.534  1.00  0.00    -0.237 NA 
HETATM    2  H2  UNL     1      -9.842   8.807  70.798  1.00  0.00     0.000 HD 
HETATM    3  C   UNL     1     -10.679  10.391  69.725  1.00  0.00    -0.278 C  
HETATM    4  H1  UNL     1     -11.611   8.958  70.862  1.00  0.00     0.000 HD 
HETATM    5  N   UNL     1      -9.521  10.808  69.307  1.00  0.00    -0.388 N  
HETATM    6  H   UNL     1      -8.672  10.327  69.603  1.00  0.00     0.000 HD 
HETATM    7  C   UNL     1      -9.434  11.898  68.467  1.00  0.00    -0.148 C  
HETATM    8  N   UNL     1     -10.626  12.514  68.028  1.00  0.00    -0.217 N  
HETATM    9  O   UNL     1      -8.336  12.316  68.112  1.00  0.00    -0.160 OA 
HETATM   10  F   UNL     1     -13.086  10.622  69.882  1.00  0.00    -0.284 F  
HETATM   11  C   UNL     1     -11.852  12.086  68.503  1.00  0.00    -0.311 C  
HETATM   12  C   UNL     1     -11.935  11.069  69.352  1.00  0.00    -0.337 C  
ENDROOT
BRANCH   8  13
HETATM   13  C   UNL     1     -10.487  13.604  67.055  1.00  0.00    -0.270 C  
HETATM   14  C   UNL     1     -11.726  14.449  66.731  1.00  0.00    -0.397 C  
HETATM   15  S   UNL     1     -12.501  13.603  65.348  1.00  0.00    -0.495 SA 
HETATM   16  C   UNL     1     -10.904  12.969  64.791  1.00  0.00    -0.337 C  
HETATM   17  O   UNL     1      -9.934  13.059  65.844  1.00  0.00    -0.275 OA 
BRANCH  16  18
HETATM   18  C   UNL     1     -10.949  11.518  64.290  1.00  0.00    -0.341 C  
HETATM   19  O   UNL     1     -10.678  11.427  62.890  1.00  0.00    -0.699 OA 
HETATM   20  H   UNL     1     -10.705  10.530  62.579  1.00  0.00     0.000 HD 
ENDBRANCH  16  18
ENDBRANCH   8  13
TORSDOF 2
ENDMDL
MODEL       60
REMARK 921   NORMALIZED FREE ENERGY PREDICTED BY IDOCK:   -4.42 KCAL/MOL
REMARK 922        TOTAL FREE ENERGY PREDICTED BY IDOCK:   -5.13 KCAL/MOL
REMARK 923 INTER-LIGAND FREE ENERGY PREDICTED BY IDOCK:   -4.99 KCAL/MOL
REMARK 924 INTRA-LIGAND FREE ENERGY PREDICTED BY IDOCK:   -0.15 KCAL/MOL
REMARK 927      BINDING AFFINITY PREDICTED BY RF-SCORE:    0.00 PKD
ROOT
HETATM    1  N   UNL     1     -12.572  15.876  71.247  1.00  0.00    -0.540 NA 
HETATM    2  H2  UNL     1     -12.565  16.891  71.348  1.00  0.00     0.000 HD 
HETATM    3  C   UNL     1     -12.138  15.276  70.095  1.00  0.00    -0.358 C  
HETATM    4  H1  UNL     1     -12.904  15.273  72.000  1.00  0.00     0.000 HD 
HETATM    5  N   UNL     1     -11.715  16.044  69.136  1.00  0.00    -0.344 N  
HETATM    6  H   UNL     1     -11.738  17.057  69.251  1.00  0.00     0.000 HD 
HETATM    7  C   UNL     1     -11.236  15.498  67.964  1.00  0.00    -0.332 C  
HETATM    8  N   UNL     1     -11.164  14.093  67.849  1.00  0.00    -0.268 N  
HETATM    9  O   UNL     1     -10.883  16.229  67.044  1.00  0.00    -0.283 OA 
HETATM   10  F   UNL     1     -12.672  13.082  70.975  1.00  0.00    -0.403 F  
HETATM   11  C   UNL     1     -11.646  13.282  68.860  1.00  0.00    -0.314 C  
HETATM   12  C   UNL     1     -12.154  13.806  69.969  1.00  0.00    -0.349 C  
ENDROOT
BRANCH   8  13
HETATM   13  C   UNL     1     -10.554  13.560  66.625  1.00  0.00    -0.280 C  
HETATM   14  C   UNL     1     -11.173  12.306  65.993  1.00  0.00    -0.332 C  
HETATM   15  S   UNL     1     -10.304  10.936  66.765  1.00  0.00    -0.250 SA 
HETATM   16  C   UNL     1      -8.830  11.952  66.998  1.00  0.00    -0.190 C  
HETATM   17  O   UNL     1      -9.154  13.344  66.877  1.00  0.00    -0.231 OA 
BRANCH  16  18
HETATM   18  C   UNL     1      -8.125  11.730  68.345  1.00  0.00    -0.150 C  
HETATM   19  O   UNL     1      -8.926  10.964  69.248  1.00  0.00    -0.362 OA 
HETATM   20  H   UNL     1      -8.490  10.827  70.081  1.00  0.00     0.000 HD 
ENDBRANCH  16  18
ENDBRANCH   8  13
TORSDOF 2
ENDMDL
MODEL       61
REMARK 921   NORMALIZED FREE ENERGY PREDICTED BY IDOCK:   -4.41 KCAL/MOL
REMARK 922        TOTAL FREE ENERGY PREDICTED BY IDOCK:   -5.12 KCAL/MOL
REMARK 923 INTER-LIGAND FREE ENERGY PREDICTED BY IDOCK:   -5.24 KCAL/MOL
REMARK 924 INTRA-LIGAND FREE ENERGY PREDICTED BY IDOCK:    0.12 KCAL/MOL
REMARK 927      BINDING AFFINITY PREDICTED BY RF-SCORE:    0.00 PKD
ROOT
HETATM    1  N   UNL     1      -9.744  12.859  67.791  1.00  0.00    -0.208 NA 
HETATM    2  H2  UNL     1      -8.851  13.122  67.375  1.00  0.00     0.000 HD 
HETATM    3  C   UNL     1      -9.847  11.775  68.623  1.00  0.00    -0.144 C  
HETATM    4  H1  UNL     1     -10.592  13.393  67.603  1.00  0.00     0.000 HD 
HETATM    5  N   UNL     1      -8.766  11.095  68.863  1.00  0.00    -0.315 N  
HETATM    6  H   UNL     1      -7.889  11.363  68.418  1.00  0.00     0.000 HD 
HETATM    7  C   UNL     1      -8.799  10.012  69.716  1.00  0.00    -0.183 C  
HETATM    8  N   UNL     1     -10.013   9.693  70.362  1.00  0.00    -0.267 N  
HETATM    9  O   UNL     1      -7.786   9.344  69.903  1.00  0.00    -0.095 OA 
HETATM   10  F   UNL     1     -12.233  12.121  68.864  1.00  0.00    -0.322 F  
HETATM   11  C   UNL     1     -11.166  10.401  70.076  1.00  0.00    -0.316 C  
HETATM   12  C   UNL     1     -11.148  11.412  69.217  1.00  0.00    -0.254 C  
ENDROOT
BRANCH   8  13
HETATM   13  C   UNL     1      -9.975   8.596  71.337  1.00  0.00    -0.254 C  
HETATM   14  C   UNL     1     -10.122   7.160  70.818  1.00  0.00    -0.190 C  
HETATM   15  S   UNL     1     -11.890   6.844  70.856  1.00  0.00    -0.380 SA 
HETATM   16  C   UNL     1     -12.105   7.993  72.232  1.00  0.00    -0.341 C  
HETATM   17  O   UNL     1     -10.965   8.857  72.348  1.00  0.00    -0.273 OA 
BRANCH  16  18
HETATM   18  C   UNL     1     -13.368   8.861  72.129  1.00  0.00    -0.440 C  
HETATM   19  O   UNL     1     -14.056   8.955  73.379  1.00  0.00    -1.256 OA 
HETATM   20  H   UNL     1     -14.837   9.491  73.316  1.00  0.00     0.000 HD 
ENDBRANCH  16  18
ENDBRANCH   8  13
TORSDOF 2
ENDMDL
MODEL       62
REMARK 921   NORMALIZED FREE ENERGY PREDICTED BY IDOCK:   -4.38 KCAL/MOL
REMARK 922        TOTAL FREE ENERGY PREDICTED BY IDOCK:   -5.08 KCAL/MOL
REMARK 923 INTER-LIGAND FREE ENERGY PREDICTED BY IDOCK:   -5.56 KCAL/MOL
REMARK 924 INTRA-LIGAND FREE ENERGY PREDICTED BY IDOCK:    0.48 KCAL/MOL
REMARK 927      BINDING AFFINITY PREDICTED BY RF-SCORE:    0.00 PKD
ROOT
HETATM    1  N   UNL     1      -8.390  20.730  66.982  1.00  0.00    -0.569 NA 
HETATM    2  H2  UNL     1      -7.584  21.025  67.533  1.00  0.00     0.000 HD 
HETATM    3  C   UNL     1      -8.949  19.490  67.150  1.00  0.00    -0.303 C  
HETATM    4  H1  UNL     1      -8.809  21.347  66.286  1.00  0.00     0.000 HD 
HETATM    5  N   UNL     1      -8.415  18.704  68.037  1.00  0.00    -0.284 N  
HETATM    6  H   UNL     1      -7.596  19.012  68.560  1.00  0.00     0.000 HD 
HETATM    7  C   UNL     1      -8.951  17.456  68.274  1.00  0.00    -0.268 C  
HETATM    8  N   UNL     1     -10.117  17.073  67.576  1.00  0.00    -0.285 N  
HETATM    9  O   UNL     1      -8.416  16.699  69.079  1.00  0.00    -0.233 OA 
HETATM   10  F   UNL     1     -10.565  19.923  65.398  1.00  0.00    -0.547 F  
HETATM   11  C   UNL     1     -10.659  17.902  66.611  1.00  0.00    -0.238 C  
HETATM   12  C   UNL     1     -10.116  19.083  66.345  1.00  0.00    -0.415 C  
ENDROOT
BRANCH   8  13
HETATM   13  C   UNL     1     -10.708  15.778  67.935  1.00  0.00    -0.302 C  
HETATM   14  C   UNL     1      -9.762  14.607  68.230  1.00  0.00    -0.215 C  
HETATM   15  S   UNL     1      -9.519  13.811  66.637  1.00  0.00    -0.265 SA 
HETATM   16  C   UNL     1     -11.151  14.344  66.078  1.00  0.00    -0.324 C  
HETATM   17  O   UNL     1     -11.642  15.408  66.906  1.00  0.00    -0.164 OA 
BRANCH  16  18
HETATM   18  C   UNL     1     -11.189  14.805  64.614  1.00  0.00    -0.342 C  
HETATM   19  O   UNL     1     -12.527  15.001  64.150  1.00  0.00    -0.809 OA 
HETATM   20  H   UNL     1     -12.551  15.286  63.244  1.00  0.00     0.000 HD 
ENDBRANCH  16  18
ENDBRANCH   8  13
TORSDOF 2
ENDMDL
MODEL       63
REMARK 921   NORMALIZED FREE ENERGY PREDICTED BY IDOCK:   -4.36 KCAL/MOL
REMARK 922        TOTAL FREE ENERGY PREDICTED BY IDOCK:   -5.06 KCAL/MOL
REMARK 923 INTER-LIGAND FREE ENERGY PREDICTED BY IDOCK:   -4.98 KCAL/MOL
REMARK 924 INTRA-LIGAND FREE ENERGY PREDICTED BY IDOCK:   -0.08 KCAL/MOL
REMARK 927      BINDING AFFINITY PREDICTED BY RF-SCORE:    0.00 PKD
ROOT
HETATM    1  N   UNL     1     -11.835  15.656  68.610  1.00  0.00    -0.505 NA 
HETATM    2  H2  UNL     1     -12.671  15.731  69.190  1.00  0.00     0.000 HD 
HETATM    3  C   UNL     1     -11.362  14.438  68.202  1.00  0.00    -0.294 C  
HETATM    4  H1  UNL     1     -11.323  16.487  68.312  1.00  0.00     0.000 HD 
HETATM    5  N   UNL     1     -12.015  13.380  68.582  1.00  0.00    -0.351 N  
HETATM    6  H   UNL     1     -12.834  13.477  69.181  1.00  0.00     0.000 HD 
HETATM    7  C   UNL     1     -11.606  12.126  68.178  1.00  0.00    -0.337 C  
HETATM    8  N   UNL     1     -10.501  12.020  67.306  1.00  0.00    -0.215 N  
HETATM    9  O   UNL     1     -12.197  11.127  68.577  1.00  0.00    -0.600 OA 
HETATM   10  F   UNL     1      -9.493  15.483  67.070  1.00  0.00    -0.210 F  
HETATM   11  C   UNL     1      -9.792  13.147  66.934  1.00  0.00    -0.249 C  
HETATM   12  C   UNL     1     -10.154  14.351  67.360  1.00  0.00    -0.243 C  
ENDROOT
BRANCH   8  13
HETATM   13  C   UNL     1     -10.166  10.674  66.824  1.00  0.00    -0.233 C  
HETATM   14  C   UNL     1      -8.689  10.263  66.793  1.00  0.00    -0.126 C  
HETATM   15  S   UNL     1      -8.116  10.755  65.163  1.00  0.00     0.086 SA 
HETATM   16  C   UNL     1      -9.770  10.536  64.473  1.00  0.00    -0.314 C  
HETATM   17  O   UNL     1     -10.750  10.504  65.520  1.00  0.00    -0.130 OA 
BRANCH  16  18
HETATM   18  C   UNL     1     -10.172  11.617  63.459  1.00  0.00    -0.436 C  
HETATM   19  O   UNL     1     -11.445  11.347  62.866  1.00  0.00    -0.827 OA 
HETATM   20  H   UNL     1     -11.693  12.016  62.238  1.00  0.00     0.000 HD 
ENDBRANCH  16  18
ENDBRANCH   8  13
TORSDOF 2
ENDMDL
MODEL       64
REMARK 921   NORMALIZED FREE ENERGY PREDICTED BY IDOCK:   -4.32 KCAL/MOL
REMARK 922        TOTAL FREE ENERGY PREDICTED BY IDOCK:   -5.01 KCAL/MOL
REMARK 923 INTER-LIGAND FREE ENERGY PREDICTED BY IDOCK:   -4.91 KCAL/MOL
REMARK 924 INTRA-LIGAND FREE ENERGY PREDICTED BY IDOCK:   -0.10 KCAL/MOL
REMARK 927      BINDING AFFINITY PREDICTED BY RF-SCORE:    0.00 PKD
ROOT
HETATM    1  N   UNL     1     -12.696   6.744  71.963  1.00  0.00    -0.541 NA 
HETATM    2  H2  UNL     1     -13.313   5.946  71.812  1.00  0.00     0.000 HD 
HETATM    3  C   UNL     1     -11.866   7.196  70.972  1.00  0.00    -0.333 C  
HETATM    4  H1  UNL     1     -12.675   7.232  72.858  1.00  0.00     0.000 HD 
HETATM    5  N   UNL     1     -11.893   6.573  69.831  1.00  0.00    -0.615 N  
HETATM    6  H   UNL     1     -12.502   5.764  69.710  1.00  0.00     0.000 HD 
HETATM    7  C   UNL     1     -11.104   7.000  68.785  1.00  0.00    -0.035 C  
HETATM    8  N   UNL     1     -10.310   8.155  68.959  1.00  0.00    -0.218 N  
HETATM    9  O   UNL     1     -11.098   6.381  67.725  1.00  0.00    -0.328 OA 
HETATM   10  F   UNL     1     -10.957   8.898  72.437  1.00  0.00    -0.415 F  
HETATM   11  C   UNL     1     -10.261   8.792  70.185  1.00  0.00    -0.190 C  
HETATM   12  C   UNL     1     -10.982   8.353  71.210  1.00  0.00    -0.252 C  
ENDROOT
BRANCH   8  13
HETATM   13  C   UNL     1      -9.565   8.628  67.786  1.00  0.00    -0.148 C  
HETATM   14  C   UNL     1      -8.281   9.434  68.020  1.00  0.00    -0.114 C  
HETATM   15  S   UNL     1      -8.828  11.144  68.096  1.00  0.00    -0.154 SA 
HETATM   16  C   UNL     1     -10.221  10.787  67.004  1.00  0.00    -0.217 C  
HETATM   17  O   UNL     1     -10.468   9.375  66.951  1.00  0.00    -0.245 OA 
BRANCH  16  18
HETATM   18  C   UNL     1     -11.524  11.497  67.402  1.00  0.00    -0.274 C  
HETATM   19  O   UNL     1     -12.259  10.757  68.380  1.00  0.00    -0.832 OA 
HETATM   20  H   UNL     1     -13.065  11.196  68.626  1.00  0.00     0.000 HD 
ENDBRANCH  16  18
ENDBRANCH   8  13
TORSDOF 2
ENDMDL
MODEL       65
REMARK 921   NORMALIZED FREE ENERGY PREDICTED BY IDOCK:   -4.30 KCAL/MOL
REMARK 922        TOTAL FREE ENERGY PREDICTED BY IDOCK:   -4.99 KCAL/MOL
REMARK 923 INTER-LIGAND FREE ENERGY PREDICTED BY IDOCK:   -4.92 KCAL/MOL
REMARK 924 INTRA-LIGAND FREE ENERGY PREDICTED BY IDOCK:   -0.07 KCAL/MOL
REMARK 927      BINDING AFFINITY PREDICTED BY RF-SCORE:    0.00 PKD
ROOT
HETATM    1  N   UNL     1      -5.760  16.113  67.036  1.00  0.00    -0.340 NA 
HETATM    2  H2  UNL     1      -5.409  16.418  66.128  1.00  0.00     0.000 HD 
HETATM    3  C   UNL     1      -7.104  16.045  67.289  1.00  0.00    -0.203 C  
HETATM    4  H1  UNL     1      -5.122  15.848  67.786  1.00  0.00     0.000 HD 
HETATM    5  N   UNL     1      -7.917  16.382  66.332  1.00  0.00    -0.306 N  
HETATM    6  H   UNL     1      -7.543  16.706  65.440  1.00  0.00     0.000 HD 
HETATM    7  C   UNL     1      -9.281  16.305  66.516  1.00  0.00    -0.269 C  
HETATM    8  N   UNL     1      -9.774  15.804  67.741  1.00  0.00    -0.215 N  
HETATM    9  O   UNL     1     -10.044  16.670  65.626  1.00  0.00    -0.508 OA 
HETATM   10  F   UNL     1      -6.691  15.337  69.569  1.00  0.00    -0.124 F  
HETATM   11  C   UNL     1      -8.905  15.479  68.765  1.00  0.00    -0.203 C  
HETATM   12  C   UNL     1      -7.592  15.599  68.608  1.00  0.00    -0.143 C  
ENDROOT
BRANCH   8  13
HETATM   13  C   UNL     1     -11.229  15.646  67.852  1.00  0.00    -0.328 C  
HETATM   14  C   UNL     1     -11.854  15.651  69.253  1.00  0.00    -0.363 C  
HETATM   15  S   UNL     1     -11.844  13.927  69.758  1.00  0.00    -0.339 SA 
HETATM   16  C   UNL     1     -11.967  13.383  68.040  1.00  0.00    -0.322 C  
HETATM   17  O   UNL     1     -11.607  14.448  67.150  1.00  0.00    -0.351 OA 
BRANCH  16  18
HETATM   18  C   UNL     1     -11.102  12.157  67.711  1.00  0.00    -0.250 C  
HETATM   19  O   UNL     1     -11.859  10.944  67.743  1.00  0.00    -0.655 OA 
HETATM   20  H   UNL     1     -11.325  10.186  67.540  1.00  0.00     0.000 HD 
ENDBRANCH  16  18
ENDBRANCH   8  13
TORSDOF 2
ENDMDL
MODEL       66
REMARK 921   NORMALIZED FREE ENERGY PREDICTED BY IDOCK:   -4.27 KCAL/MOL
REMARK 922        TOTAL FREE ENERGY PREDICTED BY IDOCK:   -4.96 KCAL/MOL
REMARK 923 INTER-LIGAND FREE ENERGY PREDICTED BY IDOCK:   -4.86 KCAL/MOL
REMARK 924 INTRA-LIGAND FREE ENERGY PREDICTED BY IDOCK:   -0.09 KCAL/MOL
REMARK 927      BINDING AFFINITY PREDICTED BY RF-SCORE:    0.00 PKD
ROOT
HETATM    1  N   UNL     1     -10.397  14.834  67.021  1.00  0.00    -0.253 NA 
HETATM    2  H2  UNL     1     -11.411  14.751  67.097  1.00  0.00     0.000 HD 
HETATM    3  C   UNL     1      -9.803  16.040  66.759  1.00  0.00    -0.250 C  
HETATM    4  H1  UNL     1      -9.791  14.023  67.138  1.00  0.00     0.000 HD 
HETATM    5  N   UNL     1     -10.576  17.074  66.611  1.00  0.00    -0.238 N  
HETATM    6  H   UNL     1     -11.588  16.963  66.668  1.00  0.00     0.000 HD 
HETATM    7  C   UNL     1     -10.036  18.321  66.376  1.00  0.00    -0.396 C  
HETATM    8  N   UNL     1      -8.631  18.459  66.353  1.00  0.00    -0.272 N  
HETATM    9  O   UNL     1     -10.772  19.285  66.189  1.00  0.00    -0.432 OA 
HETATM   10  F   UNL     1      -7.608  15.015  66.749  1.00  0.00    -0.207 F  
HETATM   11  C   UNL     1      -7.816  17.349  66.479  1.00  0.00    -0.285 C  
HETATM   12  C   UNL     1      -8.335  16.141  66.655  1.00  0.00    -0.286 C  
ENDROOT
BRANCH   8  13
HETATM   13  C   UNL     1      -8.104  19.820  66.201  1.00  0.00    -0.342 C  
HETATM   14  C   UNL     1      -6.829  20.015  65.371  1.00  0.00    -0.305 C  
HETATM   15  S   UNL     1      -5.489  19.860  66.558  1.00  0.00    -0.170 SA 
HETATM   16  C   UNL     1      -6.545  20.471  67.888  1.00  0.00    -0.308 C  
HETATM   17  O   UNL     1      -7.926  20.385  67.513  1.00  0.00    -0.313 OA 
BRANCH  16  18
HETATM   18  C   UNL     1      -6.354  19.739  69.224  1.00  0.00    -0.326 C  
HETATM   19  O   UNL     1      -6.109  20.646  70.302  1.00  0.00    -0.480 OA 
HETATM   20  H   UNL     1      -5.991  20.193  71.128  1.00  0.00     0.000 HD 
ENDBRANCH  16  18
ENDBRANCH   8  13
TORSDOF 2
ENDMDL
MODEL       67
REMARK 921   NORMALIZED FREE ENERGY PREDICTED BY IDOCK:   -4.26 KCAL/MOL
REMARK 922        TOTAL FREE ENERGY PREDICTED BY IDOCK:   -4.95 KCAL/MOL
REMARK 923 INTER-LIGAND FREE ENERGY PREDICTED BY IDOCK:   -4.93 KCAL/MOL
REMARK 924 INTRA-LIGAND FREE ENERGY PREDICTED BY IDOCK:   -0.02 KCAL/MOL
REMARK 927      BINDING AFFINITY PREDICTED BY RF-SCORE:    0.00 PKD
ROOT
HETATM    1  N   UNL     1     -13.726  12.937  72.772  1.00  0.00    -0.719 NA 
HETATM    2  H2  UNL     1     -13.974  13.864  73.116  1.00  0.00     0.000 HD 
HETATM    3  C   UNL     1     -13.060  12.776  71.586  1.00  0.00    -0.331 C  
HETATM    4  H1  UNL     1     -13.964  12.097  73.299  1.00  0.00     0.000 HD 
HETATM    5  N   UNL     1     -12.756  13.847  70.915  1.00  0.00    -0.344 N  
HETATM    6  H   UNL     1     -13.035  14.762  71.267  1.00  0.00     0.000 HD 
HETATM    7  C   UNL     1     -12.059  13.752  69.729  1.00  0.00    -0.340 C  
HETATM    8  N   UNL     1     -11.638  12.478  69.288  1.00  0.00    -0.302 N  
HETATM    9  O   UNL     1     -11.816  14.762  69.075  1.00  0.00    -0.298 OA 
HETATM   10  F   UNL     1     -13.119  10.365  71.819  1.00  0.00    -0.443 F  
HETATM   11  C   UNL     1     -11.994  11.342  69.990  1.00  0.00    -0.368 C  
HETATM   12  C   UNL     1     -12.707  11.426  71.106  1.00  0.00    -0.377 C  
ENDROOT
BRANCH   8  13
HETATM   13  C   UNL     1     -10.813  12.438  68.075  1.00  0.00    -0.221 C  
HETATM   14  C   UNL     1     -11.274  11.547  66.914  1.00  0.00    -0.298 C  
HETATM   15  S   UNL     1     -10.502   9.956  67.232  1.00  0.00    -0.252 SA 
HETATM   16  C   UNL     1      -9.123  10.752  68.083  1.00  0.00    -0.151 C  
HETATM   17  O   UNL     1      -9.469  12.093  68.455  1.00  0.00    -0.208 OA 
BRANCH  16  18
HETATM   18  C   UNL     1      -8.648  10.004  69.337  1.00  0.00    -0.175 C  
HETATM   19  O   UNL     1      -8.000   8.771  69.012  1.00  0.00    -0.106 OA 
HETATM   20  H   UNL     1      -7.707   8.308  69.788  1.00  0.00     0.000 HD 
ENDBRANCH  16  18
ENDBRANCH   8  13
TORSDOF 2
ENDMDL
MODEL       68
REMARK 921   NORMALIZED FREE ENERGY PREDICTED BY IDOCK:   -4.25 KCAL/MOL
REMARK 922        TOTAL FREE ENERGY PREDICTED BY IDOCK:   -4.94 KCAL/MOL
REMARK 923 INTER-LIGAND FREE ENERGY PREDICTED BY IDOCK:   -4.85 KCAL/MOL
REMARK 924 INTRA-LIGAND FREE ENERGY PREDICTED BY IDOCK:   -0.09 KCAL/MOL
REMARK 927      BINDING AFFINITY PREDICTED BY RF-SCORE:    0.00 PKD
ROOT
HETATM    1  N   UNL     1      -6.045  21.320  67.838  1.00  0.00    -0.343 NA 
HETATM    2  H2  UNL     1      -5.901  21.999  67.091  1.00  0.00     0.000 HD 
HETATM    3  C   UNL     1      -7.052  20.395  67.770  1.00  0.00    -0.309 C  
HETATM    4  H1  UNL     1      -5.443  21.305  68.661  1.00  0.00     0.000 HD 
HETATM    5  N   UNL     1      -7.819  20.413  66.721  1.00  0.00    -0.454 N  
HETATM    6  H   UNL     1      -7.670  21.116  65.997  1.00  0.00     0.000 HD 
HETATM    7  C   UNL     1      -8.831  19.487  66.581  1.00  0.00    -0.346 C  
HETATM    8  N   UNL     1      -8.983  18.491  67.570  1.00  0.00    -0.274 N  
HETATM    9  O   UNL     1      -9.582  19.538  65.611  1.00  0.00    -0.338 OA 
HETATM   10  F   UNL     1      -6.456  19.509  69.946  1.00  0.00    -0.322 F  
HETATM   11  C   UNL     1      -8.185  18.499  68.699  1.00  0.00    -0.308 C  
HETATM   12  C   UNL     1      -7.242  19.419  68.860  1.00  0.00    -0.362 C  
ENDROOT
BRANCH   8  13
HETATM   13  C   UNL     1     -10.008  17.469  67.326  1.00  0.00    -0.312 C  
HETATM   14  C   UNL     1     -10.759  16.894  68.534  1.00  0.00    -0.359 C  
HETATM   15  S   UNL     1      -9.776  15.479  69.045  1.00  0.00    -0.253 SA 
HETATM   16  C   UNL     1      -9.193  15.225  67.356  1.00  0.00    -0.195 C  
HETATM   17  O   UNL     1      -9.410  16.403  66.567  1.00  0.00    -0.238 OA 
BRANCH  16  18
HETATM   18  C   UNL     1      -7.710  14.837  67.259  1.00  0.00    -0.184 C  
HETATM   19  O   UNL     1      -7.535  13.511  66.755  1.00  0.00    -0.248 OA 
HETATM   20  H   UNL     1      -6.618  13.271  66.695  1.00  0.00     0.000 HD 
ENDBRANCH  16  18
ENDBRANCH   8  13
TORSDOF 2
ENDMDL
MODEL       69
REMARK 921   NORMALIZED FREE ENERGY PREDICTED BY IDOCK:   -4.23 KCAL/MOL
REMARK 922        TOTAL FREE ENERGY PREDICTED BY IDOCK:   -4.92 KCAL/MOL
REMARK 923 INTER-LIGAND FREE ENERGY PREDICTED BY IDOCK:   -4.97 KCAL/MOL
REMARK 924 INTRA-LIGAND FREE ENERGY PREDICTED BY IDOCK:    0.05 KCAL/MOL
REMARK 927      BINDING AFFINITY PREDICTED BY RF-SCORE:    0.00 PKD
ROOT
HETATM    1  N   UNL     1     -10.373  18.915  68.636  1.00  0.00    -0.456 NA 
HETATM    2  H2  UNL     1     -10.480  19.445  69.501  1.00  0.00     0.000 HD 
HETATM    3  C   UNL     1     -10.536  17.556  68.613  1.00  0.00    -0.338 C  
HETATM    4  H1  UNL     1     -10.142  19.380  67.758  1.00  0.00     0.000 HD 
HETATM    5  N   UNL     1     -10.831  16.965  69.732  1.00  0.00    -0.368 N  
HETATM    6  H   UNL     1     -10.910  17.512  70.589  1.00  0.00     0.000 HD 
HETATM    7  C   UNL     1     -11.038  15.602  69.767  1.00  0.00    -0.313 C  
HETATM    8  N   UNL     1     -10.975  14.874  68.559  1.00  0.00    -0.246 N  
HETATM    9  O   UNL     1     -11.270  15.041  70.834  1.00  0.00    -0.281 OA 
HETATM   10  F   UNL     1     -10.003  17.479  66.250  1.00  0.00    -0.279 F  
HETATM   11  C   UNL     1     -10.628  15.504  67.379  1.00  0.00    -0.292 C  
HETATM   12  C   UNL     1     -10.380  16.808  67.351  1.00  0.00    -0.302 C  
ENDROOT
BRANCH   8  13
HETATM   13  C   UNL     1     -11.302  13.444  68.631  1.00  0.00    -0.286 C  
HETATM   14  C   UNL     1     -10.150  12.446  68.805  1.00  0.00    -0.055 C  
HETATM   15  S   UNL     1      -9.657  12.029  67.128  1.00  0.00    -0.195 SA 
HETATM   16  C   UNL     1     -11.331  12.329  66.520  1.00  0.00    -0.351 C  
HETATM   17  O   UNL     1     -12.079  13.100  67.470  1.00  0.00    -0.339 OA 
BRANCH  16  18
HETATM   18  C   UNL     1     -11.383  13.042  65.161  1.00  0.00    -0.291 C  
HETATM   19  O   UNL     1     -10.078  13.346  64.666  1.00  0.00    -0.578 OA 
HETATM   20  H   UNL     1     -10.110  13.787  63.825  1.00  0.00     0.000 HD 
ENDBRANCH  16  18
ENDBRANCH   8  13
TORSDOF 2
ENDMDL
MODEL       70
REMARK 921   NORMALIZED FREE ENERGY PREDICTED BY IDOCK:   -4.23 KCAL/MOL
REMARK 922        TOTAL FREE ENERGY PREDICTED BY IDOCK:   -4.92 KCAL/MOL
REMARK 923 INTER-LIGAND FREE ENERGY PREDICTED BY IDOCK:   -4.84 KCAL/MOL
REMARK 924 INTRA-LIGAND FREE ENERGY PREDICTED BY IDOCK:   -0.08 KCAL/MOL
REMARK 927      BINDING AFFINITY PREDICTED BY RF-SCORE:    0.00 PKD
ROOT
HETATM    1  N   UNL     1     -10.142   9.003  65.930  1.00  0.00    -0.394 NA 
HETATM    2  H2  UNL     1      -9.674   9.830  65.560  1.00  0.00     0.000 HD 
HETATM    3  C   UNL     1     -10.048   8.667  67.254  1.00  0.00    -0.244 C  
HETATM    4  H1  UNL     1     -10.698   8.397  65.326  1.00  0.00     0.000 HD 
HETATM    5  N   UNL     1      -9.341   9.440  68.023  1.00  0.00    -0.130 N  
HETATM    6  H   UNL     1      -8.863  10.249  67.627  1.00  0.00     0.000 HD 
HETATM    7  C   UNL     1      -9.233   9.172  69.372  1.00  0.00    -0.156 C  
HETATM    8  N   UNL     1      -9.948   8.078  69.906  1.00  0.00    -0.187 N  
HETATM    9  O   UNL     1      -8.526   9.878  70.085  1.00  0.00    -0.191 OA 
HETATM   10  F   UNL     1     -11.387   6.679  66.900  1.00  0.00    -0.474 F  
HETATM   11  C   UNL     1     -10.671   7.241  69.076  1.00  0.00    -0.166 C  
HETATM   12  C   UNL     1     -10.735   7.468  67.770  1.00  0.00    -0.163 C  
ENDROOT
BRANCH   8  13
HETATM   13  C   UNL     1      -9.883   7.893  71.361  1.00  0.00    -0.168 C  
HETATM   14  C   UNL     1     -10.086   6.480  71.922  1.00  0.00    -0.182 C  
HETATM   15  S   UNL     1     -11.856   6.355  72.201  1.00  0.00    -0.277 SA 
HETATM   16  C   UNL     1     -11.977   8.134  72.482  1.00  0.00    -0.350 C  
HETATM   17  O   UNL     1     -10.815   8.803  71.972  1.00  0.00    -0.332 OA 
BRANCH  16  18
HETATM   18  C   UNL     1     -13.225   8.781  71.863  1.00  0.00    -0.381 C  
HETATM   19  O   UNL     1     -14.246   9.012  72.836  1.00  0.00    -1.042 OA 
HETATM   20  H   UNL     1     -15.018   9.412  72.454  1.00  0.00     0.000 HD 
ENDBRANCH  16  18
ENDBRANCH   8  13
TORSDOF 2
ENDMDL
MODEL       71
REMARK 921   NORMALIZED FREE ENERGY PREDICTED BY IDOCK:   -4.21 KCAL/MOL
REMARK 922        TOTAL FREE ENERGY PREDICTED BY IDOCK:   -4.90 KCAL/MOL
REMARK 923 INTER-LIGAND FREE ENERGY PREDICTED BY IDOCK:   -4.80 KCAL/MOL
REMARK 924 INTRA-LIGAND FREE ENERGY PREDICTED BY IDOCK:   -0.10 KCAL/MOL
REMARK 927      BINDING AFFINITY PREDICTED BY RF-SCORE:    0.00 PKD
ROOT
HETATM    1  N   UNL     1      -8.842  17.841  66.026  1.00  0.00    -0.512 NA 
HETATM    2  H2  UNL     1      -9.104  18.773  65.707  1.00  0.00     0.000 HD 
HETATM    3  C   UNL     1      -9.606  16.746  65.721  1.00  0.00    -0.079 C  
HETATM    4  H1  UNL     1      -8.000  17.690  66.582  1.00  0.00     0.000 HD 
HETATM    5  N   UNL     1     -10.679  16.938  65.012  1.00  0.00    -0.175 N  
HETATM    6  H   UNL     1     -10.934  17.882  64.724  1.00  0.00     0.000 HD 
HETATM    7  C   UNL     1     -11.473  15.871  64.647  1.00  0.00    -0.263 C  
HETATM    8  N   UNL     1     -11.071  14.568  65.012  1.00  0.00    -0.365 N  
HETATM    9  O   UNL     1     -12.509  16.063  64.018  1.00  0.00    -0.703 OA 
HETATM   10  F   UNL     1      -8.127  15.297  66.978  1.00  0.00    -0.185 F  
HETATM   11  C   UNL     1      -9.947  14.376  65.794  1.00  0.00    -0.329 C  
HETATM   12  C   UNL     1      -9.208  15.405  66.189  1.00  0.00    -0.327 C  
ENDROOT
BRANCH   8  13
HETATM   13  C   UNL     1     -11.894  13.459  64.515  1.00  0.00    -0.398 C  
HETATM   14  C   UNL     1     -12.275  12.343  65.496  1.00  0.00    -0.286 C  
HETATM   15  S   UNL     1     -10.948  11.140  65.350  1.00  0.00    -0.003 SA 
HETATM   16  C   UNL     1     -10.649  11.621  63.635  1.00  0.00    -0.433 C  
HETATM   17  O   UNL     1     -11.243  12.897  63.361  1.00  0.00    -0.394 OA 
BRANCH  16  18
HETATM   18  C   UNL     1      -9.162  11.681  63.254  1.00  0.00    -0.058 C  
HETATM   19  O   UNL     1      -8.315  11.291  64.337  1.00  0.00    -0.286 OA 
HETATM   20  H   UNL     1      -7.396  11.328  64.101  1.00  0.00     0.000 HD 
ENDBRANCH  16  18
ENDBRANCH   8  13
TORSDOF 2
ENDMDL
MODEL       72
REMARK 921   NORMALIZED FREE ENERGY PREDICTED BY IDOCK:   -4.18 KCAL/MOL
REMARK 922        TOTAL FREE ENERGY PREDICTED BY IDOCK:   -4.87 KCAL/MOL
REMARK 923 INTER-LIGAND FREE ENERGY PREDICTED BY IDOCK:   -4.92 KCAL/MOL
REMARK 924 INTRA-LIGAND FREE ENERGY PREDICTED BY IDOCK:    0.06 KCAL/MOL
REMARK 927      BINDING AFFINITY PREDICTED BY RF-SCORE:    0.00 PKD
ROOT
HETATM    1  N   UNL     1     -11.988  15.968  63.711  1.00  0.00    -1.339 NA 
HETATM    2  H2  UNL     1     -12.411  15.294  63.073  1.00  0.00     0.000 HD 
HETATM    3  C   UNL     1     -11.050  15.582  64.630  1.00  0.00    -0.359 C  
HETATM    4  H1  UNL     1     -12.250  16.954  63.686  1.00  0.00     0.000 HD 
HETATM    5  N   UNL     1     -10.716  14.326  64.661  1.00  0.00    -0.568 N  
HETATM    6  H   UNL     1     -11.169  13.666  64.029  1.00  0.00     0.000 HD 
HETATM    7  C   UNL     1      -9.755  13.882  65.543  1.00  0.00    -0.088 C  
HETATM    8  N   UNL     1      -9.104  14.823  66.371  1.00  0.00    -0.262 N  
HETATM    9  O   UNL     1      -9.477  12.687  65.601  1.00  0.00    -0.129 OA 
HETATM   10  F   UNL     1     -10.897  17.839  65.499  1.00  0.00    -0.395 F  
HETATM   11  C   UNL     1      -9.488  16.151  66.356  1.00  0.00    -0.295 C  
HETATM   12  C   UNL     1     -10.448  16.573  65.542  1.00  0.00    -0.301 C  
ENDROOT
BRANCH   8  13
HETATM   13  C   UNL     1      -8.019  14.318  67.220  1.00  0.00    -0.168 C  
HETATM   14  C   UNL     1      -8.294  14.138  68.718  1.00  0.00    -0.069 C  
HETATM   15  S   UNL     1      -7.845  15.716  69.452  1.00  0.00    -0.186 SA 
HETATM   16  C   UNL     1      -6.624  16.015  68.156  1.00  0.00    -0.122 C  
HETATM   17  O   UNL     1      -6.868  15.161  67.029  1.00  0.00    -0.230 OA 
BRANCH  16  18
HETATM   18  C   UNL     1      -6.578  17.470  67.666  1.00  0.00    -0.161 C  
HETATM   19  O   UNL     1      -7.016  18.387  68.671  1.00  0.00    -0.250 OA 
HETATM   20  H   UNL     1      -6.987  19.287  68.368  1.00  0.00     0.000 HD 
ENDBRANCH  16  18
ENDBRANCH   8  13
TORSDOF 2
ENDMDL
MODEL       73
REMARK 921   NORMALIZED FREE ENERGY PREDICTED BY IDOCK:   -4.17 KCAL/MOL
REMARK 922        TOTAL FREE ENERGY PREDICTED BY IDOCK:   -4.85 KCAL/MOL
REMARK 923 INTER-LIGAND FREE ENERGY PREDICTED BY IDOCK:   -4.97 KCAL/MOL
REMARK 924 INTRA-LIGAND FREE ENERGY PREDICTED BY IDOCK:    0.12 KCAL/MOL
REMARK 927      BINDING AFFINITY PREDICTED BY RF-SCORE:    0.00 PKD
ROOT
HETATM    1  N   UNL     1      -9.445  20.541  65.923  1.00  0.00    -0.601 NA 
HETATM    2  H2  UNL     1      -8.868  21.354  66.138  1.00  0.00     0.000 HD 
HETATM    3  C   UNL     1      -9.298  19.365  66.608  1.00  0.00    -0.349 C  
HETATM    4  H1  UNL     1     -10.153  20.577  65.189  1.00  0.00     0.000 HD 
HETATM    5  N   UNL     1      -8.396  19.321  67.543  1.00  0.00    -0.285 N  
HETATM    6  H   UNL     1      -7.815  20.138  67.726  1.00  0.00     0.000 HD 
HETATM    7  C   UNL     1      -8.222  18.174  68.289  1.00  0.00    -0.290 C  
HETATM    8  N   UNL     1      -9.075  17.074  68.054  1.00  0.00    -0.232 N  
HETATM    9  O   UNL     1      -7.337  18.121  69.139  1.00  0.00    -0.228 OA 
HETATM   10  F   UNL     1     -11.005  18.303  65.256  1.00  0.00    -0.449 F  
HETATM   11  C   UNL     1     -10.009  17.117  67.036  1.00  0.00    -0.287 C  
HETATM   12  C   UNL     1     -10.146  18.202  66.284  1.00  0.00    -0.371 C  
ENDROOT
BRANCH   8  13
HETATM   13  C   UNL     1      -8.917  15.915  68.941  1.00  0.00    -0.228 C  
HETATM   14  C   UNL     1      -7.752  14.953  68.675  1.00  0.00    -0.127 C  
HETATM   15  S   UNL     1      -8.426  13.727  67.547  1.00  0.00    -0.209 SA 
HETATM   16  C   UNL     1     -10.083  13.958  68.226  1.00  0.00    -0.241 C  
HETATM   17  O   UNL     1     -10.159  15.189  68.958  1.00  0.00    -0.225 OA 
BRANCH  16  18
HETATM   18  C   UNL     1     -11.198  13.947  67.169  1.00  0.00    -0.313 C  
HETATM   19  O   UNL     1     -12.493  14.093  67.755  1.00  0.00    -0.535 OA 
HETATM   20  H   UNL     1     -13.182  14.087  67.102  1.00  0.00     0.000 HD 
ENDBRANCH  16  18
ENDBRANCH   8  13
TORSDOF 2
ENDMDL
MODEL       74
REMARK 921   NORMALIZED FREE ENERGY PREDICTED BY IDOCK:   -4.12 KCAL/MOL
REMARK 922        TOTAL FREE ENERGY PREDICTED BY IDOCK:   -4.80 KCAL/MOL
REMARK 923 INTER-LIGAND FREE ENERGY PREDICTED BY IDOCK:   -4.94 KCAL/MOL
REMARK 924 INTRA-LIGAND FREE ENERGY PREDICTED BY IDOCK:    0.14 KCAL/MOL
REMARK 927      BINDING AFFINITY PREDICTED BY RF-SCORE:    0.00 PKD
ROOT
HETATM    1  N   UNL     1     -10.485  17.646  67.470  1.00  0.00    -0.364 NA 
HETATM    2  H2  UNL     1     -10.758  18.348  68.158  1.00  0.00     0.000 HD 
HETATM    3  C   UNL     1     -10.752  16.318  67.669  1.00  0.00    -0.311 C  
HETATM    4  H1  UNL     1     -10.005  17.909  66.610  1.00  0.00     0.000 HD 
HETATM    5  N   UNL     1     -11.365  15.983  68.765  1.00  0.00    -0.365 N  
HETATM    6  H   UNL     1     -11.608  16.699  69.449  1.00  0.00     0.000 HD 
HETATM    7  C   UNL     1     -11.688  14.664  69.008  1.00  0.00    -0.306 C  
HETATM    8  N   UNL     1     -11.390  13.699  68.022  1.00  0.00    -0.269 N  
HETATM    9  O   UNL     1     -12.225  14.347  70.065  1.00  0.00    -0.318 OA 
HETATM   10  F   UNL     1      -9.657  15.733  65.588  1.00  0.00    -0.336 F  
HETATM   11  C   UNL     1     -10.708  14.058  66.874  1.00  0.00    -0.285 C  
HETATM   12  C   UNL     1     -10.351  15.318  66.661  1.00  0.00    -0.280 C  
ENDROOT
BRANCH   8  13
HETATM   13  C   UNL     1     -11.844  12.327  68.282  1.00  0.00    -0.310 C  
HETATM   14  C   UNL     1     -11.136  11.526  69.382  1.00  0.00    -0.226 C  
HETATM   15  S   UNL     1      -9.788  10.690  68.537  1.00  0.00    -0.176 SA 
HETATM   16  C   UNL     1     -10.726  10.655  66.994  1.00  0.00    -0.259 C  
HETATM   17  O   UNL     1     -11.807  11.598  67.042  1.00  0.00    -0.591 OA 
BRANCH  16  18
HETATM   18  C   UNL     1      -9.882  10.941  65.744  1.00  0.00    -0.237 C  
HETATM   19  O   UNL     1     -10.688  11.354  64.637  1.00  0.00    -0.307 OA 
HETATM   20  H   UNL     1     -10.166  11.531  63.864  1.00  0.00     0.000 HD 
ENDBRANCH  16  18
ENDBRANCH   8  13
TORSDOF 2
ENDMDL
MODEL       75
REMARK 921   NORMALIZED FREE ENERGY PREDICTED BY IDOCK:   -4.12 KCAL/MOL
REMARK 922        TOTAL FREE ENERGY PREDICTED BY IDOCK:   -4.79 KCAL/MOL
REMARK 923 INTER-LIGAND FREE ENERGY PREDICTED BY IDOCK:   -4.70 KCAL/MOL
REMARK 924 INTRA-LIGAND FREE ENERGY PREDICTED BY IDOCK:   -0.09 KCAL/MOL
REMARK 927      BINDING AFFINITY PREDICTED BY RF-SCORE:    0.00 PKD
ROOT
HETATM    1  N   UNL     1     -12.650  15.387  69.449  1.00  0.00    -0.596 NA 
HETATM    2  H2  UNL     1     -12.968  16.218  68.949  1.00  0.00     0.000 HD 
HETATM    3  C   UNL     1     -12.198  14.284  68.776  1.00  0.00    -0.190 C  
HETATM    4  H1  UNL     1     -12.657  15.350  70.469  1.00  0.00     0.000 HD 
HETATM    5  N   UNL     1     -12.189  14.332  67.477  1.00  0.00    -0.598 N  
HETATM    6  H   UNL     1     -12.533  15.164  66.998  1.00  0.00     0.000 HD 
HETATM    7  C   UNL     1     -11.717  13.264  66.743  1.00  0.00    -0.385 C  
HETATM    8  N   UNL     1     -11.197  12.145  67.429  1.00  0.00    -0.282 N  
HETATM    9  O   UNL     1     -11.754  13.296  65.516  1.00  0.00    -0.321 OA 
HETATM   10  F   UNL     1     -11.848  13.092  70.856  1.00  0.00    -0.359 F  
HETATM   11  C   UNL     1     -11.241  12.088  68.810  1.00  0.00    -0.263 C  
HETATM   12  C   UNL     1     -11.740  13.093  69.517  1.00  0.00    -0.319 C  
ENDROOT
BRANCH   8  13
HETATM   13  C   UNL     1     -10.614  11.078  66.607  1.00  0.00    -0.262 C  
HETATM   14  C   UNL     1     -10.664   9.641  67.142  1.00  0.00    -0.188 C  
HETATM   15  S   UNL     1      -9.143   9.455  68.079  1.00  0.00    -0.126 SA 
HETATM   16  C   UNL     1      -8.301  10.657  67.027  1.00  0.00    -0.126 C  
HETATM   17  O   UNL     1      -9.256  11.439  66.296  1.00  0.00    -0.196 OA 
BRANCH  16  18
HETATM   18  C   UNL     1      -7.369  11.610  67.790  1.00  0.00    -0.106 C  
HETATM   19  O   UNL     1      -6.515  12.343  66.909  1.00  0.00    -0.383 OA 
HETATM   20  H   UNL     1      -5.939  12.932  67.380  1.00  0.00     0.000 HD 
ENDBRANCH  16  18
ENDBRANCH   8  13
TORSDOF 2
ENDMDL
MODEL       76
REMARK 921   NORMALIZED FREE ENERGY PREDICTED BY IDOCK:   -4.11 KCAL/MOL
REMARK 922        TOTAL FREE ENERGY PREDICTED BY IDOCK:   -4.79 KCAL/MOL
REMARK 923 INTER-LIGAND FREE ENERGY PREDICTED BY IDOCK:   -4.69 KCAL/MOL
REMARK 924 INTRA-LIGAND FREE ENERGY PREDICTED BY IDOCK:   -0.09 KCAL/MOL
REMARK 927      BINDING AFFINITY PREDICTED BY RF-SCORE:    0.00 PKD
ROOT
HETATM    1  N   UNL     1      -7.437  20.955  66.383  1.00  0.00    -0.518 NA 
HETATM    2  H2  UNL     1      -7.875  21.855  66.582  1.00  0.00     0.000 HD 
HETATM    3  C   UNL     1      -7.862  19.808  66.999  1.00  0.00    -0.284 C  
HETATM    4  H1  UNL     1      -6.667  20.879  65.719  1.00  0.00     0.000 HD 
HETATM    5  N   UNL     1      -8.843  19.905  67.845  1.00  0.00    -0.315 N  
HETATM    6  H   UNL     1      -9.251  20.818  68.046  1.00  0.00     0.000 HD 
HETATM    7  C   UNL     1      -9.336  18.781  68.474  1.00  0.00    -0.350 C  
HETATM    8  N   UNL     1      -8.791  17.522  68.140  1.00  0.00    -0.255 N  
HETATM    9  O   UNL     1     -10.231  18.884  69.307  1.00  0.00    -0.249 OA 
HETATM   10  F   UNL     1      -6.161  18.507  65.864  1.00  0.00    -0.192 F  
HETATM   11  C   UNL     1      -7.725  17.431  67.264  1.00  0.00    -0.200 C  
HETATM   12  C   UNL     1      -7.216  18.516  66.695  1.00  0.00    -0.216 C  
ENDROOT
BRANCH   8  13
HETATM   13  C   UNL     1      -9.415  16.347  68.759  1.00  0.00    -0.247 C  
HETATM   14  C   UNL     1      -8.514  15.168  69.149  1.00  0.00    -0.220 C  
HETATM   15  S   UNL     1      -8.488  14.119  67.690  1.00  0.00    -0.200 SA 
HETATM   16  C   UNL     1     -10.135  14.679  67.210  1.00  0.00    -0.236 C  
HETATM   17  O   UNL     1     -10.473  15.892  67.897  1.00  0.00    -0.271 OA 
BRANCH  16  18
HETATM   18  C   UNL     1     -10.302  14.908  65.700  1.00  0.00    -0.349 C  
HETATM   19  O   UNL     1      -9.956  13.747  64.941  1.00  0.00    -0.591 OA 
HETATM   20  H   UNL     1     -10.059  13.889  64.008  1.00  0.00     0.000 HD 
ENDBRANCH  16  18
ENDBRANCH   8  13
TORSDOF 2
ENDMDL
MODEL       77
REMARK 921   NORMALIZED FREE ENERGY PREDICTED BY IDOCK:   -4.11 KCAL/MOL
REMARK 922        TOTAL FREE ENERGY PREDICTED BY IDOCK:   -4.78 KCAL/MOL
REMARK 923 INTER-LIGAND FREE ENERGY PREDICTED BY IDOCK:   -4.68 KCAL/MOL
REMARK 924 INTRA-LIGAND FREE ENERGY PREDICTED BY IDOCK:   -0.10 KCAL/MOL
REMARK 927      BINDING AFFINITY PREDICTED BY RF-SCORE:    0.00 PKD
ROOT
HETATM    1  N   UNL     1     -12.952  13.885  65.144  1.00  0.00    -0.773 NA 
HETATM    2  H2  UNL     1     -13.274  14.693  65.678  1.00  0.00     0.000 HD 
HETATM    3  C   UNL     1     -11.836  13.186  65.522  1.00  0.00    -0.380 C  
HETATM    4  H1  UNL     1     -13.449  13.570  64.312  1.00  0.00     0.000 HD 
HETATM    5  N   UNL     1     -11.203  13.588  66.583  1.00  0.00    -0.306 N  
HETATM    6  H   UNL     1     -11.530  14.412  67.087  1.00  0.00     0.000 HD 
HETATM    7  C   UNL     1     -10.090  12.908  67.030  1.00  0.00    -0.245 C  
HETATM    8  N   UNL     1      -9.688  11.740  66.347  1.00  0.00    -0.209 N  
HETATM    9  O   UNL     1      -9.468  13.319  68.005  1.00  0.00    -0.206 OA 
HETATM   10  F   UNL     1     -12.052  11.709  63.613  1.00  0.00    -0.518 F  
HETATM   11  C   UNL     1     -10.346  11.338  65.200  1.00  0.00    -0.295 C  
HETATM   12  C   UNL     1     -11.387  12.019  64.738  1.00  0.00    -0.313 C  
ENDROOT
BRANCH   8  13
HETATM   13  C   UNL     1      -8.560  10.994  66.920  1.00  0.00    -0.143 C  
HETATM   14  C   UNL     1      -7.582  10.307  65.958  1.00  0.00    -0.128 C  
HETATM   15  S   UNL     1      -8.267   8.664  65.716  1.00  0.00    -0.134 SA 
HETATM   16  C   UNL     1      -9.018   8.692  67.357  1.00  0.00    -0.133 C  
HETATM   17  O   UNL     1      -9.084  10.035  67.856  1.00  0.00    -0.131 OA 
BRANCH  16  18
HETATM   18  C   UNL     1     -10.426   8.080  67.411  1.00  0.00    -0.287 C  
HETATM   19  O   UNL     1     -10.608   7.068  66.418  1.00  0.00    -0.484 OA 
HETATM   20  H   UNL     1     -11.478   6.690  66.451  1.00  0.00     0.000 HD 
ENDBRANCH  16  18
ENDBRANCH   8  13
TORSDOF 2
ENDMDL
MODEL       78
REMARK 921   NORMALIZED FREE ENERGY PREDICTED BY IDOCK:   -4.07 KCAL/MOL
REMARK 922        TOTAL FREE ENERGY PREDICTED BY IDOCK:   -4.74 KCAL/MOL
REMARK 923 INTER-LIGAND FREE ENERGY PREDICTED BY IDOCK:   -4.62 KCAL/MOL
REMARK 924 INTRA-LIGAND FREE ENERGY PREDICTED BY IDOCK:   -0.12 KCAL/MOL
REMARK 927      BINDING AFFINITY PREDICTED BY RF-SCORE:    0.00 PKD
ROOT
HETATM    1  N   UNL     1     -13.416  13.221  72.091  1.00  0.00    -0.528 NA 
HETATM    2  H2  UNL     1     -13.815  14.019  72.586  1.00  0.00     0.000 HD 
HETATM    3  C   UNL     1     -12.782  13.378  70.888  1.00  0.00    -0.272 C  
HETATM    4  H1  UNL     1     -13.476  12.278  72.476  1.00  0.00     0.000 HD 
HETATM    5  N   UNL     1     -12.706  14.580  70.398  1.00  0.00    -0.456 N  
HETATM    6  H   UNL     1     -13.132  15.359  70.899  1.00  0.00     0.000 HD 
HETATM    7  C   UNL     1     -12.053  14.807  69.205  1.00  0.00    -0.261 C  
HETATM    8  N   UNL     1     -11.425  13.721  68.557  1.00  0.00    -0.284 N  
HETATM    9  O   UNL     1     -12.025  15.935  68.724  1.00  0.00    -0.368 OA 
HETATM   10  F   UNL     1     -12.391  10.993  70.723  1.00  0.00    -0.369 F  
HETATM   11  C   UNL     1     -11.539  12.441  69.067  1.00  0.00    -0.311 C  
HETATM   12  C   UNL     1     -12.209  12.212  70.189  1.00  0.00    -0.231 C  
ENDROOT
BRANCH   8  13
HETATM   13  C   UNL     1     -10.658  14.029  67.345  1.00  0.00    -0.278 C  
HETATM   14  C   UNL     1     -10.292  12.873  66.405  1.00  0.00    -0.268 C  
HETATM   15  S   UNL     1      -8.702  12.289  67.004  1.00  0.00    -0.195 SA 
HETATM   16  C   UNL     1      -8.288  13.934  67.623  1.00  0.00    -0.181 C  
HETATM   17  O   UNL     1      -9.469  14.741  67.733  1.00  0.00    -0.200 OA 
BRANCH  16  18
HETATM   18  C   UNL     1      -7.572  13.927  68.982  1.00  0.00    -0.002 C  
HETATM   19  O   UNL     1      -8.262  14.717  69.954  1.00  0.00    -0.415 OA 
HETATM   20  H   UNL     1      -7.819  14.713  70.794  1.00  0.00     0.000 HD 
ENDBRANCH  16  18
ENDBRANCH   8  13
TORSDOF 2
ENDMDL
MODEL       79
REMARK 921   NORMALIZED FREE ENERGY PREDICTED BY IDOCK:   -4.04 KCAL/MOL
REMARK 922        TOTAL FREE ENERGY PREDICTED BY IDOCK:   -4.71 KCAL/MOL
REMARK 923 INTER-LIGAND FREE ENERGY PREDICTED BY IDOCK:   -5.10 KCAL/MOL
REMARK 924 INTRA-LIGAND FREE ENERGY PREDICTED BY IDOCK:    0.39 KCAL/MOL
REMARK 927      BINDING AFFINITY PREDICTED BY RF-SCORE:    0.00 PKD
ROOT
HETATM    1  N   UNL     1     -11.321   9.199  69.444  1.00  0.00    -0.432 NA 
HETATM    2  H2  UNL     1     -11.157   8.339  68.921  1.00  0.00     0.000 HD 
HETATM    3  C   UNL     1     -11.356  10.415  68.815  1.00  0.00    -0.214 C  
HETATM    4  H1  UNL     1     -11.466   9.183  70.453  1.00  0.00     0.000 HD 
HETATM    5  N   UNL     1     -11.172  10.435  67.529  1.00  0.00    -0.340 N  
HETATM    6  H   UNL     1     -10.987   9.565  67.030  1.00  0.00     0.000 HD 
HETATM    7  C   UNL     1     -11.226  11.625  66.835  1.00  0.00    -0.313 C  
HETATM    8  N   UNL     1     -11.537  12.809  67.539  1.00  0.00    -0.335 N  
HETATM    9  O   UNL     1     -11.005  11.645  65.628  1.00  0.00    -0.290 OA 
HETATM   10  F   UNL     1     -11.707  11.554  70.925  1.00  0.00    -0.382 F  
HETATM   11  C   UNL     1     -11.699  12.785  68.912  1.00  0.00    -0.326 C  
HETATM   12  C   UNL     1     -11.598  11.648  69.589  1.00  0.00    -0.330 C  
ENDROOT
BRANCH   8  13
HETATM   13  C   UNL     1     -11.683  14.033  66.742  1.00  0.00    -0.407 C  
HETATM   14  C   UNL     1     -10.639  14.318  65.655  1.00  0.00    -0.319 C  
HETATM   15  S   UNL     1      -9.365  15.271  66.491  1.00  0.00    -0.302 SA 
HETATM   16  C   UNL     1     -10.574  15.942  67.651  1.00  0.00    -0.307 C  
HETATM   17  O   UNL     1     -11.770  15.150  67.645  1.00  0.00    -0.329 OA 
BRANCH  16  18
HETATM   18  C   UNL     1     -10.063  16.044  69.096  1.00  0.00    -0.242 C  
HETATM   19  O   UNL     1      -8.720  15.571  69.223  1.00  0.00    -0.231 OA 
HETATM   20  H   UNL     1      -8.404  15.634  70.117  1.00  0.00     0.000 HD 
ENDBRANCH  16  18
ENDBRANCH   8  13
TORSDOF 2
ENDMDL
MODEL       80
REMARK 921   NORMALIZED FREE ENERGY PREDICTED BY IDOCK:   -4.02 KCAL/MOL
REMARK 922        TOTAL FREE ENERGY PREDICTED BY IDOCK:   -4.68 KCAL/MOL
REMARK 923 INTER-LIGAND FREE ENERGY PREDICTED BY IDOCK:   -4.69 KCAL/MOL
REMARK 924 INTRA-LIGAND FREE ENERGY PREDICTED BY IDOCK:    0.01 KCAL/MOL
REMARK 927      BINDING AFFINITY PREDICTED BY RF-SCORE:    0.00 PKD
ROOT
HETATM    1  N   UNL     1      -9.638   4.207  68.487  1.00  0.00    -0.148 NA 
HETATM    2  H2  UNL     1      -9.049   3.441  68.815  1.00  0.00     0.000 HD 
HETATM    3  C   UNL     1     -10.114   5.155  69.353  1.00  0.00    -0.234 C  
HETATM    4  H1  UNL     1      -9.892   4.293  67.503  1.00  0.00     0.000 HD 
HETATM    5  N   UNL     1      -9.790   5.045  70.607  1.00  0.00    -0.196 N  
HETATM    6  H   UNL     1      -9.219   4.258  70.915  1.00  0.00     0.000 HD 
HETATM    7  C   UNL     1     -10.213   5.985  71.521  1.00  0.00    -0.204 C  
HETATM    8  N   UNL     1     -10.957   7.094  71.062  1.00  0.00    -0.247 N  
HETATM    9  O   UNL     1      -9.944   5.852  72.712  1.00  0.00    -0.176 OA 
HETATM   10  F   UNL     1     -11.313   6.262  67.562  1.00  0.00    -0.398 F  
HETATM   11  C   UNL     1     -11.326   7.187  69.732  1.00  0.00    -0.123 C  
HETATM   12  C   UNL     1     -10.962   6.257  68.859  1.00  0.00    -0.368 C  
ENDROOT
BRANCH   8  13
HETATM   13  C   UNL     1     -11.298   8.119  72.055  1.00  0.00    -0.316 C  
HETATM   14  C   UNL     1     -12.774   8.306  72.427  1.00  0.00    -0.242 C  
HETATM   15  S   UNL     1     -13.380   9.536  71.266  1.00  0.00    -0.245 SA 
HETATM   16  C   UNL     1     -11.740  10.279  71.137  1.00  0.00    -0.341 C  
HETATM   17  O   UNL     1     -10.739   9.372  71.620  1.00  0.00    -0.356 OA 
BRANCH  16  18
HETATM   18  C   UNL     1     -11.361  10.711  69.713  1.00  0.00    -0.301 C  
HETATM   19  O   UNL     1     -12.464  10.609  68.810  1.00  0.00    -0.795 OA 
HETATM   20  H   UNL     1     -12.230  10.876  67.930  1.00  0.00     0.000 HD 
ENDBRANCH  16  18
ENDBRANCH   8  13
TORSDOF 2
ENDMDL
MODEL       81
REMARK 921   NORMALIZED FREE ENERGY PREDICTED BY IDOCK:   -4.02 KCAL/MOL
REMARK 922        TOTAL FREE ENERGY PREDICTED BY IDOCK:   -4.68 KCAL/MOL
REMARK 923 INTER-LIGAND FREE ENERGY PREDICTED BY IDOCK:   -4.50 KCAL/MOL
REMARK 924 INTRA-LIGAND FREE ENERGY PREDICTED BY IDOCK:   -0.18 KCAL/MOL
REMARK 927      BINDING AFFINITY PREDICTED BY RF-SCORE:    0.00 PKD
ROOT
HETATM    1  N   UNL     1     -10.101  10.062  66.669  1.00  0.00    -0.217 NA 
HETATM    2  H2  UNL     1     -10.911   9.502  66.404  1.00  0.00     0.000 HD 
HETATM    3  C   UNL     1     -10.164  11.430  66.697  1.00  0.00    -0.222 C  
HETATM    4  H1  UNL     1      -9.216   9.624  66.924  1.00  0.00     0.000 HD 
HETATM    5  N   UNL     1     -11.292  11.989  66.373  1.00  0.00    -0.341 N  
HETATM    6  H   UNL     1     -12.081  11.409  66.089  1.00  0.00     0.000 HD 
HETATM    7  C   UNL     1     -11.426  13.360  66.411  1.00  0.00    -0.329 C  
HETATM    8  N   UNL     1     -10.337  14.138  66.858  1.00  0.00    -0.267 N  
HETATM    9  O   UNL     1     -12.479  13.886  66.059  1.00  0.00    -0.463 OA 
HETATM   10  F   UNL     1      -7.831  11.577  67.336  1.00  0.00    -0.117 F  
HETATM   11  C   UNL     1      -9.130  13.539  67.169  1.00  0.00    -0.232 C  
HETATM   12  C   UNL     1      -8.982  12.223  67.085  1.00  0.00    -0.192 C  
ENDROOT
BRANCH   8  13
HETATM   13  C   UNL     1     -10.561  15.584  66.977  1.00  0.00    -0.311 C  
HETATM   14  C   UNL     1      -9.345  16.515  66.897  1.00  0.00    -0.232 C  
HETATM   15  S   UNL     1      -8.788  16.679  68.597  1.00  0.00    -0.254 SA 
HETATM   16  C   UNL     1     -10.466  16.419  69.212  1.00  0.00    -0.303 C  
HETATM   17  O   UNL     1     -11.287  15.828  68.195  1.00  0.00    -0.350 OA 
BRANCH  16  18
HETATM   18  C   UNL     1     -10.540  15.542  70.471  1.00  0.00    -0.216 C  
HETATM   19  O   UNL     1     -11.059  14.241  70.188  1.00  0.00    -0.457 OA 
HETATM   20  H   UNL     1     -11.105  13.699  70.966  1.00  0.00     0.000 HD 
ENDBRANCH  16  18
ENDBRANCH   8  13
TORSDOF 2
ENDMDL
MODEL       82
REMARK 921   NORMALIZED FREE ENERGY PREDICTED BY IDOCK:   -4.02 KCAL/MOL
REMARK 922        TOTAL FREE ENERGY PREDICTED BY IDOCK:   -4.68 KCAL/MOL
REMARK 923 INTER-LIGAND FREE ENERGY PREDICTED BY IDOCK:   -4.59 KCAL/MOL
REMARK 924 INTRA-LIGAND FREE ENERGY PREDICTED BY IDOCK:   -0.09 KCAL/MOL
REMARK 927      BINDING AFFINITY PREDICTED BY RF-SCORE:    0.00 PKD
ROOT
HETATM    1  N   UNL     1      -6.724  11.190  70.198  1.00  0.00    -0.423 NA 
HETATM    2  H2  UNL     1      -6.804  10.691  71.084  1.00  0.00     0.000 HD 
HETATM    3  C   UNL     1      -7.737  11.167  69.277  1.00  0.00    -0.024 C  
HETATM    4  H1  UNL     1      -5.886  11.724  69.967  1.00  0.00     0.000 HD 
HETATM    5  N   UNL     1      -8.804  10.487  69.571  1.00  0.00    -0.374 N  
HETATM    6  H   UNL     1      -8.854   9.977  70.452  1.00  0.00     0.000 HD 
HETATM    7  C   UNL     1      -9.871  10.451  68.697  1.00  0.00    -0.177 C  
HETATM    8  N   UNL     1      -9.800  11.208  67.507  1.00  0.00    -0.176 N  
HETATM    9  O   UNL     1     -10.857   9.769  68.958  1.00  0.00    -0.219 OA 
HETATM   10  F   UNL     1      -6.439  12.518  67.739  1.00  0.00    -0.069 F  
HETATM   11  C   UNL     1      -8.648  11.902  67.186  1.00  0.00    -0.172 C  
HETATM   12  C   UNL     1      -7.601  11.898  68.002  1.00  0.00    -0.122 C  
ENDROOT
BRANCH   8  13
HETATM   13  C   UNL     1     -10.998  11.218  66.659  1.00  0.00    -0.268 C  
HETATM   14  C   UNL     1     -10.819  11.469  65.156  1.00  0.00    -0.265 C  
HETATM   15  S   UNL     1     -10.940  13.253  64.978  1.00  0.00    -0.329 SA 
HETATM   16  C   UNL     1     -12.022  13.362  66.420  1.00  0.00    -0.406 C  
HETATM   17  O   UNL     1     -11.931  12.167  67.208  1.00  0.00    -0.573 OA 
BRANCH  16  18
HETATM   18  C   UNL     1     -11.734  14.569  67.326  1.00  0.00    -0.406 C  
HETATM   19  O   UNL     1     -12.514  14.536  68.524  1.00  0.00    -0.589 OA 
HETATM   20  H   UNL     1     -12.336  15.282  69.085  1.00  0.00     0.000 HD 
ENDBRANCH  16  18
ENDBRANCH   8  13
TORSDOF 2
ENDMDL
MODEL       83
REMARK 921   NORMALIZED FREE ENERGY PREDICTED BY IDOCK:   -3.99 KCAL/MOL
REMARK 922        TOTAL FREE ENERGY PREDICTED BY IDOCK:   -4.66 KCAL/MOL
REMARK 923 INTER-LIGAND FREE ENERGY PREDICTED BY IDOCK:   -4.61 KCAL/MOL
REMARK 924 INTRA-LIGAND FREE ENERGY PREDICTED BY IDOCK:   -0.04 KCAL/MOL
REMARK 927      BINDING AFFINITY PREDICTED BY RF-SCORE:    0.00 PKD
ROOT
HETATM    1  N   UNL     1     -11.904  12.132  66.798  1.00  0.00    -0.606 NA 
HETATM    2  H2  UNL     1     -12.612  12.865  66.808  1.00  0.00     0.000 HD 
HETATM    3  C   UNL     1     -11.591  11.433  67.934  1.00  0.00    -0.266 C  
HETATM    4  H1  UNL     1     -11.403  11.892  65.942  1.00  0.00     0.000 HD 
HETATM    5  N   UNL     1     -12.229  11.737  69.024  1.00  0.00    -0.188 N  
HETATM    6  H   UNL     1     -12.917  12.490  69.016  1.00  0.00     0.000 HD 
HETATM    7  C   UNL     1     -11.981  11.049  70.193  1.00  0.00    -0.360 C  
HETATM    8  N   UNL     1     -11.063   9.976  70.167  1.00  0.00    -0.288 N  
HETATM    9  O   UNL     1     -12.551  11.371  71.230  1.00  0.00    -0.394 OA 
HETATM   10  F   UNL     1      -9.898  10.166  66.751  1.00  0.00    -0.198 F  
HETATM   11  C   UNL     1     -10.364   9.679  69.012  1.00  0.00    -0.205 C  
HETATM   12  C   UNL     1     -10.565  10.373  67.898  1.00  0.00    -0.232 C  
ENDROOT
BRANCH   8  13
HETATM   13  C   UNL     1     -10.908   9.209  71.410  1.00  0.00    -0.349 C  
HETATM   14  C   UNL     1      -9.488   8.952  71.929  1.00  0.00    -0.230 C  
HETATM   15  S   UNL     1      -9.001   7.400  71.165  1.00  0.00    -0.143 SA 
HETATM   16  C   UNL     1     -10.719   6.849  71.098  1.00  0.00    -0.225 C  
HETATM   17  O   UNL     1     -11.610   7.962  71.260  1.00  0.00    -0.267 OA 
BRANCH  16  18
HETATM   18  C   UNL     1     -11.089   6.111  69.803  1.00  0.00    -0.416 C  
HETATM   19  O   UNL     1     -10.393   4.869  69.678  1.00  0.00    -0.243 OA 
HETATM   20  H   UNL     1     -10.621   4.412  68.877  1.00  0.00     0.000 HD 
ENDBRANCH  16  18
ENDBRANCH   8  13
TORSDOF 2
ENDMDL
MODEL       84
REMARK 921   NORMALIZED FREE ENERGY PREDICTED BY IDOCK:   -3.97 KCAL/MOL
REMARK 922        TOTAL FREE ENERGY PREDICTED BY IDOCK:   -4.63 KCAL/MOL
REMARK 923 INTER-LIGAND FREE ENERGY PREDICTED BY IDOCK:   -4.54 KCAL/MOL
REMARK 924 INTRA-LIGAND FREE ENERGY PREDICTED BY IDOCK:   -0.09 KCAL/MOL
REMARK 927      BINDING AFFINITY PREDICTED BY RF-SCORE:    0.00 PKD
ROOT
HETATM    1  N   UNL     1     -12.149  15.602  72.659  1.00  0.00    -0.415 NA 
HETATM    2  H2  UNL     1     -12.040  16.429  73.246  1.00  0.00     0.000 HD 
HETATM    3  C   UNL     1     -11.747  15.604  71.350  1.00  0.00    -0.428 C  
HETATM    4  H1  UNL     1     -12.560  14.744  73.027  1.00  0.00     0.000 HD 
HETATM    5  N   UNL     1     -11.222  16.697  70.882  1.00  0.00    -0.375 N  
HETATM    6  H   UNL     1     -11.145  17.519  71.481  1.00  0.00     0.000 HD 
HETATM    7  C   UNL     1     -10.770  16.752  69.581  1.00  0.00    -0.229 C  
HETATM    8  N   UNL     1     -10.839  15.586  68.788  1.00  0.00    -0.244 N  
HETATM    9  O   UNL     1     -10.319  17.801  69.129  1.00  0.00    -0.350 OA 
HETATM   10  F   UNL     1     -12.526  13.329  71.052  1.00  0.00    -0.404 F  
HETATM   11  C   UNL     1     -11.428  14.437  69.282  1.00  0.00    -0.285 C  
HETATM   12  C   UNL     1     -11.909  14.396  70.518  1.00  0.00    -0.299 C  
ENDROOT
BRANCH   8  13
HETATM   13  C   UNL     1     -10.253  15.665  67.444  1.00  0.00    -0.264 C  
HETATM   14  C   UNL     1     -10.975  14.947  66.296  1.00  0.00    -0.338 C  
HETATM   15  S   UNL     1     -10.262  13.298  66.275  1.00  0.00    -0.301 SA 
HETATM   16  C   UNL     1      -8.702  13.922  66.937  1.00  0.00    -0.158 C  
HETATM   17  O   UNL     1      -8.887  15.219  67.521  1.00  0.00    -0.170 OA 
BRANCH  16  18
HETATM   18  C   UNL     1      -8.056  13.002  67.984  1.00  0.00    -0.157 C  
HETATM   19  O   UNL     1      -7.597  11.776  67.409  1.00  0.00    -0.125 OA 
HETATM   20  H   UNL     1      -7.197  11.208  68.056  1.00  0.00     0.000 HD 
ENDBRANCH  16  18
ENDBRANCH   8  13
TORSDOF 2
ENDMDL
MODEL       85
REMARK 921   NORMALIZED FREE ENERGY PREDICTED BY IDOCK:   -3.97 KCAL/MOL
REMARK 922        TOTAL FREE ENERGY PREDICTED BY IDOCK:   -4.63 KCAL/MOL
REMARK 923 INTER-LIGAND FREE ENERGY PREDICTED BY IDOCK:   -5.08 KCAL/MOL
REMARK 924 INTRA-LIGAND FREE ENERGY PREDICTED BY IDOCK:    0.45 KCAL/MOL
REMARK 927      BINDING AFFINITY PREDICTED BY RF-SCORE:    0.00 PKD
ROOT
HETATM    1  N   UNL     1     -12.029  15.765  63.719  1.00  0.00    -1.165 NA 
HETATM    2  H2  UNL     1     -12.164  16.500  63.026  1.00  0.00     0.000 HD 
HETATM    3  C   UNL     1     -11.349  16.005  64.884  1.00  0.00    -0.229 C  
HETATM    4  H1  UNL     1     -12.396  14.825  63.570  1.00  0.00     0.000 HD 
HETATM    5  N   UNL     1     -10.881  17.203  65.073  1.00  0.00    -0.126 N  
HETATM    6  H   UNL     1     -11.008  17.916  64.356  1.00  0.00     0.000 HD 
HETATM    7  C   UNL     1     -10.214  17.514  66.239  1.00  0.00    -0.355 C  
HETATM    8  N   UNL     1     -10.098  16.525  67.240  1.00  0.00    -0.267 N  
HETATM    9  O   UNL     1      -9.734  18.633  66.394  1.00  0.00    -0.329 OA 
HETATM   10  F   UNL     1     -11.615  13.698  65.576  1.00  0.00    -0.311 F  
HETATM   11  C   UNL     1     -10.568  15.245  67.017  1.00  0.00    -0.306 C  
HETATM   12  C   UNL     1     -11.167  14.928  65.876  1.00  0.00    -0.328 C  
ENDROOT
BRANCH   8  13
HETATM   13  C   UNL     1      -9.469  16.934  68.502  1.00  0.00    -0.266 C  
HETATM   14  C   UNL     1      -8.290  17.913  68.441  1.00  0.00    -0.304 C  
HETATM   15  S   UNL     1      -6.838  16.864  68.307  1.00  0.00    -0.170 SA 
HETATM   16  C   UNL     1      -7.666  15.536  69.207  1.00  0.00    -0.223 C  
HETATM   17  O   UNL     1      -9.085  15.747  69.219  1.00  0.00    -0.238 OA 
BRANCH  16  18
HETATM   18  C   UNL     1      -7.385  14.133  68.649  1.00  0.00    -0.126 C  
HETATM   19  O   UNL     1      -8.413  13.202  68.996  1.00  0.00    -0.340 OA 
HETATM   20  H   UNL     1      -8.239  12.335  68.651  1.00  0.00     0.000 HD 
ENDBRANCH  16  18
ENDBRANCH   8  13
TORSDOF 2
ENDMDL
MODEL       86
REMARK 921   NORMALIZED FREE ENERGY PREDICTED BY IDOCK:   -3.95 KCAL/MOL
REMARK 922        TOTAL FREE ENERGY PREDICTED BY IDOCK:   -4.60 KCAL/MOL
REMARK 923 INTER-LIGAND FREE ENERGY PREDICTED BY IDOCK:   -4.45 KCAL/MOL
REMARK 924 INTRA-LIGAND FREE ENERGY PREDICTED BY IDOCK:   -0.16 KCAL/MOL
REMARK 927      BINDING AFFINITY PREDICTED BY RF-SCORE:    0.00 PKD
ROOT
HETATM    1  N   UNL     1      -5.150  21.306  64.594  1.00  0.00    -0.191 NA 
HETATM    2  H2  UNL     1      -4.782  22.234  64.802  1.00  0.00     0.000 HD 
HETATM    3  C   UNL     1      -5.704  20.527  65.575  1.00  0.00    -0.197 C  
HETATM    4  H1  UNL     1      -5.118  20.926  63.648  1.00  0.00     0.000 HD 
HETATM    5  N   UNL     1      -5.745  21.012  66.780  1.00  0.00    -0.211 N  
HETATM    6  H   UNL     1      -5.350  21.933  66.969  1.00  0.00     0.000 HD 
HETATM    7  C   UNL     1      -6.318  20.288  67.804  1.00  0.00    -0.237 C  
HETATM    8  N   UNL     1      -6.905  19.039  67.507  1.00  0.00    -0.204 N  
HETATM    9  O   UNL     1      -6.312  20.730  68.949  1.00  0.00    -0.280 OA 
HETATM   10  F   UNL     1      -6.090  18.727  63.999  1.00  0.00    -0.276 F  
HETATM   11  C   UNL     1      -6.829  18.515  66.230  1.00  0.00    -0.230 C  
HETATM   12  C   UNL     1      -6.233  19.188  65.253  1.00  0.00    -0.274 C  
ENDROOT
BRANCH   8  13
HETATM   13  C   UNL     1      -7.591  18.353  68.608  1.00  0.00    -0.302 C  
HETATM   14  C   UNL     1      -7.760  16.831  68.521  1.00  0.00    -0.223 C  
HETATM   15  S   UNL     1      -9.332  16.598  67.682  1.00  0.00    -0.225 SA 
HETATM   16  C   UNL     1      -9.956  18.162  68.334  1.00  0.00    -0.380 C  
HETATM   17  O   UNL     1      -8.873  18.979  68.800  1.00  0.00    -0.349 OA 
BRANCH  16  18
HETATM   18  C   UNL     1     -10.782  18.973  67.326  1.00  0.00    -0.470 C  
HETATM   19  O   UNL     1     -10.288  20.306  67.178  1.00  0.00    -0.399 OA 
HETATM   20  H   UNL     1     -10.799  20.808  66.554  1.00  0.00     0.000 HD 
ENDBRANCH  16  18
ENDBRANCH   8  13
TORSDOF 2
ENDMDL
MODEL       87
REMARK 921   NORMALIZED FREE ENERGY PREDICTED BY IDOCK:   -3.91 KCAL/MOL
REMARK 922        TOTAL FREE ENERGY PREDICTED BY IDOCK:   -4.56 KCAL/MOL
REMARK 923 INTER-LIGAND FREE ENERGY PREDICTED BY IDOCK:   -4.40 KCAL/MOL
REMARK 924 INTRA-LIGAND FREE ENERGY PREDICTED BY IDOCK:   -0.16 KCAL/MOL
REMARK 927      BINDING AFFINITY PREDICTED BY RF-SCORE:    0.00 PKD
ROOT
HETATM    1  N   UNL     1     -12.338  14.252  68.879  1.00  0.00    -0.570 NA 
HETATM    2  H2  UNL     1     -12.447  15.019  68.216  1.00  0.00     0.000 HD 
HETATM    3  C   UNL     1     -11.864  13.031  68.479  1.00  0.00    -0.325 C  
HETATM    4  H1  UNL     1     -12.578  14.367  69.864  1.00  0.00     0.000 HD 
HETATM    5  N   UNL     1     -11.558  12.885  67.224  1.00  0.00    -0.339 N  
HETATM    6  H   UNL     1     -11.697  13.659  66.575  1.00  0.00     0.000 HD 
HETATM    7  C   UNL     1     -11.047  11.689  66.766  1.00  0.00    -0.309 C  
HETATM    8  N   UNL     1     -10.812  10.650  67.693  1.00  0.00    -0.270 N  
HETATM    9  O   UNL     1     -10.804  11.540  65.572  1.00  0.00    -0.282 OA 
HETATM   10  F   UNL     1     -12.115  12.140  70.718  1.00  0.00    -0.437 F  
HETATM   11  C   UNL     1     -11.171  10.802  69.020  1.00  0.00    -0.262 C  
HETATM   12  C   UNL     1     -11.710  11.935  69.454  1.00  0.00    -0.339 C  
ENDROOT
BRANCH   8  13
HETATM   13  C   UNL     1     -10.174   9.434  67.176  1.00  0.00    -0.254 C  
HETATM   14  C   UNL     1     -10.584   8.086  67.783  1.00  0.00    -0.170 C  
HETATM   15  S   UNL     1      -9.446   7.843  69.152  1.00  0.00    -0.155 SA 
HETATM   16  C   UNL     1      -8.170   8.808  68.315  1.00  0.00    -0.118 C  
HETATM   17  O   UNL     1      -8.747   9.601  67.267  1.00  0.00    -0.131 OA 
BRANCH  16  18
HETATM   18  C   UNL     1      -7.375   9.734  69.247  1.00  0.00    -0.082 C  
HETATM   19  O   UNL     1      -8.091  10.027  70.449  1.00  0.00    -0.354 OA 
HETATM   20  H   UNL     1      -7.599  10.599  71.026  1.00  0.00     0.000 HD 
ENDBRANCH  16  18
ENDBRANCH   8  13
TORSDOF 2
ENDMDL
MODEL       88
REMARK 921   NORMALIZED FREE ENERGY PREDICTED BY IDOCK:   -3.89 KCAL/MOL
REMARK 922        TOTAL FREE ENERGY PREDICTED BY IDOCK:   -4.53 KCAL/MOL
REMARK 923 INTER-LIGAND FREE ENERGY PREDICTED BY IDOCK:   -4.43 KCAL/MOL
REMARK 924 INTRA-LIGAND FREE ENERGY PREDICTED BY IDOCK:   -0.11 KCAL/MOL
REMARK 927      BINDING AFFINITY PREDICTED BY RF-SCORE:    0.00 PKD
ROOT
HETATM    1  N   UNL     1     -10.785   8.272  67.315  1.00  0.00    -0.471 NA 
HETATM    2  H2  UNL     1     -11.462   8.910  66.895  1.00  0.00     0.000 HD 
HETATM    3  C   UNL     1     -10.522   8.300  68.658  1.00  0.00    -0.168 C  
HETATM    4  H1  UNL     1     -10.282   7.590  66.748  1.00  0.00     0.000 HD 
HETATM    5  N   UNL     1     -11.165   9.169  69.380  1.00  0.00    -0.441 N  
HETATM    6  H   UNL     1     -11.819   9.813  68.936  1.00  0.00     0.000 HD 
HETATM    7  C   UNL     1     -10.966   9.226  70.744  1.00  0.00    -0.284 C  
HETATM    8  N   UNL     1     -10.095   8.290  71.343  1.00  0.00    -0.190 N  
HETATM    9  O   UNL     1     -11.539  10.080  71.414  1.00  0.00    -0.368 OA 
HETATM   10  F   UNL     1      -8.866   6.548  68.425  1.00  0.00    -0.124 F  
HETATM   11  C   UNL     1      -9.390   7.391  70.564  1.00  0.00    -0.157 C  
HETATM   12  C   UNL     1      -9.542   7.367  69.246  1.00  0.00    -0.154 C  
ENDROOT
BRANCH   8  13
HETATM   13  C   UNL     1      -9.994   8.325  72.807  1.00  0.00    -0.263 C  
HETATM   14  C   UNL     1      -8.620   8.080  73.444  1.00  0.00    -0.246 C  
HETATM   15  S   UNL     1      -8.550   6.303  73.697  1.00  0.00    -0.123 SA 
HETATM   16  C   UNL     1     -10.345   6.218  73.873  1.00  0.00    -0.306 C  
HETATM   17  O   UNL     1     -10.958   7.404  73.348  1.00  0.00    -0.378 OA 
BRANCH  16  18
HETATM   18  C   UNL     1     -10.982   4.996  73.195  1.00  0.00    -0.309 C  
HETATM   19  O   UNL     1     -12.392   5.155  73.020  1.00  0.00    -0.444 OA 
HETATM   20  H   UNL     1     -12.786   4.400  72.601  1.00  0.00     0.000 HD 
ENDBRANCH  16  18
ENDBRANCH   8  13
TORSDOF 2
ENDMDL
MODEL       89
REMARK 921   NORMALIZED FREE ENERGY PREDICTED BY IDOCK:   -3.88 KCAL/MOL
REMARK 922        TOTAL FREE ENERGY PREDICTED BY IDOCK:   -4.53 KCAL/MOL
REMARK 923 INTER-LIGAND FREE ENERGY PREDICTED BY IDOCK:   -4.65 KCAL/MOL
REMARK 924 INTRA-LIGAND FREE ENERGY PREDICTED BY IDOCK:    0.12 KCAL/MOL
REMARK 927      BINDING AFFINITY PREDICTED BY RF-SCORE:    0.00 PKD
ROOT
HETATM    1  N   UNL     1     -10.744  10.500  65.033  1.00  0.00    -0.049 NA 
HETATM    2  H2  UNL     1     -11.024   9.759  65.676  1.00  0.00     0.000 HD 
HETATM    3  C   UNL     1     -10.881  11.820  65.371  1.00  0.00    -0.295 C  
HETATM    4  H1  UNL     1     -10.351  10.284  64.117  1.00  0.00     0.000 HD 
HETATM    5  N   UNL     1     -11.381  12.096  66.538  1.00  0.00    -0.332 N  
HETATM    6  H   UNL     1     -11.676  11.339  67.155  1.00  0.00     0.000 HD 
HETATM    7  C   UNL     1     -11.516  13.406  66.948  1.00  0.00    -0.342 C  
HETATM    8  N   UNL     1     -11.052  14.434  66.099  1.00  0.00    -0.323 N  
HETATM    9  O   UNL     1     -12.033  13.662  68.031  1.00  0.00    -0.360 OA 
HETATM   10  F   UNL     1     -10.027  12.515  63.213  1.00  0.00    -0.361 F  
HETATM   11  C   UNL     1     -10.552  14.135  64.845  1.00  0.00    -0.430 C  
HETATM   12  C   UNL     1     -10.467  12.878  64.429  1.00  0.00    -0.396 C  
ENDROOT
BRANCH   8  13
HETATM   13  C   UNL     1     -11.124  15.804  66.621  1.00  0.00    -0.099 C  
HETATM   14  C   UNL     1     -10.368  16.907  65.868  1.00  0.00    -0.315 C  
HETATM   15  S   UNL     1      -8.738  16.934  66.626  1.00  0.00    -0.269 SA 
HETATM   16  C   UNL     1      -9.416  16.354  68.196  1.00  0.00    -0.213 C  
HETATM   17  O   UNL     1     -10.717  15.783  68.001  1.00  0.00    -0.276 OA 
BRANCH  16  18
HETATM   18  C   UNL     1      -8.532  15.324  68.914  1.00  0.00    -0.202 C  
HETATM   19  O   UNL     1      -9.261  14.145  69.264  1.00  0.00    -0.386 OA 
HETATM   20  H   UNL     1      -8.714  13.508  69.709  1.00  0.00     0.000 HD 
ENDBRANCH  16  18
ENDBRANCH   8  13
TORSDOF 2
ENDMDL
MODEL       90
REMARK 921   NORMALIZED FREE ENERGY PREDICTED BY IDOCK:   -3.88 KCAL/MOL
REMARK 922        TOTAL FREE ENERGY PREDICTED BY IDOCK:   -4.53 KCAL/MOL
REMARK 923 INTER-LIGAND FREE ENERGY PREDICTED BY IDOCK:   -4.79 KCAL/MOL
REMARK 924 INTRA-LIGAND FREE ENERGY PREDICTED BY IDOCK:    0.26 KCAL/MOL
REMARK 927      BINDING AFFINITY PREDICTED BY RF-SCORE:    0.00 PKD
ROOT
HETATM    1  N   UNL     1      -5.800  12.745  68.907  1.00  0.00    -0.068 NA 
HETATM    2  H2  UNL     1      -5.551  11.924  69.458  1.00  0.00     0.000 HD 
HETATM    3  C   UNL     1      -7.096  12.983  68.535  1.00  0.00    -0.105 C  
HETATM    4  H1  UNL     1      -5.092  13.419  68.615  1.00  0.00     0.000 HD 
HETATM    5  N   UNL     1      -7.998  12.124  68.907  1.00  0.00    -0.345 N  
HETATM    6  H   UNL     1      -7.723  11.298  69.438  1.00  0.00     0.000 HD 
HETATM    7  C   UNL     1      -9.325  12.324  68.589  1.00  0.00    -0.009 C  
HETATM    8  N   UNL     1      -9.688  13.502  67.901  1.00  0.00    -0.218 N  
HETATM    9  O   UNL     1     -10.166  11.487  68.903  1.00  0.00    -0.206 OA 
HETATM   10  F   UNL     1      -6.439  14.981  67.331  1.00  0.00    -0.178 F  
HETATM   11  C   UNL     1      -8.720  14.394  67.479  1.00  0.00    -0.197 C  
HETATM   12  C   UNL     1      -7.436  14.179  67.740  1.00  0.00    -0.165 C  
ENDROOT
BRANCH   8  13
HETATM   13  C   UNL     1     -11.122  13.719  67.674  1.00  0.00    -0.273 C  
HETATM   14  C   UNL     1     -11.886  12.691  66.829  1.00  0.00    -0.370 C  
HETATM   15  S   UNL     1     -11.747  13.299  65.144  1.00  0.00    -0.349 SA 
HETATM   16  C   UNL     1     -11.632  15.004  65.727  1.00  0.00    -0.171 C  
HETATM   17  O   UNL     1     -11.297  15.036  67.121  1.00  0.00    -0.338 OA 
BRANCH  16  18
HETATM   18  C   UNL     1     -10.614  15.860  64.959  1.00  0.00    -0.346 C  
HETATM   19  O   UNL     1     -11.243  16.697  63.987  1.00  0.00    -1.449 OA 
HETATM   20  H   UNL     1     -10.614  17.226  63.512  1.00  0.00     0.000 HD 
ENDBRANCH  16  18
ENDBRANCH   8  13
TORSDOF 2
ENDMDL
MODEL       91
REMARK 921   NORMALIZED FREE ENERGY PREDICTED BY IDOCK:   -3.88 KCAL/MOL
REMARK 922        TOTAL FREE ENERGY PREDICTED BY IDOCK:   -4.53 KCAL/MOL
REMARK 923 INTER-LIGAND FREE ENERGY PREDICTED BY IDOCK:   -4.51 KCAL/MOL
REMARK 924 INTRA-LIGAND FREE ENERGY PREDICTED BY IDOCK:   -0.02 KCAL/MOL
REMARK 927      BINDING AFFINITY PREDICTED BY RF-SCORE:    0.00 PKD
ROOT
HETATM    1  N   UNL     1      -8.028   8.333  67.073  1.00  0.00    -0.100 NA 
HETATM    2  H2  UNL     1      -7.041   8.110  67.203  1.00  0.00     0.000 HD 
HETATM    3  C   UNL     1      -8.463   9.631  67.050  1.00  0.00    -0.124 C  
HETATM    4  H1  UNL     1      -8.725   7.598  66.956  1.00  0.00     0.000 HD 
HETATM    5  N   UNL     1      -7.575  10.568  67.199  1.00  0.00    -0.095 N  
HETATM    6  H   UNL     1      -6.597  10.321  67.350  1.00  0.00     0.000 HD 
HETATM    7  C   UNL     1      -7.947  11.895  67.155  1.00  0.00    -0.172 C  
HETATM    8  N   UNL     1      -9.297  12.214  66.892  1.00  0.00    -0.197 N  
HETATM    9  O   UNL     1      -7.113  12.776  67.343  1.00  0.00    -0.148 OA 
HETATM   10  F   UNL     1     -10.761   8.911  66.785  1.00  0.00    -0.327 F  
HETATM   11  C   UNL     1     -10.242  11.212  66.768  1.00  0.00    -0.232 C  
HETATM   12  C   UNL     1      -9.895   9.934  66.860  1.00  0.00    -0.199 C  
ENDROOT
BRANCH   8  13
HETATM   13  C   UNL     1      -9.626  13.638  66.753  1.00  0.00    -0.275 C  
HETATM   14  C   UNL     1     -10.739  14.214  67.638  1.00  0.00    -0.257 C  
HETATM   15  S   UNL     1     -12.240  13.995  66.674  1.00  0.00    -0.361 SA 
HETATM   16  C   UNL     1     -11.311  14.111  65.130  1.00  0.00    -0.336 C  
HETATM   17  O   UNL     1      -9.913  13.902  65.368  1.00  0.00    -0.306 OA 
BRANCH  16  18
HETATM   18  C   UNL     1     -11.776  13.126  64.047  1.00  0.00    -0.439 C  
HETATM   19  O   UNL     1     -12.179  13.797  62.851  1.00  0.00    -0.943 OA 
HETATM   20  H   UNL     1     -12.466  13.188  62.181  1.00  0.00     0.000 HD 
ENDBRANCH  16  18
ENDBRANCH   8  13
TORSDOF 2
ENDMDL
MODEL       92
REMARK 921   NORMALIZED FREE ENERGY PREDICTED BY IDOCK:   -3.88 KCAL/MOL
REMARK 922        TOTAL FREE ENERGY PREDICTED BY IDOCK:   -4.52 KCAL/MOL
REMARK 923 INTER-LIGAND FREE ENERGY PREDICTED BY IDOCK:   -4.96 KCAL/MOL
REMARK 924 INTRA-LIGAND FREE ENERGY PREDICTED BY IDOCK:    0.44 KCAL/MOL
REMARK 927      BINDING AFFINITY PREDICTED BY RF-SCORE:    0.00 PKD
ROOT
HETATM    1  N   UNL     1     -13.627  13.653  72.806  1.00  0.00    -0.686 NA 
HETATM    2  H2  UNL     1     -13.834  12.812  73.345  1.00  0.00     0.000 HD 
HETATM    3  C   UNL     1     -13.015  13.579  71.583  1.00  0.00    -0.359 C  
HETATM    4  H1  UNL     1     -13.869  14.579  73.160  1.00  0.00     0.000 HD 
HETATM    5  N   UNL     1     -12.707  12.399  71.133  1.00  0.00    -0.313 N  
HETATM    6  H   UNL     1     -12.903  11.574  71.699  1.00  0.00     0.000 HD 
HETATM    7  C   UNL     1     -12.117  12.258  69.895  1.00  0.00    -0.249 C  
HETATM    8  N   UNL     1     -11.906  13.410  69.107  1.00  0.00    -0.322 N  
HETATM    9  O   UNL     1     -11.786  11.146  69.494  1.00  0.00    -0.273 OA 
HETATM   10  F   UNL     1     -13.009  15.994  71.382  1.00  0.00    -0.512 F  
HETATM   11  C   UNL     1     -12.205  14.664  69.607  1.00  0.00    -0.283 C  
HETATM   12  C   UNL     1     -12.727  14.808  70.819  1.00  0.00    -0.362 C  
ENDROOT
BRANCH   8  13
HETATM   13  C   UNL     1     -11.369  13.199  67.757  1.00  0.00    -0.290 C  
HETATM   14  C   UNL     1     -10.231  12.186  67.581  1.00  0.00    -0.197 C  
HETATM   15  S   UNL     1      -8.730  13.151  67.793  1.00  0.00    -0.201 SA 
HETATM   16  C   UNL     1      -9.552  14.637  67.179  1.00  0.00    -0.233 C  
HETATM   17  O   UNL     1     -10.977  14.476  67.223  1.00  0.00    -0.291 OA 
BRANCH  16  18
HETATM   18  C   UNL     1      -9.180  15.917  67.942  1.00  0.00    -0.198 C  
HETATM   19  O   UNL     1      -8.760  16.961  67.061  1.00  0.00    -0.195 OA 
HETATM   20  H   UNL     1      -8.530  17.753  67.533  1.00  0.00     0.000 HD 
ENDBRANCH  16  18
ENDBRANCH   8  13
TORSDOF 2
ENDMDL
MODEL       93
REMARK 921   NORMALIZED FREE ENERGY PREDICTED BY IDOCK:   -3.86 KCAL/MOL
REMARK 922        TOTAL FREE ENERGY PREDICTED BY IDOCK:   -4.51 KCAL/MOL
REMARK 923 INTER-LIGAND FREE ENERGY PREDICTED BY IDOCK:   -4.36 KCAL/MOL
REMARK 924 INTRA-LIGAND FREE ENERGY PREDICTED BY IDOCK:   -0.15 KCAL/MOL
REMARK 927      BINDING AFFINITY PREDICTED BY RF-SCORE:    0.00 PKD
ROOT
HETATM    1  N   UNL     1      -7.796   9.482  70.714  1.00  0.00    -0.296 NA 
HETATM    2  H2  UNL     1      -8.038   8.991  71.575  1.00  0.00     0.000 HD 
HETATM    3  C   UNL     1      -8.758  10.083  69.947  1.00  0.00    -0.142 C  
HETATM    4  H1  UNL     1      -6.829   9.544  70.396  1.00  0.00     0.000 HD 
HETATM    5  N   UNL     1      -9.990  10.004  70.353  1.00  0.00    -0.392 N  
HETATM    6  H   UNL     1     -10.211   9.488  71.204  1.00  0.00     0.000 HD 
HETATM    7  C   UNL     1     -10.999  10.615  69.639  1.00  0.00    -0.278 C  
HETATM    8  N   UNL     1     -10.662  11.369  68.494  1.00  0.00    -0.190 N  
HETATM    9  O   UNL     1     -12.167  10.498  70.001  1.00  0.00    -0.288 OA 
HETATM   10  F   UNL     1      -7.102  10.767  68.315  1.00  0.00    -0.072 F  
HETATM   11  C   UNL     1      -9.354  11.420  68.050  1.00  0.00    -0.171 C  
HETATM   12  C   UNL     1      -8.387  10.792  68.707  1.00  0.00    -0.147 C  
ENDROOT
BRANCH   8  13
HETATM   13  C   UNL     1     -11.758  12.082  67.826  1.00  0.00    -0.309 C  
HETATM   14  C   UNL     1     -11.594  12.437  66.343  1.00  0.00    -0.384 C  
HETATM   15  S   UNL     1     -10.826  14.062  66.349  1.00  0.00    -0.302 SA 
HETATM   16  C   UNL     1     -11.596  14.462  67.932  1.00  0.00    -0.345 C  
HETATM   17  O   UNL     1     -12.051  13.269  68.586  1.00  0.00    -0.337 OA 
BRANCH  16  18
HETATM   18  C   UNL     1     -10.680  15.229  68.897  1.00  0.00    -0.245 C  
HETATM   19  O   UNL     1     -10.657  14.638  70.198  1.00  0.00    -0.461 OA 
HETATM   20  H   UNL     1     -10.090  15.112  70.794  1.00  0.00     0.000 HD 
ENDBRANCH  16  18
ENDBRANCH   8  13
TORSDOF 2
ENDMDL
MODEL       94
REMARK 921   NORMALIZED FREE ENERGY PREDICTED BY IDOCK:   -3.86 KCAL/MOL
REMARK 922        TOTAL FREE ENERGY PREDICTED BY IDOCK:   -4.50 KCAL/MOL
REMARK 923 INTER-LIGAND FREE ENERGY PREDICTED BY IDOCK:   -5.28 KCAL/MOL
REMARK 924 INTRA-LIGAND FREE ENERGY PREDICTED BY IDOCK:    0.78 KCAL/MOL
REMARK 927      BINDING AFFINITY PREDICTED BY RF-SCORE:    0.00 PKD
ROOT
HETATM    1  N   UNL     1     -11.437  13.507  67.668  1.00  0.00    -0.300 NA 
HETATM    2  H2  UNL     1     -11.566  13.002  66.792  1.00  0.00     0.000 HD 
HETATM    3  C   UNL     1     -11.137  14.843  67.679  1.00  0.00    -0.311 C  
HETATM    4  H1  UNL     1     -11.528  13.035  68.568  1.00  0.00     0.000 HD 
HETATM    5  N   UNL     1     -11.021  15.445  66.533  1.00  0.00    -0.303 N  
HETATM    6  H   UNL     1     -11.131  14.915  65.669  1.00  0.00     0.000 HD 
HETATM    7  C   UNL     1     -10.751  16.796  66.479  1.00  0.00    -0.104 C  
HETATM    8  N   UNL     1     -10.656  17.519  67.688  1.00  0.00    -0.370 N  
HETATM    9  O   UNL     1     -10.595  17.350  65.395  1.00  0.00    -0.638 OA 
HETATM   10  F   UNL     1     -11.022  14.851  70.100  1.00  0.00    -0.254 F  
HETATM   11  C   UNL     1     -10.747  16.866  68.903  1.00  0.00    -0.321 C  
HETATM   12  C   UNL     1     -10.958  15.557  68.958  1.00  0.00    -0.256 C  
ENDROOT
BRANCH   8  13
HETATM   13  C   UNL     1     -10.467  18.971  67.577  1.00  0.00    -0.454 C  
HETATM   14  C   UNL     1      -9.952  19.535  66.247  1.00  0.00    -0.450 C  
HETATM   15  S   UNL     1      -8.163  19.532  66.418  1.00  0.00    -0.342 SA 
HETATM   16  C   UNL     1      -8.295  19.737  68.207  1.00  0.00    -0.274 C  
HETATM   17  O   UNL     1      -9.615  19.398  68.655  1.00  0.00    -0.381 OA 
BRANCH  16  18
HETATM   18  C   UNL     1      -7.279  18.908  69.007  1.00  0.00    -0.293 C  
HETATM   19  O   UNL     1      -7.263  17.539  68.595  1.00  0.00    -0.226 OA 
HETATM   20  H   UNL     1      -6.635  17.026  69.090  1.00  0.00     0.000 HD 
ENDBRANCH  16  18
ENDBRANCH   8  13
TORSDOF 2
ENDMDL
MODEL       95
REMARK 921   NORMALIZED FREE ENERGY PREDICTED BY IDOCK:   -3.85 KCAL/MOL
REMARK 922        TOTAL FREE ENERGY PREDICTED BY IDOCK:   -4.50 KCAL/MOL
REMARK 923 INTER-LIGAND FREE ENERGY PREDICTED BY IDOCK:   -4.34 KCAL/MOL
REMARK 924 INTRA-LIGAND FREE ENERGY PREDICTED BY IDOCK:   -0.16 KCAL/MOL
REMARK 927      BINDING AFFINITY PREDICTED BY RF-SCORE:    0.00 PKD
ROOT
HETATM    1  N   UNL     1     -12.848  10.457  70.526  1.00  0.00    -0.496 NA 
HETATM    2  H2  UNL     1     -12.675  10.883  69.616  1.00  0.00     0.000 HD 
HETATM    3  C   UNL     1     -12.269   9.264  70.871  1.00  0.00    -0.201 C  
HETATM    4  H1  UNL     1     -13.457  10.904  71.211  1.00  0.00     0.000 HD 
HETATM    5  N   UNL     1     -11.493   8.695  69.997  1.00  0.00    -0.459 N  
HETATM    6  H   UNL     1     -11.353   9.128  69.085  1.00  0.00     0.000 HD 
HETATM    7  C   UNL     1     -10.858   7.508  70.298  1.00  0.00    -0.246 C  
HETATM    8  N   UNL     1     -11.025   6.956  71.586  1.00  0.00    -0.230 N  
HETATM    9  O   UNL     1     -10.164   6.951  69.453  1.00  0.00    -0.172 OA 
HETATM   10  F   UNL     1     -13.400   9.276  73.014  1.00  0.00    -0.424 F  
HETATM   11  C   UNL     1     -11.878   7.549  72.498  1.00  0.00    -0.221 C  
HETATM   12  C   UNL     1     -12.530   8.665  72.194  1.00  0.00    -0.389 C  
ENDROOT
BRANCH   8  13
HETATM   13  C   UNL     1     -10.249   5.747  71.892  1.00  0.00    -0.200 C  
HETATM   14  C   UNL     1     -10.787   4.794  72.967  1.00  0.00    -0.256 C  
HETATM   15  S   UNL     1     -10.062   5.387  74.500  1.00  0.00    -0.278 SA 
HETATM   16  C   UNL     1      -8.623   6.027  73.617  1.00  0.00    -0.125 C  
HETATM   17  O   UNL     1      -8.905   6.144  72.216  1.00  0.00    -0.137 OA 
BRANCH  16  18
HETATM   18  C   UNL     1      -8.127   7.386  74.133  1.00  0.00    -0.156 C  
HETATM   19  O   UNL     1      -8.631   8.471  73.351  1.00  0.00    -0.350 OA 
HETATM   20  H   UNL     1      -8.324   9.311  73.669  1.00  0.00     0.000 HD 
ENDBRANCH  16  18
ENDBRANCH   8  13
TORSDOF 2
ENDMDL
MODEL       96
REMARK 921   NORMALIZED FREE ENERGY PREDICTED BY IDOCK:   -3.84 KCAL/MOL
REMARK 922        TOTAL FREE ENERGY PREDICTED BY IDOCK:   -4.48 KCAL/MOL
REMARK 923 INTER-LIGAND FREE ENERGY PREDICTED BY IDOCK:   -4.48 KCAL/MOL
REMARK 924 INTRA-LIGAND FREE ENERGY PREDICTED BY IDOCK:   -0.01 KCAL/MOL
REMARK 927      BINDING AFFINITY PREDICTED BY RF-SCORE:    0.00 PKD
ROOT
HETATM    1  N   UNL     1     -11.114   7.155  67.965  1.00  0.00    -0.505 NA 
HETATM    2  H2  UNL     1     -11.264   6.361  67.343  1.00  0.00     0.000 HD 
HETATM    3  C   UNL     1     -10.552   8.317  67.509  1.00  0.00    -0.221 C  
HETATM    4  H1  UNL     1     -11.378   7.111  68.950  1.00  0.00     0.000 HD 
HETATM    5  N   UNL     1     -10.216   8.373  66.255  1.00  0.00    -0.424 N  
HETATM    6  H   UNL     1     -10.354   7.559  65.656  1.00  0.00     0.000 HD 
HETATM    7  C   UNL     1      -9.674   9.527  65.729  1.00  0.00    -0.287 C  
HETATM    8  N   UNL     1      -9.543  10.658  66.563  1.00  0.00    -0.176 N  
HETATM    9  O   UNL     1      -9.315   9.559  64.555  1.00  0.00    -0.232 OA 
HETATM   10  F   UNL     1     -10.652   9.297  69.723  1.00  0.00    -0.201 F  
HETATM   11  C   UNL     1      -9.871  10.580  67.904  1.00  0.00    -0.160 C  
HETATM   12  C   UNL     1     -10.346   9.456  68.425  1.00  0.00    -0.205 C  
ENDROOT
BRANCH   8  13
HETATM   13  C   UNL     1      -9.056  11.891  65.933  1.00  0.00    -0.083 C  
HETATM   14  C   UNL     1      -8.575  13.028  66.844  1.00  0.00    -0.119 C  
HETATM   15  S   UNL     1     -10.045  14.018  67.145  1.00  0.00    -0.262 SA 
HETATM   16  C   UNL     1     -10.742  13.538  65.550  1.00  0.00    -0.290 C  
HETATM   17  O   UNL     1     -10.076  12.374  65.041  1.00  0.00    -0.277 OA 
BRANCH  16  18
HETATM   18  C   UNL     1     -12.252  13.260  65.587  1.00  0.00    -0.462 C  
HETATM   19  O   UNL     1     -13.020  14.454  65.417  1.00  0.00    -0.571 OA 
HETATM   20  H   UNL     1     -13.953  14.283  65.440  1.00  0.00     0.000 HD 
ENDBRANCH  16  18
ENDBRANCH   8  13
TORSDOF 2
ENDMDL
MODEL       97
REMARK 921   NORMALIZED FREE ENERGY PREDICTED BY IDOCK:   -3.82 KCAL/MOL
REMARK 922        TOTAL FREE ENERGY PREDICTED BY IDOCK:   -4.46 KCAL/MOL
REMARK 923 INTER-LIGAND FREE ENERGY PREDICTED BY IDOCK:   -4.47 KCAL/MOL
REMARK 924 INTRA-LIGAND FREE ENERGY PREDICTED BY IDOCK:    0.01 KCAL/MOL
REMARK 927      BINDING AFFINITY PREDICTED BY RF-SCORE:    0.00 PKD
ROOT
HETATM    1  N   UNL     1     -11.472  16.469  69.271  1.00  0.00    -0.251 NA 
HETATM    2  H2  UNL     1     -11.444  17.037  68.424  1.00  0.00     0.000 HD 
HETATM    3  C   UNL     1     -11.670  15.115  69.211  1.00  0.00    -0.329 C  
HETATM    4  H1  UNL     1     -11.354  16.890  70.193  1.00  0.00     0.000 HD 
HETATM    5  N   UNL     1     -11.819  14.579  68.036  1.00  0.00    -0.445 N  
HETATM    6  H   UNL     1     -11.810  15.169  67.205  1.00  0.00     0.000 HD 
HETATM    7  C   UNL     1     -11.991  13.217  67.908  1.00  0.00    -0.309 C  
HETATM    8  N   UNL     1     -11.947  12.414  69.069  1.00  0.00    -0.279 N  
HETATM    9  O   UNL     1     -12.179  12.722  66.801  1.00  0.00    -0.470 OA 
HETATM   10  F   UNL     1     -11.615  14.946  71.627  1.00  0.00    -0.364 F  
HETATM   11  C   UNL     1     -11.820  12.995  70.317  1.00  0.00    -0.217 C  
HETATM   12  C   UNL     1     -11.705  14.311  70.447  1.00  0.00    -0.262 C  
ENDROOT
BRANCH   8  13
HETATM   13  C   UNL     1     -12.033  10.962  68.872  1.00  0.00    -0.206 C  
HETATM   14  C   UNL     1     -12.024  10.061  70.113  1.00  0.00    -0.131 C  
HETATM   15  S   UNL     1     -10.287   9.703  70.399  1.00  0.00    -0.300 SA 
HETATM   16  C   UNL     1      -9.922   9.869  68.639  1.00  0.00    -0.164 C  
HETATM   17  O   UNL     1     -10.983  10.567  67.970  1.00  0.00    -0.247 OA 
BRANCH  16  18
HETATM   18  C   UNL     1      -8.599  10.589  68.341  1.00  0.00    -0.132 C  
HETATM   19  O   UNL     1      -8.488  11.823  69.054  1.00  0.00    -0.367 OA 
HETATM   20  H   UNL     1      -7.669  12.268  68.870  1.00  0.00     0.000 HD 
ENDBRANCH  16  18
ENDBRANCH   8  13
TORSDOF 2
ENDMDL
MODEL       98
REMARK 921   NORMALIZED FREE ENERGY PREDICTED BY IDOCK:   -3.80 KCAL/MOL
REMARK 922        TOTAL FREE ENERGY PREDICTED BY IDOCK:   -4.44 KCAL/MOL
REMARK 923 INTER-LIGAND FREE ENERGY PREDICTED BY IDOCK:   -4.54 KCAL/MOL
REMARK 924 INTRA-LIGAND FREE ENERGY PREDICTED BY IDOCK:    0.10 KCAL/MOL
REMARK 927      BINDING AFFINITY PREDICTED BY RF-SCORE:    0.00 PKD
ROOT
HETATM    1  N   UNL     1     -13.172  10.908  72.132  1.00  0.00    -0.586 NA 
HETATM    2  H2  UNL     1     -13.933  11.585  72.081  1.00  0.00     0.000 HD 
HETATM    3  C   UNL     1     -12.378  10.652  71.046  1.00  0.00    -0.403 C  
HETATM    4  H1  UNL     1     -12.976  10.398  72.993  1.00  0.00     0.000 HD 
HETATM    5  N   UNL     1     -12.628  11.302  69.949  1.00  0.00    -0.134 N  
HETATM    6  H   UNL     1     -13.409  11.958  69.915  1.00  0.00     0.000 HD 
HETATM    7  C   UNL     1     -11.845  11.111  68.830  1.00  0.00    -0.337 C  
HETATM    8  N   UNL     1     -10.738  10.239  68.917  1.00  0.00    -0.214 N  
HETATM    9  O   UNL     1     -12.114  11.692  67.783  1.00  0.00    -0.613 OA 
HETATM   10  F   UNL     1     -11.130   8.985  72.285  1.00  0.00    -0.421 F  
HETATM   11  C   UNL     1     -10.498   9.525  70.077  1.00  0.00    -0.247 C  
HETATM   12  C   UNL     1     -11.281   9.670  71.139  1.00  0.00    -0.384 C  
ENDROOT
BRANCH   8  13
HETATM   13  C   UNL     1      -9.876  10.145  67.733  1.00  0.00    -0.163 C  
HETATM   14  C   UNL     1      -8.558   9.369  67.856  1.00  0.00    -0.120 C  
HETATM   15  S   UNL     1      -7.355  10.601  68.369  1.00  0.00    -0.095 SA 
HETATM   16  C   UNL     1      -8.277  11.908  67.532  1.00  0.00    -0.155 C  
HETATM   17  O   UNL     1      -9.618  11.478  67.257  1.00  0.00    -0.171 OA 
BRANCH  16  18
HETATM   18  C   UNL     1      -8.337  13.229  68.314  1.00  0.00    -0.154 C  
HETATM   19  O   UNL     1      -9.678  13.590  68.652  1.00  0.00    -0.340 OA 
HETATM   20  H   UNL     1      -9.715  14.407  69.135  1.00  0.00     0.000 HD 
ENDBRANCH  16  18
ENDBRANCH   8  13
TORSDOF 2
ENDMDL
MODEL       99
REMARK 921   NORMALIZED FREE ENERGY PREDICTED BY IDOCK:   -3.79 KCAL/MOL
REMARK 922        TOTAL FREE ENERGY PREDICTED BY IDOCK:   -4.43 KCAL/MOL
REMARK 923 INTER-LIGAND FREE ENERGY PREDICTED BY IDOCK:   -4.95 KCAL/MOL
REMARK 924 INTRA-LIGAND FREE ENERGY PREDICTED BY IDOCK:    0.52 KCAL/MOL
REMARK 927      BINDING AFFINITY PREDICTED BY RF-SCORE:    0.00 PKD
ROOT
HETATM    1  N   UNL     1     -11.420  12.335  65.855  1.00  0.00    -0.361 NA 
HETATM    2  H2  UNL     1     -11.082  11.424  66.166  1.00  0.00     0.000 HD 
HETATM    3  C   UNL     1     -10.639  13.455  65.963  1.00  0.00    -0.287 C  
HETATM    4  H1  UNL     1     -12.351  12.443  65.452  1.00  0.00     0.000 HD 
HETATM    5  N   UNL     1      -9.453  13.317  66.476  1.00  0.00    -0.301 N  
HETATM    6  H   UNL     1      -9.145  12.400  66.802  1.00  0.00     0.000 HD 
HETATM    7  C   UNL     1      -8.609  14.401  66.583  1.00  0.00    -0.019 C  
HETATM    8  N   UNL     1      -9.037  15.648  66.077  1.00  0.00    -0.339 N  
HETATM    9  O   UNL     1      -7.508  14.275  67.112  1.00  0.00    -0.117 OA 
HETATM   10  F   UNL     1     -12.407  14.839  65.053  1.00  0.00    -0.373 F  
HETATM   11  C   UNL     1     -10.312  15.795  65.563  1.00  0.00    -0.404 C  
HETATM   12  C   UNL     1     -11.145  14.763  65.505  1.00  0.00    -0.346 C  
ENDROOT
BRANCH   8  13
HETATM   13  C   UNL     1      -8.066  16.748  66.122  1.00  0.00    -0.258 C  
HETATM   14  C   UNL     1      -7.130  16.840  67.335  1.00  0.00    -0.156 C  
HETATM   15  S   UNL     1      -8.019  17.862  68.515  1.00  0.00    -0.288 SA 
HETATM   16  C   UNL     1      -8.868  18.733  67.180  1.00  0.00    -0.278 C  
HETATM   17  O   UNL     1      -8.780  17.986  65.958  1.00  0.00    -0.498 OA 
BRANCH  16  18
HETATM   18  C   UNL     1     -10.348  19.027  67.468  1.00  0.00    -0.422 C  
HETATM   19  O   UNL     1     -10.536  19.606  68.761  1.00  0.00    -0.499 OA 
HETATM   20  H   UNL     1     -11.451  19.788  68.940  1.00  0.00     0.000 HD 
ENDBRANCH  16  18
ENDBRANCH   8  13
TORSDOF 2
ENDMDL
MODEL      100
REMARK 921   NORMALIZED FREE ENERGY PREDICTED BY IDOCK:   -3.79 KCAL/MOL
REMARK 922        TOTAL FREE ENERGY PREDICTED BY IDOCK:   -4.43 KCAL/MOL
REMARK 923 INTER-LIGAND FREE ENERGY PREDICTED BY IDOCK:   -4.44 KCAL/MOL
REMARK 924 INTRA-LIGAND FREE ENERGY PREDICTED BY IDOCK:    0.01 KCAL/MOL
REMARK 927      BINDING AFFINITY PREDICTED BY RF-SCORE:    0.00 PKD
ROOT
HETATM    1  N   UNL     1     -11.402   6.361  67.683  1.00  0.00    -0.676 NA 
HETATM    2  H2  UNL     1     -12.128   6.942  67.264  1.00  0.00     0.000 HD 
HETATM    3  C   UNL     1     -11.285   6.243  69.042  1.00  0.00    -0.343 C  
HETATM    4  H1  UNL     1     -10.739   5.846  67.104  1.00  0.00     0.000 HD 
HETATM    5  N   UNL     1     -12.131   6.898  69.780  1.00  0.00    -0.511 N  
HETATM    6  H   UNL     1     -12.834   7.492  69.340  1.00  0.00     0.000 HD 
HETATM    7  C   UNL     1     -12.083   6.796  71.154  1.00  0.00    -0.370 C  
HETATM    8  N   UNL     1     -11.136   5.927  71.738  1.00  0.00    -0.270 N  
HETATM    9  O   UNL     1     -12.853   7.453  71.848  1.00  0.00    -0.317 OA 
HETATM   10  F   UNL     1      -9.348   4.806  68.803  1.00  0.00    -0.131 F  
HETATM   11  C   UNL     1     -10.218   5.259  70.949  1.00  0.00    -0.234 C  
HETATM   12  C   UNL     1     -10.230   5.394  69.629  1.00  0.00    -0.274 C  
ENDROOT
BRANCH   8  13
HETATM   13  C   UNL     1     -11.190   5.775  73.197  1.00  0.00    -0.207 C  
HETATM   14  C   UNL     1     -10.080   6.422  74.035  1.00  0.00    -0.311 C  
HETATM   15  S   UNL     1      -8.814   5.153  74.165  1.00  0.00    -0.112 SA 
HETATM   16  C   UNL     1     -10.054   3.847  74.033  1.00  0.00    -0.145 C  
HETATM   17  O   UNL     1     -11.279   4.371  73.501  1.00  0.00    -0.291 OA 
BRANCH  16  18
HETATM   18  C   UNL     1      -9.616   2.655  73.171  1.00  0.00    -0.094 C  
HETATM   19  O   UNL     1     -10.733   1.920  72.665  1.00  0.00    -0.154 OA 
HETATM   20  H   UNL     1     -10.462   1.183  72.132  1.00  0.00     0.000 HD 
ENDBRANCH  16  18
ENDBRANCH   8  13
TORSDOF 2
ENDMDL
MODEL      101
REMARK 921   NORMALIZED FREE ENERGY PREDICTED BY IDOCK:   -3.74 KCAL/MOL
REMARK 922        TOTAL FREE ENERGY PREDICTED BY IDOCK:   -4.37 KCAL/MOL
REMARK 923 INTER-LIGAND FREE ENERGY PREDICTED BY IDOCK:   -4.33 KCAL/MOL
REMARK 924 INTRA-LIGAND FREE ENERGY PREDICTED BY IDOCK:   -0.04 KCAL/MOL
REMARK 927      BINDING AFFINITY PREDICTED BY RF-SCORE:    0.00 PKD
ROOT
HETATM    1  N   UNL     1      -9.577   9.421  65.184  1.00  0.00    -0.453 NA 
HETATM    2  H2  UNL     1      -9.395   8.901  64.326  1.00  0.00     0.000 HD 
HETATM    3  C   UNL     1      -9.968   8.783  66.331  1.00  0.00    -0.275 C  
HETATM    4  H1  UNL     1      -9.472  10.435  65.219  1.00  0.00     0.000 HD 
HETATM    5  N   UNL     1     -10.101   7.491  66.287  1.00  0.00    -0.463 N  
HETATM    6  H   UNL     1      -9.937   6.994  65.412  1.00  0.00     0.000 HD 
HETATM    7  C   UNL     1     -10.463   6.788  67.417  1.00  0.00    -0.262 C  
HETATM    8  N   UNL     1     -10.633   7.492  68.629  1.00  0.00    -0.178 N  
HETATM    9  O   UNL     1     -10.633   5.574  67.358  1.00  0.00    -0.232 OA 
HETATM   10  F   UNL     1     -10.135  10.893  67.511  1.00  0.00    -0.188 F  
HETATM   11  C   UNL     1     -10.523   8.869  68.660  1.00  0.00    -0.193 C  
HETATM   12  C   UNL     1     -10.223   9.553  67.563  1.00  0.00    -0.228 C  
ENDROOT
BRANCH   8  13
HETATM   13  C   UNL     1     -10.918   6.689  69.824  1.00  0.00    -0.313 C  
HETATM   14  C   UNL     1     -12.100   7.104  70.710  1.00  0.00    -0.288 C  
HETATM   15  S   UNL     1     -11.391   8.241  71.906  1.00  0.00    -0.334 SA 
HETATM   16  C   UNL     1      -9.788   7.417  71.797  1.00  0.00    -0.167 C  
HETATM   17  O   UNL     1      -9.717   6.612  70.613  1.00  0.00    -0.172 OA 
BRANCH  16  18
HETATM   18  C   UNL     1      -8.590   8.378  71.808  1.00  0.00    -0.176 C  
HETATM   19  O   UNL     1      -8.284   8.837  73.127  1.00  0.00    -0.411 OA 
HETATM   20  H   UNL     1      -7.543   9.431  73.134  1.00  0.00     0.000 HD 
ENDBRANCH  16  18
ENDBRANCH   8  13
TORSDOF 2
ENDMDL
MODEL      102
REMARK 921   NORMALIZED FREE ENERGY PREDICTED BY IDOCK:   -3.73 KCAL/MOL
REMARK 922        TOTAL FREE ENERGY PREDICTED BY IDOCK:   -4.35 KCAL/MOL
REMARK 923 INTER-LIGAND FREE ENERGY PREDICTED BY IDOCK:   -4.41 KCAL/MOL
REMARK 924 INTRA-LIGAND FREE ENERGY PREDICTED BY IDOCK:    0.06 KCAL/MOL
REMARK 927      BINDING AFFINITY PREDICTED BY RF-SCORE:    0.00 PKD
ROOT
HETATM    1  N   UNL     1      -8.988  17.983  66.192  1.00  0.00    -0.500 NA 
HETATM    2  H2  UNL     1      -9.368  18.739  65.622  1.00  0.00     0.000 HD 
HETATM    3  C   UNL     1      -9.489  16.712  66.110  1.00  0.00    -0.287 C  
HETATM    4  H1  UNL     1      -8.221  18.149  66.844  1.00  0.00     0.000 HD 
HETATM    5  N   UNL     1     -10.466  16.501  65.279  1.00  0.00    -0.280 N  
HETATM    6  H   UNL     1     -10.846  17.276  64.735  1.00  0.00     0.000 HD 
HETATM    7  C   UNL     1     -10.993  15.235  65.128  1.00  0.00    -0.416 C  
HETATM    8  N   UNL     1     -10.416  14.169  65.852  1.00  0.00    -0.296 N  
HETATM    9  O   UNL     1     -11.946  15.051  64.377  1.00  0.00    -0.442 OA 
HETATM   10  F   UNL     1      -7.965  15.943  67.829  1.00  0.00    -0.130 F  
HETATM   11  C   UNL     1      -9.400  14.407  66.758  1.00  0.00    -0.268 C  
HETATM   12  C   UNL     1      -8.924  15.632  66.942  1.00  0.00    -0.241 C  
ENDROOT
BRANCH   8  13
HETATM   13  C   UNL     1     -10.944  12.826  65.582  1.00  0.00    -0.273 C  
HETATM   14  C   UNL     1     -12.117  12.324  66.435  1.00  0.00    -0.043 C  
HETATM   15  S   UNL     1     -11.340  11.504  67.833  1.00  0.00    -0.310 SA 
HETATM   16  C   UNL     1      -9.897  11.083  66.833  1.00  0.00    -0.191 C  
HETATM   17  O   UNL     1      -9.852  11.891  65.649  1.00  0.00    -0.235 OA 
BRANCH  16  18
HETATM   18  C   UNL     1      -8.560  11.228  67.575  1.00  0.00    -0.134 C  
HETATM   19  O   UNL     1      -8.746  11.547  68.956  1.00  0.00    -0.366 OA 
HETATM   20  H   UNL     1      -7.920  11.637  69.415  1.00  0.00     0.000 HD 
ENDBRANCH  16  18
ENDBRANCH   8  13
TORSDOF 2
ENDMDL
MODEL      103
REMARK 921   NORMALIZED FREE ENERGY PREDICTED BY IDOCK:   -3.71 KCAL/MOL
REMARK 922        TOTAL FREE ENERGY PREDICTED BY IDOCK:   -4.34 KCAL/MOL
REMARK 923 INTER-LIGAND FREE ENERGY PREDICTED BY IDOCK:   -4.43 KCAL/MOL
REMARK 924 INTRA-LIGAND FREE ENERGY PREDICTED BY IDOCK:    0.09 KCAL/MOL
REMARK 927      BINDING AFFINITY PREDICTED BY RF-SCORE:    0.00 PKD
ROOT
HETATM    1  N   UNL     1     -12.393  15.067  68.926  1.00  0.00    -0.594 NA 
HETATM    2  H2  UNL     1     -12.569  15.914  68.385  1.00  0.00     0.000 HD 
HETATM    3  C   UNL     1     -11.717  14.007  68.382  1.00  0.00    -0.354 C  
HETATM    4  H1  UNL     1     -12.714  14.980  69.890  1.00  0.00     0.000 HD 
HETATM    5  N   UNL     1     -11.308  14.118  67.154  1.00  0.00    -0.317 N  
HETATM    6  H   UNL     1     -11.516  14.965  66.625  1.00  0.00     0.000 HD 
HETATM    7  C   UNL     1     -10.596  13.098  66.561  1.00  0.00    -0.284 C  
HETATM    8  N   UNL     1     -10.274  11.958  67.329  1.00  0.00    -0.199 N  
HETATM    9  O   UNL     1     -10.253  13.188  65.386  1.00  0.00    -0.295 OA 
HETATM   10  F   UNL     1     -11.986  12.724  70.420  1.00  0.00    -0.394 F  
HETATM   11  C   UNL     1     -10.741  11.833  68.625  1.00  0.00    -0.220 C  
HETATM   12  C   UNL     1     -11.470  12.792  69.182  1.00  0.00    -0.306 C  
ENDROOT
BRANCH   8  13
HETATM   13  C   UNL     1      -9.429  10.944  66.687  1.00  0.00    -0.179 C  
HETATM   14  C   UNL     1     -10.117   9.792  65.944  1.00  0.00    -0.243 C  
HETATM   15  S   UNL     1     -10.329   8.514  67.190  1.00  0.00    -0.302 SA 
HETATM   16  C   UNL     1      -8.871   9.091  68.085  1.00  0.00    -0.133 C  
HETATM   17  O   UNL     1      -8.523  10.421  67.675  1.00  0.00    -0.115 OA 
BRANCH  16  18
HETATM   18  C   UNL     1      -9.030   9.076  69.613  1.00  0.00    -0.153 C  
HETATM   19  O   UNL     1      -8.346  10.168  70.233  1.00  0.00    -0.341 OA 
HETATM   20  H   UNL     1      -8.444  10.159  71.177  1.00  0.00     0.000 HD 
ENDBRANCH  16  18
ENDBRANCH   8  13
TORSDOF 2
ENDMDL
MODEL      104
REMARK 921   NORMALIZED FREE ENERGY PREDICTED BY IDOCK:   -3.71 KCAL/MOL
REMARK 922        TOTAL FREE ENERGY PREDICTED BY IDOCK:   -4.34 KCAL/MOL
REMARK 923 INTER-LIGAND FREE ENERGY PREDICTED BY IDOCK:   -4.93 KCAL/MOL
REMARK 924 INTRA-LIGAND FREE ENERGY PREDICTED BY IDOCK:    0.60 KCAL/MOL
REMARK 927      BINDING AFFINITY PREDICTED BY RF-SCORE:    0.00 PKD
ROOT
HETATM    1  N   UNL     1     -10.432   8.074  69.255  1.00  0.00    -0.221 NA 
HETATM    2  H2  UNL     1     -10.453   8.169  70.271  1.00  0.00     0.000 HD 
HETATM    3  C   UNL     1     -10.368   9.174  68.442  1.00  0.00    -0.206 C  
HETATM    4  H1  UNL     1     -10.456   7.157  68.810  1.00  0.00     0.000 HD 
HETATM    5  N   UNL     1     -10.337  10.343  69.010  1.00  0.00    -0.201 N  
HETATM    6  H   UNL     1     -10.383  10.414  70.026  1.00  0.00     0.000 HD 
HETATM    7  C   UNL     1     -10.242  11.487  68.246  1.00  0.00    -0.196 C  
HETATM    8  N   UNL     1     -10.125  11.360  66.844  1.00  0.00    -0.209 N  
HETATM    9  O   UNL     1     -10.260  12.590  68.784  1.00  0.00    -0.188 OA 
HETATM   10  F   UNL     1     -10.443   7.780  66.462  1.00  0.00    -0.355 F  
HETATM   11  C   UNL     1     -10.193  10.116  66.246  1.00  0.00    -0.219 C  
HETATM   12  C   UNL     1     -10.334   9.016  66.976  1.00  0.00    -0.269 C  
ENDROOT
BRANCH   8  13
HETATM   13  C   UNL     1      -9.925  12.599  66.083  1.00  0.00    -0.261 C  
HETATM   14  C   UNL     1     -10.552  13.891  66.623  1.00  0.00    -0.274 C  
HETATM   15  S   UNL     1     -12.185  13.948  65.874  1.00  0.00    -0.483 SA 
HETATM   16  C   UNL     1     -11.599  13.028  64.435  1.00  0.00    -0.369 C  
HETATM   17  O   UNL     1     -10.358  12.371  64.730  1.00  0.00    -0.283 OA 
BRANCH  16  18
HETATM   18  C   UNL     1     -12.596  11.982  63.915  1.00  0.00    -0.406 C  
HETATM   19  O   UNL     1     -12.137  11.356  62.714  1.00  0.00    -0.791 OA 
HETATM   20  H   UNL     1     -12.753  10.709  62.393  1.00  0.00     0.000 HD 
ENDBRANCH  16  18
ENDBRANCH   8  13
TORSDOF 2
ENDMDL
MODEL      105
REMARK 921   NORMALIZED FREE ENERGY PREDICTED BY IDOCK:   -3.70 KCAL/MOL
REMARK 922        TOTAL FREE ENERGY PREDICTED BY IDOCK:   -4.33 KCAL/MOL
REMARK 923 INTER-LIGAND FREE ENERGY PREDICTED BY IDOCK:   -4.30 KCAL/MOL
REMARK 924 INTRA-LIGAND FREE ENERGY PREDICTED BY IDOCK:   -0.02 KCAL/MOL
REMARK 927      BINDING AFFINITY PREDICTED BY RF-SCORE:    0.00 PKD
ROOT
HETATM    1  N   UNL     1     -10.900  14.696  64.470  1.00  0.00    -0.625 NA 
HETATM    2  H2  UNL     1     -10.563  15.064  63.581  1.00  0.00     0.000 HD 
HETATM    3  C   UNL     1     -10.691  13.388  64.821  1.00  0.00    -0.390 C  
HETATM    4  H1  UNL     1     -11.405  15.288  65.130  1.00  0.00     0.000 HD 
HETATM    5  N   UNL     1     -10.047  12.634  63.981  1.00  0.00    -0.589 N  
HETATM    6  H   UNL     1      -9.739  13.018  63.088  1.00  0.00     0.000 HD 
HETATM    7  C   UNL     1      -9.779  11.317  64.290  1.00  0.00    -0.256 C  
HETATM    8  N   UNL     1     -10.167  10.824  65.554  1.00  0.00    -0.267 N  
HETATM    9  O   UNL     1      -9.212  10.596  63.474  1.00  0.00    -0.214 OA 
HETATM   10  F   UNL     1     -11.904  13.696  66.896  1.00  0.00    -0.348 F  
HETATM   11  C   UNL     1     -10.881  11.622  66.429  1.00  0.00    -0.287 C  
HETATM   12  C   UNL     1     -11.184  12.875  66.113  1.00  0.00    -0.292 C  
ENDROOT
BRANCH   8  13
HETATM   13  C   UNL     1      -9.771   9.448  65.877  1.00  0.00    -0.285 C  
HETATM   14  C   UNL     1     -10.477   8.744  67.042  1.00  0.00    -0.268 C  
HETATM   15  S   UNL     1      -9.478   9.141  68.482  1.00  0.00    -0.147 SA 
HETATM   16  C   UNL     1      -7.994   9.277  67.463  1.00  0.00    -0.099 C  
HETATM   17  O   UNL     1      -8.346   9.426  66.081  1.00  0.00    -0.113 OA 
BRANCH  16  18
HETATM   18  C   UNL     1      -7.069  10.437  67.860  1.00  0.00    -0.083 C  
HETATM   19  O   UNL     1      -5.717  10.007  68.034  1.00  0.00    -0.039 OA 
HETATM   20  H   UNL     1      -5.144  10.724  68.279  1.00  0.00     0.000 HD 
ENDBRANCH  16  18
ENDBRANCH   8  13
TORSDOF 2
ENDMDL
MODEL      106
REMARK 921   NORMALIZED FREE ENERGY PREDICTED BY IDOCK:   -3.69 KCAL/MOL
REMARK 922        TOTAL FREE ENERGY PREDICTED BY IDOCK:   -4.31 KCAL/MOL
REMARK 923 INTER-LIGAND FREE ENERGY PREDICTED BY IDOCK:   -4.45 KCAL/MOL
REMARK 924 INTRA-LIGAND FREE ENERGY PREDICTED BY IDOCK:    0.14 KCAL/MOL
REMARK 927      BINDING AFFINITY PREDICTED BY RF-SCORE:    0.00 PKD
ROOT
HETATM    1  N   UNL     1      -9.491  17.484  67.008  1.00  0.00    -0.260 NA 
HETATM    2  H2  UNL     1      -9.642  18.035  66.163  1.00  0.00     0.000 HD 
HETATM    3  C   UNL     1     -10.077  16.257  67.168  1.00  0.00    -0.268 C  
HETATM    4  H1  UNL     1      -8.897  17.827  67.763  1.00  0.00     0.000 HD 
HETATM    5  N   UNL     1     -10.833  15.819  66.205  1.00  0.00    -0.278 N  
HETATM    6  H   UNL     1     -10.989  16.397  65.380  1.00  0.00     0.000 HD 
HETATM    7  C   UNL     1     -11.427  14.578  66.294  1.00  0.00    -0.358 C  
HETATM    8  N   UNL     1     -11.154  13.774  67.422  1.00  0.00    -0.290 N  
HETATM    9  O   UNL     1     -12.178  14.189  65.405  1.00  0.00    -0.395 OA 
HETATM   10  F   UNL     1      -9.108  16.024  69.376  1.00  0.00    -0.232 F  
HETATM   11  C   UNL     1     -10.376  14.259  68.457  1.00  0.00    -0.244 C  
HETATM   12  C   UNL     1      -9.844  15.473  68.396  1.00  0.00    -0.210 C  
ENDROOT
BRANCH   8  13
HETATM   13  C   UNL     1     -11.727  12.422  67.424  1.00  0.00    -0.347 C  
HETATM   14  C   UNL     1     -11.438  11.514  68.627  1.00  0.00    -0.293 C  
HETATM   15  S   UNL     1      -9.930  10.642  68.182  1.00  0.00    -0.163 SA 
HETATM   16  C   UNL     1     -10.335  10.757  66.427  1.00  0.00    -0.248 C  
HETATM   17  O   UNL     1     -11.333  11.764  66.206  1.00  0.00    -0.329 OA 
BRANCH  16  18
HETATM   18  C   UNL     1      -9.128  11.059  65.526  1.00  0.00    -0.207 C  
HETATM   19  O   UNL     1      -9.527  11.454  64.211  1.00  0.00    -0.328 OA 
HETATM   20  H   UNL     1      -8.781  11.641  63.654  1.00  0.00     0.000 HD 
ENDBRANCH  16  18
ENDBRANCH   8  13
TORSDOF 2
ENDMDL
MODEL      107
REMARK 921   NORMALIZED FREE ENERGY PREDICTED BY IDOCK:   -3.67 KCAL/MOL
REMARK 922        TOTAL FREE ENERGY PREDICTED BY IDOCK:   -4.29 KCAL/MOL
REMARK 923 INTER-LIGAND FREE ENERGY PREDICTED BY IDOCK:   -4.52 KCAL/MOL
REMARK 924 INTRA-LIGAND FREE ENERGY PREDICTED BY IDOCK:    0.23 KCAL/MOL
REMARK 927      BINDING AFFINITY PREDICTED BY RF-SCORE:    0.00 PKD
ROOT
HETATM    1  N   UNL     1     -12.270   9.273  70.814  1.00  0.00    -0.470 NA 
HETATM    2  H2  UNL     1     -13.289   9.303  70.774  1.00  0.00     0.000 HD 
HETATM    3  C   UNL     1     -11.504   9.920  69.882  1.00  0.00    -0.179 C  
HETATM    4  H1  UNL     1     -11.786   8.760  71.551  1.00  0.00     0.000 HD 
HETATM    5  N   UNL     1     -12.121  10.574  68.943  1.00  0.00    -0.483 N  
HETATM    6  H   UNL     1     -13.140  10.572  68.909  1.00  0.00     0.000 HD 
HETATM    7  C   UNL     1     -11.406  11.271  67.993  1.00  0.00    -0.304 C  
HETATM    8  N   UNL     1      -9.998  11.305  68.091  1.00  0.00    -0.176 N  
HETATM    9  O   UNL     1     -11.992  11.848  67.081  1.00  0.00    -0.611 OA 
HETATM   10  F   UNL     1      -9.468   9.111  70.915  1.00  0.00    -0.237 F  
HETATM   11  C   UNL     1      -9.347  10.579  69.072  1.00  0.00    -0.196 C  
HETATM   12  C   UNL     1     -10.032   9.867  69.959  1.00  0.00    -0.254 C  
ENDROOT
BRANCH   8  13
HETATM   13  C   UNL     1      -9.287  12.142  67.118  1.00  0.00    -0.193 C  
HETATM   14  C   UNL     1      -7.771  12.317  67.282  1.00  0.00    -0.161 C  
HETATM   15  S   UNL     1      -7.596  13.765  68.332  1.00  0.00    -0.142 SA 
HETATM   16  C   UNL     1      -9.147  14.450  67.713  1.00  0.00    -0.192 C  
HETATM   17  O   UNL     1      -9.928  13.429  67.076  1.00  0.00    -0.238 OA 
BRANCH  16  18
HETATM   18  C   UNL     1     -10.008  15.122  68.793  1.00  0.00    -0.229 C  
HETATM   19  O   UNL     1      -9.370  15.106  70.072  1.00  0.00    -0.456 OA 
HETATM   20  H   UNL     1      -9.902  15.522  70.740  1.00  0.00     0.000 HD 
ENDBRANCH  16  18
ENDBRANCH   8  13
TORSDOF 2
ENDMDL
MODEL      108
REMARK 921   NORMALIZED FREE ENERGY PREDICTED BY IDOCK:   -3.67 KCAL/MOL
REMARK 922        TOTAL FREE ENERGY PREDICTED BY IDOCK:   -4.29 KCAL/MOL
REMARK 923 INTER-LIGAND FREE ENERGY PREDICTED BY IDOCK:   -4.24 KCAL/MOL
REMARK 924 INTRA-LIGAND FREE ENERGY PREDICTED BY IDOCK:   -0.05 KCAL/MOL
REMARK 927      BINDING AFFINITY PREDICTED BY RF-SCORE:    0.00 PKD
ROOT
HETATM    1  N   UNL     1      -7.342  14.111  69.608  1.00  0.00    -0.354 NA 
HETATM    2  H2  UNL     1      -7.886  13.267  69.431  1.00  0.00     0.000 HD 
HETATM    3  C   UNL     1      -7.349  15.157  68.724  1.00  0.00    -0.131 C  
HETATM    4  H1  UNL     1      -6.773  14.206  70.450  1.00  0.00     0.000 HD 
HETATM    5  N   UNL     1      -8.073  15.036  67.652  1.00  0.00    -0.156 N  
HETATM    6  H   UNL     1      -8.591  14.174  67.485  1.00  0.00     0.000 HD 
HETATM    7  C   UNL     1      -8.146  16.067  66.740  1.00  0.00    -0.267 C  
HETATM    8  N   UNL     1      -7.463  17.271  67.019  1.00  0.00    -0.177 N  
HETATM    9  O   UNL     1      -8.793  15.930  65.706  1.00  0.00    -0.252 OA 
HETATM   10  F   UNL     1      -5.777  16.393  70.093  1.00  0.00    -0.171 F  
HETATM   11  C   UNL     1      -6.668  17.380  68.145  1.00  0.00    -0.178 C  
HETATM   12  C   UNL     1      -6.557  16.371  69.000  1.00  0.00    -0.181 C  
ENDROOT
BRANCH   8  13
HETATM   13  C   UNL     1      -7.652  18.374  66.069  1.00  0.00    -0.195 C  
HETATM   14  C   UNL     1      -6.801  19.638  66.246  1.00  0.00    -0.220 C  
HETATM   15  S   UNL     1      -7.774  20.690  67.330  1.00  0.00    -0.250 SA 
HETATM   16  C   UNL     1      -9.310  19.965  66.718  1.00  0.00    -0.384 C  
HETATM   17  O   UNL     1      -9.049  18.721  66.053  1.00  0.00    -0.479 OA 
BRANCH  16  18
HETATM   18  C   UNL     1     -10.365  19.726  67.808  1.00  0.00    -0.437 C  
HETATM   19  O   UNL     1      -9.803  19.117  68.972  1.00  0.00    -0.410 OA 
HETATM   20  H   UNL     1     -10.456  18.969  69.646  1.00  0.00     0.000 HD 
ENDBRANCH  16  18
ENDBRANCH   8  13
TORSDOF 2
ENDMDL
MODEL      109
REMARK 921   NORMALIZED FREE ENERGY PREDICTED BY IDOCK:   -3.66 KCAL/MOL
REMARK 922        TOTAL FREE ENERGY PREDICTED BY IDOCK:   -4.28 KCAL/MOL
REMARK 923 INTER-LIGAND FREE ENERGY PREDICTED BY IDOCK:   -4.25 KCAL/MOL
REMARK 924 INTRA-LIGAND FREE ENERGY PREDICTED BY IDOCK:   -0.04 KCAL/MOL
REMARK 927      BINDING AFFINITY PREDICTED BY RF-SCORE:    0.00 PKD
ROOT
HETATM    1  N   UNL     1      -9.237   4.660  66.876  1.00  0.00    -0.120 NA 
HETATM    2  H2  UNL     1      -8.558   3.899  66.889  1.00  0.00     0.000 HD 
HETATM    3  C   UNL     1      -9.871   5.064  68.021  1.00  0.00    -0.149 C  
HETATM    4  H1  UNL     1      -9.468   5.147  66.010  1.00  0.00     0.000 HD 
HETATM    5  N   UNL     1      -9.577   4.444  69.124  1.00  0.00    -0.174 N  
HETATM    6  H   UNL     1      -8.912   3.671  69.110  1.00  0.00     0.000 HD 
HETATM    7  C   UNL     1     -10.159   4.825  70.315  1.00  0.00    -0.234 C  
HETATM    8  N   UNL     1     -11.035   5.932  70.319  1.00  0.00    -0.326 N  
HETATM    9  O   UNL     1      -9.914   4.206  71.346  1.00  0.00    -0.185 OA 
HETATM   10  F   UNL     1     -11.153   6.712  66.791  1.00  0.00    -0.417 F  
HETATM   11  C   UNL     1     -11.369   6.565  69.136  1.00  0.00    -0.261 C  
HETATM   12  C   UNL     1     -10.848   6.169  67.981  1.00  0.00    -0.313 C  
ENDROOT
BRANCH   8  13
HETATM   13  C   UNL     1     -11.550   6.362  71.624  1.00  0.00    -0.310 C  
HETATM   14  C   UNL     1     -12.794   7.260  71.653  1.00  0.00    -0.375 C  
HETATM   15  S   UNL     1     -12.144   8.934  71.598  1.00  0.00    -0.371 SA 
HETATM   16  C   UNL     1     -10.626   8.413  72.425  1.00  0.00    -0.335 C  
HETATM   17  O   UNL     1     -10.476   6.989  72.348  1.00  0.00    -0.199 OA 
BRANCH  16  18
HETATM   18  C   UNL     1      -9.354   9.070  71.867  1.00  0.00    -0.075 C  
HETATM   19  O   UNL     1      -8.209   8.790  72.675  1.00  0.00    -0.403 OA 
HETATM   20  H   UNL     1      -7.422   9.196  72.330  1.00  0.00     0.000 HD 
ENDBRANCH  16  18
ENDBRANCH   8  13
TORSDOF 2
ENDMDL
MODEL      110
REMARK 921   NORMALIZED FREE ENERGY PREDICTED BY IDOCK:   -3.64 KCAL/MOL
REMARK 922        TOTAL FREE ENERGY PREDICTED BY IDOCK:   -4.26 KCAL/MOL
REMARK 923 INTER-LIGAND FREE ENERGY PREDICTED BY IDOCK:   -4.16 KCAL/MOL
REMARK 924 INTRA-LIGAND FREE ENERGY PREDICTED BY IDOCK:   -0.10 KCAL/MOL
REMARK 927      BINDING AFFINITY PREDICTED BY RF-SCORE:    0.00 PKD
ROOT
HETATM    1  N   UNL     1     -10.505   7.136  70.356  1.00  0.00    -0.214 NA 
HETATM    2  H2  UNL     1     -10.763   6.979  71.330  1.00  0.00     0.000 HD 
HETATM    3  C   UNL     1     -10.775   8.325  69.733  1.00  0.00    -0.221 C  
HETATM    4  H1  UNL     1     -10.036   6.412  69.811  1.00  0.00     0.000 HD 
HETATM    5  N   UNL     1     -11.372   9.248  70.427  1.00  0.00    -0.305 N  
HETATM    6  H   UNL     1     -11.642   9.061  71.393  1.00  0.00     0.000 HD 
HETATM    7  C   UNL     1     -11.643  10.477  69.865  1.00  0.00    -0.307 C  
HETATM    8  N   UNL     1     -11.212  10.731  68.545  1.00  0.00    -0.258 N  
HETATM    9  O   UNL     1     -12.249  11.328  70.509  1.00  0.00    -0.337 OA 
HETATM   10  F   UNL     1      -9.842   7.507  67.652  1.00  0.00    -0.155 F  
HETATM   11  C   UNL     1     -10.608   9.734  67.802  1.00  0.00    -0.266 C  
HETATM   12  C   UNL     1     -10.390   8.533  68.324  1.00  0.00    -0.201 C  
ENDROOT
BRANCH   8  13
HETATM   13  C   UNL     1     -11.434  12.086  68.026  1.00  0.00    -0.328 C  
HETATM   14  C   UNL     1     -11.661  12.257  66.519  1.00  0.00    -0.377 C  
HETATM   15  S   UNL     1     -10.015  12.498  65.839  1.00  0.00    -0.246 SA 
HETATM   16  C   UNL     1      -9.442  13.236  67.383  1.00  0.00    -0.218 C  
HETATM   17  O   UNL     1     -10.340  12.917  68.456  1.00  0.00    -0.243 OA 
BRANCH  16  18
HETATM   18  C   UNL     1      -8.024  12.812  67.790  1.00  0.00    -0.157 C  
HETATM   19  O   UNL     1      -7.686  13.262  69.104  1.00  0.00    -0.323 OA 
HETATM   20  H   UNL     1      -6.809  13.000  69.356  1.00  0.00     0.000 HD 
ENDBRANCH  16  18
ENDBRANCH   8  13
TORSDOF 2
ENDMDL
MODEL      111
REMARK 921   NORMALIZED FREE ENERGY PREDICTED BY IDOCK:   -3.64 KCAL/MOL
REMARK 922        TOTAL FREE ENERGY PREDICTED BY IDOCK:   -4.26 KCAL/MOL
REMARK 923 INTER-LIGAND FREE ENERGY PREDICTED BY IDOCK:   -4.29 KCAL/MOL
REMARK 924 INTRA-LIGAND FREE ENERGY PREDICTED BY IDOCK:    0.03 KCAL/MOL
REMARK 927      BINDING AFFINITY PREDICTED BY RF-SCORE:    0.00 PKD
ROOT
HETATM    1  N   UNL     1     -14.362   7.298  71.966  1.00  0.00    -0.631 NA 
HETATM    2  H2  UNL     1     -15.152   7.915  71.779  1.00  0.00     0.000 HD 
HETATM    3  C   UNL     1     -13.076   7.696  71.714  1.00  0.00    -0.323 C  
HETATM    4  H1  UNL     1     -14.502   6.362  72.349  1.00  0.00     0.000 HD 
HETATM    5  N   UNL     1     -12.898   8.887  71.226  1.00  0.00    -0.469 N  
HETATM    6  H   UNL     1     -13.705   9.478  71.025  1.00  0.00     0.000 HD 
HETATM    7  C   UNL     1     -11.626   9.357  70.979  1.00  0.00    -0.330 C  
HETATM    8  N   UNL     1     -10.524   8.541  71.316  1.00  0.00    -0.211 N  
HETATM    9  O   UNL     1     -11.465  10.464  70.475  1.00  0.00    -0.304 OA 
HETATM   10  F   UNL     1     -12.215   5.547  72.429  1.00  0.00    -0.293 F  
HETATM   11  C   UNL     1     -10.721   7.262  71.803  1.00  0.00    -0.218 C  
HETATM   12  C   UNL     1     -11.946   6.789  71.995  1.00  0.00    -0.317 C  
ENDROOT
BRANCH   8  13
HETATM   13  C   UNL     1      -9.189   9.124  71.129  1.00  0.00    -0.231 C  
HETATM   14  C   UNL     1      -8.355   8.654  69.930  1.00  0.00    -0.123 C  
HETATM   15  S   UNL     1      -7.420   7.251  70.552  1.00  0.00    -0.084 SA 
HETATM   16  C   UNL     1      -7.430   7.936  72.223  1.00  0.00    -0.090 C  
HETATM   17  O   UNL     1      -8.444   8.943  72.347  1.00  0.00    -0.396 OA 
BRANCH  16  18
HETATM   18  C   UNL     1      -7.643   6.889  73.326  1.00  0.00    -0.084 C  
HETATM   19  O   UNL     1      -8.503   7.369  74.361  1.00  0.00    -0.186 OA 
HETATM   20  H   UNL     1      -8.635   6.722  75.043  1.00  0.00     0.000 HD 
ENDBRANCH  16  18
ENDBRANCH   8  13
TORSDOF 2
ENDMDL
MODEL      112
REMARK 921   NORMALIZED FREE ENERGY PREDICTED BY IDOCK:   -3.63 KCAL/MOL
REMARK 922        TOTAL FREE ENERGY PREDICTED BY IDOCK:   -4.25 KCAL/MOL
REMARK 923 INTER-LIGAND FREE ENERGY PREDICTED BY IDOCK:   -4.48 KCAL/MOL
REMARK 924 INTRA-LIGAND FREE ENERGY PREDICTED BY IDOCK:    0.23 KCAL/MOL
REMARK 927      BINDING AFFINITY PREDICTED BY RF-SCORE:    0.00 PKD
ROOT
HETATM    1  N   UNL     1     -12.410  14.070  68.810  1.00  0.00    -0.508 NA 
HETATM    2  H2  UNL     1     -12.472  14.850  68.156  1.00  0.00     0.000 HD 
HETATM    3  C   UNL     1     -11.704  12.938  68.500  1.00  0.00    -0.339 C  
HETATM    4  H1  UNL     1     -12.873  14.105  69.719  1.00  0.00     0.000 HD 
HETATM    5  N   UNL     1     -11.115  12.893  67.342  1.00  0.00    -0.263 N  
HETATM    6  H   UNL     1     -11.209  13.676  66.695  1.00  0.00     0.000 HD 
HETATM    7  C   UNL     1     -10.364  11.794  66.984  1.00  0.00    -0.214 C  
HETATM    8  N   UNL     1     -10.204  10.747  67.918  1.00  0.00    -0.170 N  
HETATM    9  O   UNL     1      -9.849  11.736  65.871  1.00  0.00    -0.226 OA 
HETATM   10  F   UNL     1     -12.320  11.912  70.606  1.00  0.00    -0.399 F  
HETATM   11  C   UNL     1     -10.861  10.787  69.133  1.00  0.00    -0.237 C  
HETATM   12  C   UNL     1     -11.625  11.822  69.461  1.00  0.00    -0.332 C  
ENDROOT
BRANCH   8  13
HETATM   13  C   UNL     1      -9.314   9.646  67.530  1.00  0.00    -0.130 C  
HETATM   14  C   UNL     1      -9.703   8.794  66.314  1.00  0.00    -0.272 C  
HETATM   15  S   UNL     1     -10.699   7.463  66.996  1.00  0.00    -0.206 SA 
HETATM   16  C   UNL     1      -9.818   7.556  68.569  1.00  0.00    -0.165 C  
HETATM   17  O   UNL     1      -9.116   8.802  68.678  1.00  0.00    -0.141 OA 
BRANCH  16  18
HETATM   18  C   UNL     1     -10.720   7.392  69.801  1.00  0.00    -0.241 C  
HETATM   19  O   UNL     1     -11.926   6.690  69.492  1.00  0.00    -0.642 OA 
HETATM   20  H   UNL     1     -12.484   6.589  70.253  1.00  0.00     0.000 HD 
ENDBRANCH  16  18
ENDBRANCH   8  13
TORSDOF 2
ENDMDL
MODEL      113
REMARK 921   NORMALIZED FREE ENERGY PREDICTED BY IDOCK:   -3.63 KCAL/MOL
REMARK 922        TOTAL FREE ENERGY PREDICTED BY IDOCK:   -4.25 KCAL/MOL
REMARK 923 INTER-LIGAND FREE ENERGY PREDICTED BY IDOCK:   -4.20 KCAL/MOL
REMARK 924 INTRA-LIGAND FREE ENERGY PREDICTED BY IDOCK:   -0.05 KCAL/MOL
REMARK 927      BINDING AFFINITY PREDICTED BY RF-SCORE:    0.00 PKD
ROOT
HETATM    1  N   UNL     1     -13.500  12.671  71.914  1.00  0.00    -0.407 NA 
HETATM    2  H2  UNL     1     -13.451  13.671  71.718  1.00  0.00     0.000 HD 
HETATM    3  C   UNL     1     -12.725  11.775  71.227  1.00  0.00    -0.316 C  
HETATM    4  H1  UNL     1     -14.127  12.304  72.629  1.00  0.00     0.000 HD 
HETATM    5  N   UNL     1     -11.925  12.243  70.316  1.00  0.00    -0.472 N  
HETATM    6  H   UNL     1     -11.909  13.244  70.121  1.00  0.00     0.000 HD 
HETATM    7  C   UNL     1     -11.098  11.394  69.612  1.00  0.00    -0.174 C  
HETATM    8  N   UNL     1     -11.098  10.021  69.936  1.00  0.00    -0.270 N  
HETATM    9  O   UNL     1     -10.378  11.835  68.720  1.00  0.00    -0.213 OA 
HETATM   10  F   UNL     1     -13.711   9.919  72.432  1.00  0.00    -0.465 F  
HETATM   11  C   UNL     1     -11.976   9.525  70.883  1.00  0.00    -0.295 C  
HETATM   12  C   UNL     1     -12.809  10.333  71.528  1.00  0.00    -0.452 C  
ENDROOT
BRANCH   8  13
HETATM   13  C   UNL     1     -10.129   9.174  69.230  1.00  0.00    -0.194 C  
HETATM   14  C   UNL     1     -10.638   7.885  68.571  1.00  0.00    -0.106 C  
HETATM   15  S   UNL     1     -10.478   6.631  69.848  1.00  0.00    -0.224 SA 
HETATM   16  C   UNL     1      -9.090   7.512  70.594  1.00  0.00    -0.155 C  
HETATM   17  O   UNL     1      -9.052   8.871  70.135  1.00  0.00    -0.155 OA 
BRANCH  16  18
HETATM   18  C   UNL     1      -9.104   7.514  72.130  1.00  0.00    -0.133 C  
HETATM   19  O   UNL     1      -9.836   6.407  72.659  1.00  0.00    -0.166 OA 
HETATM   20  H   UNL     1      -9.846   6.408  73.609  1.00  0.00     0.000 HD 
ENDBRANCH  16  18
ENDBRANCH   8  13
TORSDOF 2
ENDMDL
MODEL      114
REMARK 921   NORMALIZED FREE ENERGY PREDICTED BY IDOCK:   -3.62 KCAL/MOL
REMARK 922        TOTAL FREE ENERGY PREDICTED BY IDOCK:   -4.23 KCAL/MOL
REMARK 923 INTER-LIGAND FREE ENERGY PREDICTED BY IDOCK:   -4.30 KCAL/MOL
REMARK 924 INTRA-LIGAND FREE ENERGY PREDICTED BY IDOCK:    0.06 KCAL/MOL
REMARK 927      BINDING AFFINITY PREDICTED BY RF-SCORE:    0.00 PKD
ROOT
HETATM    1  N   UNL     1      -6.350  18.145  67.124  1.00  0.00    -0.166 NA 
HETATM    2  H2  UNL     1      -6.482  19.157  67.130  1.00  0.00     0.000 HD 
HETATM    3  C   UNL     1      -7.369  17.295  67.461  1.00  0.00    -0.166 C  
HETATM    4  H1  UNL     1      -5.454  17.732  66.866  1.00  0.00     0.000 HD 
HETATM    5  N   UNL     1      -8.511  17.823  67.789  1.00  0.00    -0.233 N  
HETATM    6  H   UNL     1      -8.613  18.837  67.811  1.00  0.00     0.000 HD 
HETATM    7  C   UNL     1      -9.584  17.018  68.109  1.00  0.00    -0.266 C  
HETATM    8  N   UNL     1      -9.433  15.617  68.021  1.00  0.00    -0.194 N  
HETATM    9  O   UNL     1     -10.646  17.521  68.464  1.00  0.00    -0.357 OA 
HETATM   10  F   UNL     1      -5.930  15.368  67.164  1.00  0.00    -0.102 F  
HETATM   11  C   UNL     1      -8.207  15.064  67.703  1.00  0.00    -0.168 C  
HETATM   12  C   UNL     1      -7.159  15.835  67.444  1.00  0.00    -0.203 C  
ENDROOT
BRANCH   8  13
HETATM   13  C   UNL     1     -10.631  14.806  68.272  1.00  0.00    -0.241 C  
HETATM   14  C   UNL     1     -10.470  13.283  68.355  1.00  0.00    -0.253 C  
HETATM   15  S   UNL     1     -10.701  12.712  66.667  1.00  0.00    -0.258 SA 
HETATM   16  C   UNL     1     -11.784  14.109  66.301  1.00  0.00    -0.390 C  
HETATM   17  O   UNL     1     -11.619  15.143  67.281  1.00  0.00    -0.323 OA 
BRANCH  16  18
HETATM   18  C   UNL     1     -11.570  14.717  64.907  1.00  0.00    -0.405 C  
HETATM   19  O   UNL     1     -10.967  13.787  64.005  1.00  0.00    -0.573 OA 
HETATM   20  H   UNL     1     -10.834  14.163  63.143  1.00  0.00     0.000 HD 
ENDBRANCH  16  18
ENDBRANCH   8  13
TORSDOF 2
ENDMDL
MODEL      115
REMARK 921   NORMALIZED FREE ENERGY PREDICTED BY IDOCK:   -3.60 KCAL/MOL
REMARK 922        TOTAL FREE ENERGY PREDICTED BY IDOCK:   -4.22 KCAL/MOL
REMARK 923 INTER-LIGAND FREE ENERGY PREDICTED BY IDOCK:   -4.10 KCAL/MOL
REMARK 924 INTRA-LIGAND FREE ENERGY PREDICTED BY IDOCK:   -0.11 KCAL/MOL
REMARK 927      BINDING AFFINITY PREDICTED BY RF-SCORE:    0.00 PKD
ROOT
HETATM    1  N   UNL     1     -13.500   7.639  72.167  1.00  0.00    -0.520 NA 
HETATM    2  H2  UNL     1     -14.376   7.654  71.646  1.00  0.00     0.000 HD 
HETATM    3  C   UNL     1     -12.325   7.272  71.568  1.00  0.00    -0.362 C  
HETATM    4  H1  UNL     1     -13.469   7.897  73.154  1.00  0.00     0.000 HD 
HETATM    5  N   UNL     1     -12.365   6.943  70.311  1.00  0.00    -0.598 N  
HETATM    6  H   UNL     1     -13.256   6.944  69.816  1.00  0.00     0.000 HD 
HETATM    7  C   UNL     1     -11.210   6.594  69.645  1.00  0.00    -0.340 C  
HETATM    8  N   UNL     1      -9.981   6.652  70.338  1.00  0.00    -0.175 N  
HETATM    9  O   UNL     1     -11.260   6.240  68.470  1.00  0.00    -0.352 OA 
HETATM   10  F   UNL     1     -11.118   7.540  73.652  1.00  0.00    -0.402 F  
HETATM   11  C   UNL     1      -9.950   6.970  71.683  1.00  0.00    -0.178 C  
HETATM   12  C   UNL     1     -11.067   7.258  72.340  1.00  0.00    -0.275 C  
ENDROOT
BRANCH   8  13
HETATM   13  C   UNL     1      -8.769   6.370  69.559  1.00  0.00    -0.133 C  
HETATM   14  C   UNL     1      -7.488   6.003  70.320  1.00  0.00    -0.090 C  
HETATM   15  S   UNL     1      -6.672   7.576  70.615  1.00  0.00    -0.043 SA 
HETATM   16  C   UNL     1      -7.406   8.281  69.123  1.00  0.00    -0.081 C  
HETATM   17  O   UNL     1      -8.521   7.489  68.690  1.00  0.00    -0.128 OA 
BRANCH  16  18
HETATM   18  C   UNL     1      -7.871   9.736  69.284  1.00  0.00    -0.105 C  
HETATM   19  O   UNL     1      -8.878   9.868  70.290  1.00  0.00    -0.320 OA 
HETATM   20  H   UNL     1      -9.166  10.767  70.389  1.00  0.00     0.000 HD 
ENDBRANCH  16  18
ENDBRANCH   8  13
TORSDOF 2
ENDMDL
MODEL      116
REMARK 921   NORMALIZED FREE ENERGY PREDICTED BY IDOCK:   -3.58 KCAL/MOL
REMARK 922        TOTAL FREE ENERGY PREDICTED BY IDOCK:   -4.19 KCAL/MOL
REMARK 923 INTER-LIGAND FREE ENERGY PREDICTED BY IDOCK:   -4.46 KCAL/MOL
REMARK 924 INTRA-LIGAND FREE ENERGY PREDICTED BY IDOCK:    0.26 KCAL/MOL
REMARK 927      BINDING AFFINITY PREDICTED BY RF-SCORE:    0.00 PKD
ROOT
HETATM    1  N   UNL     1      -6.845  19.783  69.382  1.00  0.00    -0.346 NA 
HETATM    2  H2  UNL     1      -6.993  20.774  69.192  1.00  0.00     0.000 HD 
HETATM    3  C   UNL     1      -7.467  18.818  68.635  1.00  0.00    -0.313 C  
HETATM    4  H1  UNL     1      -6.228  19.476  70.134  1.00  0.00     0.000 HD 
HETATM    5  N   UNL     1      -8.253  19.210  67.677  1.00  0.00    -0.280 N  
HETATM    6  H   UNL     1      -8.404  20.206  67.520  1.00  0.00     0.000 HD 
HETATM    7  C   UNL     1      -8.884  18.286  66.871  1.00  0.00    -0.275 C  
HETATM    8  N   UNL     1      -8.618  16.915  67.072  1.00  0.00    -0.197 N  
HETATM    9  O   UNL     1      -9.662  18.660  65.997  1.00  0.00    -0.487 OA 
HETATM   10  F   UNL     1      -6.470  17.064  69.975  1.00  0.00    -0.223 F  
HETATM   11  C   UNL     1      -7.807  16.504  68.114  1.00  0.00    -0.168 C  
HETATM   12  C   UNL     1      -7.238  17.390  68.923  1.00  0.00    -0.250 C  
ENDROOT
BRANCH   8  13
HETATM   13  C   UNL     1      -9.233  15.976  66.125  1.00  0.00    -0.352 C  
HETATM   14  C   UNL     1     -10.745  16.073  65.889  1.00  0.00    -0.280 C  
HETATM   15  S   UNL     1     -11.465  14.973  67.114  1.00  0.00    -0.244 SA 
HETATM   16  C   UNL     1      -9.988  13.935  67.107  1.00  0.00    -0.239 C  
HETATM   17  O   UNL     1      -8.882  14.639  66.525  1.00  0.00    -0.238 OA 
BRANCH  16  18
HETATM   18  C   UNL     1      -9.571  13.432  68.497  1.00  0.00    -0.141 C  
HETATM   19  O   UNL     1     -10.137  14.224  69.544  1.00  0.00    -0.424 OA 
HETATM   20  H   UNL     1      -9.879  13.913  70.404  1.00  0.00     0.000 HD 
ENDBRANCH  16  18
ENDBRANCH   8  13
TORSDOF 2
ENDMDL
MODEL      117
REMARK 921   NORMALIZED FREE ENERGY PREDICTED BY IDOCK:   -3.52 KCAL/MOL
REMARK 922        TOTAL FREE ENERGY PREDICTED BY IDOCK:   -4.13 KCAL/MOL
REMARK 923 INTER-LIGAND FREE ENERGY PREDICTED BY IDOCK:   -3.96 KCAL/MOL
REMARK 924 INTRA-LIGAND FREE ENERGY PREDICTED BY IDOCK:   -0.17 KCAL/MOL
REMARK 927      BINDING AFFINITY PREDICTED BY RF-SCORE:    0.00 PKD
ROOT
HETATM    1  N   UNL     1      -9.043   6.973  65.753  1.00  0.00    -0.373 NA 
HETATM    2  H2  UNL     1      -8.103   7.152  65.397  1.00  0.00     0.000 HD 
HETATM    3  C   UNL     1      -9.311   7.005  67.095  1.00  0.00    -0.143 C  
HETATM    4  H1  UNL     1      -9.816   6.766  65.120  1.00  0.00     0.000 HD 
HETATM    5  N   UNL     1      -8.326   7.269  67.901  1.00  0.00    -0.119 N  
HETATM    6  H   UNL     1      -7.390   7.421  67.525  1.00  0.00     0.000 HD 
HETATM    7  C   UNL     1      -8.539   7.344  69.261  1.00  0.00    -0.137 C  
HETATM    8  N   UNL     1      -9.853   7.183  69.753  1.00  0.00    -0.172 N  
HETATM    9  O   UNL     1      -7.598   7.548  70.022  1.00  0.00    -0.085 OA 
HETATM   10  F   UNL     1     -11.626   6.409  66.700  1.00  0.00    -0.318 F  
HETATM   11  C   UNL     1     -10.889   6.869  68.893  1.00  0.00    -0.207 C  
HETATM   12  C   UNL     1     -10.677   6.747  67.589  1.00  0.00    -0.288 C  
ENDROOT
BRANCH   8  13
HETATM   13  C   UNL     1     -10.046   7.372  71.196  1.00  0.00    -0.186 C  
HETATM   14  C   UNL     1     -11.221   6.652  71.870  1.00  0.00    -0.264 C  
HETATM   15  S   UNL     1     -12.589   7.811  71.753  1.00  0.00    -0.327 SA 
HETATM   16  C   UNL     1     -11.453   9.214  71.772  1.00  0.00    -0.381 C  
HETATM   17  O   UNL     1     -10.120   8.785  71.459  1.00  0.00    -0.243 OA 
BRANCH  16  18
HETATM   18  C   UNL     1     -11.842  10.345  70.808  1.00  0.00    -0.368 C  
HETATM   19  O   UNL     1     -10.773  10.684  69.922  1.00  0.00    -0.348 OA 
HETATM   20  H   UNL     1     -11.013  11.384  69.326  1.00  0.00     0.000 HD 
ENDBRANCH  16  18
ENDBRANCH   8  13
TORSDOF 2
ENDMDL
MODEL      118
REMARK 921   NORMALIZED FREE ENERGY PREDICTED BY IDOCK:   -3.49 KCAL/MOL
REMARK 922        TOTAL FREE ENERGY PREDICTED BY IDOCK:   -4.10 KCAL/MOL
REMARK 923 INTER-LIGAND FREE ENERGY PREDICTED BY IDOCK:   -4.54 KCAL/MOL
REMARK 924 INTRA-LIGAND FREE ENERGY PREDICTED BY IDOCK:    0.44 KCAL/MOL
REMARK 927      BINDING AFFINITY PREDICTED BY RF-SCORE:    0.00 PKD
ROOT
HETATM    1  N   UNL     1     -13.079  15.911  73.678  1.00  0.00    -0.691 NA 
HETATM    2  H2  UNL     1     -13.721  15.637  74.422  1.00  0.00     0.000 HD 
HETATM    3  C   UNL     1     -12.684  15.017  72.719  1.00  0.00    -0.400 C  
HETATM    4  H1  UNL     1     -12.710  16.860  73.622  1.00  0.00     0.000 HD 
HETATM    5  N   UNL     1     -13.155  13.807  72.790  1.00  0.00    -0.420 N  
HETATM    6  H   UNL     1     -13.777  13.550  73.556  1.00  0.00     0.000 HD 
HETATM    7  C   UNL     1     -12.817  12.870  71.836  1.00  0.00    -0.210 C  
HETATM    8  N   UNL     1     -11.997  13.265  70.757  1.00  0.00    -0.216 N  
HETATM    9  O   UNL     1     -13.227  11.717  71.934  1.00  0.00    -0.482 OA 
HETATM   10  F   UNL     1     -11.256  16.679  71.684  1.00  0.00    -0.296 F  
HETATM   11  C   UNL     1     -11.473  14.543  70.706  1.00  0.00    -0.136 C  
HETATM   12  C   UNL     1     -11.756  15.433  71.649  1.00  0.00    -0.415 C  
ENDROOT
BRANCH   8  13
HETATM   13  C   UNL     1     -11.749  12.261  69.715  1.00  0.00    -0.298 C  
HETATM   14  C   UNL     1     -10.304  11.806  69.477  1.00  0.00     0.396 C  
HETATM   15  S   UNL     1      -9.671  12.939  68.234  1.00  0.00    -0.192 SA 
HETATM   16  C   UNL     1     -11.325  13.170  67.548  1.00  0.00    -0.298 C  
HETATM   17  O   UNL     1     -12.322  12.738  68.484  1.00  0.00    -0.046 OA 
BRANCH  16  18
HETATM   18  C   UNL     1     -11.634  14.617  67.136  1.00  0.00    -0.378 C  
HETATM   19  O   UNL     1     -12.400  15.303  68.128  1.00  0.00    -0.454 OA 
HETATM   20  H   UNL     1     -12.592  16.198  67.874  1.00  0.00     0.000 HD 
ENDBRANCH  16  18
ENDBRANCH   8  13
TORSDOF 2
ENDMDL
MODEL      119
REMARK 921   NORMALIZED FREE ENERGY PREDICTED BY IDOCK:   -3.48 KCAL/MOL
REMARK 922        TOTAL FREE ENERGY PREDICTED BY IDOCK:   -4.08 KCAL/MOL
REMARK 923 INTER-LIGAND FREE ENERGY PREDICTED BY IDOCK:   -4.01 KCAL/MOL
REMARK 924 INTRA-LIGAND FREE ENERGY PREDICTED BY IDOCK:   -0.07 KCAL/MOL
REMARK 927      BINDING AFFINITY PREDICTED BY RF-SCORE:    0.00 PKD
ROOT
HETATM    1  N   UNL     1     -10.940   5.856  69.277  1.00  0.00    -0.348 NA 
HETATM    2  H2  UNL     1     -11.014   5.608  70.264  1.00  0.00     0.000 HD 
HETATM    3  C   UNL     1     -10.886   7.164  68.877  1.00  0.00    -0.129 C  
HETATM    4  H1  UNL     1     -10.903   5.137  68.554  1.00  0.00     0.000 HD 
HETATM    5  N   UNL     1     -10.933   8.079  69.799  1.00  0.00    -0.397 N  
HETATM    6  H   UNL     1     -11.029   7.809  70.777  1.00  0.00     0.000 HD 
HETATM    7  C   UNL     1     -10.852   9.414  69.461  1.00  0.00    -0.213 C  
HETATM    8  N   UNL     1     -10.664   9.762  68.106  1.00  0.00    -0.237 N  
HETATM    9  O   UNL     1     -10.943  10.275  70.331  1.00  0.00    -0.296 OA 
HETATM   10  F   UNL     1     -10.808   6.503  66.547  1.00  0.00    -0.323 F  
HETATM   11  C   UNL     1     -10.649   8.785  67.128  1.00  0.00    -0.233 C  
HETATM   12  C   UNL     1     -10.777   7.502  67.445  1.00  0.00    -0.261 C  
ENDROOT
BRANCH   8  13
HETATM   13  C   UNL     1     -10.483  11.188  67.809  1.00  0.00    -0.193 C  
HETATM   14  C   UNL     1     -11.230  11.778  66.606  1.00  0.00    -0.323 C  
HETATM   15  S   UNL     1     -10.101  11.567  65.224  1.00  0.00    -0.281 SA 
HETATM   16  C   UNL     1      -8.674  11.666  66.325  1.00  0.00    -0.136 C  
HETATM   17  O   UNL     1      -9.072  11.446  67.685  1.00  0.00    -0.150 OA 
BRANCH  16  18
HETATM   18  C   UNL     1      -7.549  10.679  65.980  1.00  0.00    -0.142 C  
HETATM   19  O   UNL     1      -7.184  10.745  64.599  1.00  0.00    -0.354 OA 
HETATM   20  H   UNL     1      -6.489  10.135  64.385  1.00  0.00     0.000 HD 
ENDBRANCH  16  18
ENDBRANCH   8  13
TORSDOF 2
ENDMDL
MODEL      120
REMARK 921   NORMALIZED FREE ENERGY PREDICTED BY IDOCK:   -3.48 KCAL/MOL
REMARK 922        TOTAL FREE ENERGY PREDICTED BY IDOCK:   -4.08 KCAL/MOL
REMARK 923 INTER-LIGAND FREE ENERGY PREDICTED BY IDOCK:   -3.98 KCAL/MOL
REMARK 924 INTRA-LIGAND FREE ENERGY PREDICTED BY IDOCK:   -0.09 KCAL/MOL
REMARK 927      BINDING AFFINITY PREDICTED BY RF-SCORE:    0.00 PKD
ROOT
HETATM    1  N   UNL     1      -6.257  11.695  67.485  1.00  0.00    -0.072 NA 
HETATM    2  H2  UNL     1      -6.298  10.718  67.194  1.00  0.00     0.000 HD 
HETATM    3  C   UNL     1      -7.293  12.555  67.231  1.00  0.00    -0.113 C  
HETATM    4  H1  UNL     1      -5.443  12.066  67.975  1.00  0.00     0.000 HD 
HETATM    5  N   UNL     1      -8.330  12.082  66.607  1.00  0.00    -0.338 N  
HETATM    6  H   UNL     1      -8.339  11.108  66.305  1.00  0.00     0.000 HD 
HETATM    7  C   UNL     1      -9.417  12.890  66.350  1.00  0.00    -0.226 C  
HETATM    8  N   UNL     1      -9.402  14.220  66.824  1.00  0.00    -0.265 N  
HETATM    9  O   UNL     1     -10.374  12.452  65.718  1.00  0.00    -0.252 OA 
HETATM   10  F   UNL     1      -6.081  14.395  68.239  1.00  0.00    -0.084 F  
HETATM   11  C   UNL     1      -8.282  14.725  67.458  1.00  0.00    -0.185 C  
HETATM   12  C   UNL     1      -7.215  13.963  67.663  1.00  0.00    -0.174 C  
ENDROOT
BRANCH   8  13
HETATM   13  C   UNL     1     -10.622  15.009  66.615  1.00  0.00    -0.301 C  
HETATM   14  C   UNL     1     -10.472  16.499  66.280  1.00  0.00    -0.281 C  
HETATM   15  S   UNL     1     -10.470  17.324  67.876  1.00  0.00    -0.388 SA 
HETATM   16  C   UNL     1     -11.496  16.022  68.593  1.00  0.00    -0.377 C  
HETATM   17  O   UNL     1     -11.467  14.848  67.769  1.00  0.00    -0.318 OA 
BRANCH  16  18
HETATM   18  C   UNL     1     -11.095  15.627  70.022  1.00  0.00    -0.324 C  
HETATM   19  O   UNL     1     -12.172  15.009  70.729  1.00  0.00    -0.283 OA 
HETATM   20  H   UNL     1     -11.924  14.765  71.613  1.00  0.00     0.000 HD 
ENDBRANCH  16  18
ENDBRANCH   8  13
TORSDOF 2
ENDMDL
MODEL      121
REMARK 921   NORMALIZED FREE ENERGY PREDICTED BY IDOCK:   -3.48 KCAL/MOL
REMARK 922        TOTAL FREE ENERGY PREDICTED BY IDOCK:   -4.08 KCAL/MOL
REMARK 923 INTER-LIGAND FREE ENERGY PREDICTED BY IDOCK:   -3.98 KCAL/MOL
REMARK 924 INTRA-LIGAND FREE ENERGY PREDICTED BY IDOCK:   -0.10 KCAL/MOL
REMARK 927      BINDING AFFINITY PREDICTED BY RF-SCORE:    0.00 PKD
ROOT
HETATM    1  N   UNL     1      -6.946  21.037  64.817  1.00  0.00    -0.489 NA 
HETATM    2  H2  UNL     1      -7.263  21.978  65.048  1.00  0.00     0.000 HD 
HETATM    3  C   UNL     1      -6.927  20.044  65.760  1.00  0.00    -0.294 C  
HETATM    4  H1  UNL     1      -6.632  20.802  63.875  1.00  0.00     0.000 HD 
HETATM    5  N   UNL     1      -7.327  20.344  66.960  1.00  0.00    -0.286 N  
HETATM    6  H   UNL     1      -7.618  21.297  67.174  1.00  0.00     0.000 HD 
HETATM    7  C   UNL     1      -7.360  19.379  67.945  1.00  0.00    -0.260 C  
HETATM    8  N   UNL     1      -7.004  18.055  67.611  1.00  0.00    -0.197 N  
HETATM    9  O   UNL     1      -7.693  19.678  69.088  1.00  0.00    -0.339 OA 
HETATM   10  F   UNL     1      -6.001  18.474  64.164  1.00  0.00    -0.222 F  
HETATM   11  C   UNL     1      -6.548  17.751  66.342  1.00  0.00    -0.241 C  
HETATM   12  C   UNL     1      -6.468  18.687  65.405  1.00  0.00    -0.264 C  
ENDROOT
BRANCH   8  13
HETATM   13  C   UNL     1      -7.152  17.045  68.666  1.00  0.00    -0.210 C  
HETATM   14  C   UNL     1      -6.186  15.853  68.669  1.00  0.00    -0.104 C  
HETATM   15  S   UNL     1      -7.001  14.608  67.662  1.00  0.00    -0.172 SA 
HETATM   16  C   UNL     1      -8.626  15.249  68.116  1.00  0.00    -0.160 C  
HETATM   17  O   UNL     1      -8.512  16.574  68.653  1.00  0.00    -0.220 OA 
BRANCH  16  18
HETATM   18  C   UNL     1      -9.634  15.275  66.957  1.00  0.00    -0.224 C  
HETATM   19  O   UNL     1     -10.975  15.073  67.409  1.00  0.00    -0.298 OA 
HETATM   20  H   UNL     1     -11.598  15.090  66.693  1.00  0.00     0.000 HD 
ENDBRANCH  16  18
ENDBRANCH   8  13
TORSDOF 2
ENDMDL
MODEL      122
REMARK 921   NORMALIZED FREE ENERGY PREDICTED BY IDOCK:   -3.46 KCAL/MOL
REMARK 922        TOTAL FREE ENERGY PREDICTED BY IDOCK:   -4.06 KCAL/MOL
REMARK 923 INTER-LIGAND FREE ENERGY PREDICTED BY IDOCK:   -3.88 KCAL/MOL
REMARK 924 INTRA-LIGAND FREE ENERGY PREDICTED BY IDOCK:   -0.17 KCAL/MOL
REMARK 927      BINDING AFFINITY PREDICTED BY RF-SCORE:    0.00 PKD
ROOT
HETATM    1  N   UNL     1      -6.292  10.053  66.672  1.00  0.00    -0.068 NA 
HETATM    2  H2  UNL     1      -5.329  10.155  66.351  1.00  0.00     0.000 HD 
HETATM    3  C   UNL     1      -7.040  11.144  67.027  1.00  0.00    -0.124 C  
HETATM    4  H1  UNL     1      -6.731   9.135  66.739  1.00  0.00     0.000 HD 
HETATM    5  N   UNL     1      -6.480  12.313  66.942  1.00  0.00    -0.344 N  
HETATM    6  H   UNL     1      -5.509  12.390  66.640  1.00  0.00     0.000 HD 
HETATM    7  C   UNL     1      -7.192  13.452  67.256  1.00  0.00    -0.006 C  
HETATM    8  N   UNL     1      -8.550  13.325  67.620  1.00  0.00    -0.183 N  
HETATM    9  O   UNL     1      -6.644  14.550  67.219  1.00  0.00    -0.288 OA 
HETATM   10  F   UNL     1      -8.916   9.729  67.618  1.00  0.00    -0.126 F  
HETATM   11  C   UNL     1      -9.129  12.075  67.741  1.00  0.00    -0.187 C  
HETATM   12  C   UNL     1      -8.432  10.975  67.487  1.00  0.00    -0.127 C  
ENDROOT
BRANCH   8  13
HETATM   13  C   UNL     1      -9.292  14.571  67.847  1.00  0.00    -0.201 C  
HETATM   14  C   UNL     1     -10.536  14.520  68.743  1.00  0.00    -0.248 C  
HETATM   15  S   UNL     1     -11.891  14.171  67.615  1.00  0.00    -0.380 SA 
HETATM   16  C   UNL     1     -11.026  14.993  66.260  1.00  0.00    -0.338 C  
HETATM   17  O   UNL     1      -9.632  15.133  66.566  1.00  0.00    -0.239 OA 
BRANCH  16  18
HETATM   18  C   UNL     1     -11.160  14.276  64.908  1.00  0.00    -0.390 C  
HETATM   19  O   UNL     1      -9.962  13.584  64.548  1.00  0.00    -0.631 OA 
HETATM   20  H   UNL     1     -10.045  13.141  63.712  1.00  0.00     0.000 HD 
ENDBRANCH  16  18
ENDBRANCH   8  13
TORSDOF 2
ENDMDL
MODEL      123
REMARK 921   NORMALIZED FREE ENERGY PREDICTED BY IDOCK:   -3.44 KCAL/MOL
REMARK 922        TOTAL FREE ENERGY PREDICTED BY IDOCK:   -4.03 KCAL/MOL
REMARK 923 INTER-LIGAND FREE ENERGY PREDICTED BY IDOCK:   -4.18 KCAL/MOL
REMARK 924 INTRA-LIGAND FREE ENERGY PREDICTED BY IDOCK:    0.15 KCAL/MOL
REMARK 927      BINDING AFFINITY PREDICTED BY RF-SCORE:    0.00 PKD
ROOT
HETATM    1  N   UNL     1     -13.007  13.140  72.001  1.00  0.00    -0.324 NA 
HETATM    2  H2  UNL     1     -13.112  13.880  72.694  1.00  0.00     0.000 HD 
HETATM    3  C   UNL     1     -12.441  13.388  70.779  1.00  0.00    -0.341 C  
HETATM    4  H1  UNL     1     -13.319  12.188  72.193  1.00  0.00     0.000 HD 
HETATM    5  N   UNL     1     -12.042  14.601  70.534  1.00  0.00    -0.299 N  
HETATM    6  H   UNL     1     -12.179  15.330  71.233  1.00  0.00     0.000 HD 
HETATM    7  C   UNL     1     -11.437  14.907  69.333  1.00  0.00    -0.299 C  
HETATM    8  N   UNL     1     -11.210  13.869  68.403  1.00  0.00    -0.250 N  
HETATM    9  O   UNL     1     -11.105  16.063  69.088  1.00  0.00    -0.273 OA 
HETATM   10  F   UNL     1     -12.796  11.093  70.089  1.00  0.00    -0.294 F  
HETATM   11  C   UNL     1     -11.667  12.589  68.657  1.00  0.00    -0.325 C  
HETATM   12  C   UNL     1     -12.294  12.303  69.790  1.00  0.00    -0.016 C  
ENDROOT
BRANCH   8  13
HETATM   13  C   UNL     1     -10.473  14.224  67.184  1.00  0.00    -0.266 C  
HETATM   14  C   UNL     1     -11.186  15.077  66.127  1.00  0.00    -0.307 C  
HETATM   15  S   UNL     1     -11.978  13.883  65.043  1.00  0.00    -0.414 SA 
HETATM   16  C   UNL     1     -10.702  12.656  65.398  1.00  0.00    -0.280 C  
HETATM   17  O   UNL     1      -9.981  13.011  66.586  1.00  0.00    -0.238 OA 
BRANCH  16  18
HETATM   18  C   UNL     1     -11.238  11.226  65.560  1.00  0.00     0.001 C  
HETATM   19  O   UNL     1     -10.194  10.291  65.842  1.00  0.00    -0.254 OA 
HETATM   20  H   UNL     1     -10.525   9.407  65.943  1.00  0.00     0.000 HD 
ENDBRANCH  16  18
ENDBRANCH   8  13
TORSDOF 2
ENDMDL
MODEL      124
REMARK 921   NORMALIZED FREE ENERGY PREDICTED BY IDOCK:   -3.39 KCAL/MOL
REMARK 922        TOTAL FREE ENERGY PREDICTED BY IDOCK:   -3.98 KCAL/MOL
REMARK 923 INTER-LIGAND FREE ENERGY PREDICTED BY IDOCK:   -3.86 KCAL/MOL
REMARK 924 INTRA-LIGAND FREE ENERGY PREDICTED BY IDOCK:   -0.12 KCAL/MOL
REMARK 927      BINDING AFFINITY PREDICTED BY RF-SCORE:    0.00 PKD
ROOT
HETATM    1  N   UNL     1     -10.434  20.440  67.123  1.00  0.00    -0.183 NA 
HETATM    2  H2  UNL     1     -10.817  20.789  66.244  1.00  0.00     0.000 HD 
HETATM    3  C   UNL     1     -10.054  19.132  67.262  1.00  0.00    -0.376 C  
HETATM    4  H1  UNL     1     -10.321  21.055  67.930  1.00  0.00     0.000 HD 
HETATM    5  N   UNL     1     -10.198  18.350  66.234  1.00  0.00    -0.398 N  
HETATM    6  H   UNL     1     -10.604  18.714  65.373  1.00  0.00     0.000 HD 
HETATM    7  C   UNL     1      -9.805  17.030  66.302  1.00  0.00    -0.294 C  
HETATM    8  N   UNL     1      -9.196  16.562  67.487  1.00  0.00    -0.202 N  
HETATM    9  O   UNL     1      -9.986  16.283  65.344  1.00  0.00    -0.514 OA 
HETATM   10  F   UNL     1      -9.449  19.499  69.579  1.00  0.00    -0.350 F  
HETATM   11  C   UNL     1      -9.076  17.391  68.587  1.00  0.00    -0.261 C  
HETATM   12  C   UNL     1      -9.499  18.648  68.541  1.00  0.00    -0.350 C  
ENDROOT
BRANCH   8  13
HETATM   13  C   UNL     1      -8.703  15.180  67.475  1.00  0.00    -0.177 C  
HETATM   14  C   UNL     1      -8.609  14.433  68.812  1.00  0.00    -0.125 C  
HETATM   15  S   UNL     1      -6.954  14.790  69.414  1.00  0.00    -0.175 SA 
HETATM   16  C   UNL     1      -6.338  14.971  67.726  1.00  0.00    -0.156 C  
HETATM   17  O   UNL     1      -7.426  15.162  66.812  1.00  0.00    -0.050 OA 
BRANCH  16  18
HETATM   18  C   UNL     1      -5.339  16.124  67.546  1.00  0.00    -0.122 C  
HETATM   19  O   UNL     1      -5.792  17.327  68.172  1.00  0.00    -0.122 OA 
HETATM   20  H   UNL     1      -5.175  18.040  68.061  1.00  0.00     0.000 HD 
ENDBRANCH  16  18
ENDBRANCH   8  13
TORSDOF 2
ENDMDL
MODEL      125
REMARK 921   NORMALIZED FREE ENERGY PREDICTED BY IDOCK:   -3.38 KCAL/MOL
REMARK 922        TOTAL FREE ENERGY PREDICTED BY IDOCK:   -3.97 KCAL/MOL
REMARK 923 INTER-LIGAND FREE ENERGY PREDICTED BY IDOCK:   -3.91 KCAL/MOL
REMARK 924 INTRA-LIGAND FREE ENERGY PREDICTED BY IDOCK:   -0.06 KCAL/MOL
REMARK 927      BINDING AFFINITY PREDICTED BY RF-SCORE:    0.00 PKD
ROOT
HETATM    1  N   UNL     1      -5.878  12.715  70.877  1.00  0.00    -0.496 NA 
HETATM    2  H2  UNL     1      -5.912  11.696  70.854  1.00  0.00     0.000 HD 
HETATM    3  C   UNL     1      -6.615  13.469  70.004  1.00  0.00     0.112 C  
HETATM    4  H1  UNL     1      -5.293  13.208  71.552  1.00  0.00     0.000 HD 
HETATM    5  N   UNL     1      -7.360  12.840  69.144  1.00  0.00    -0.315 N  
HETATM    6  H   UNL     1      -7.362  11.821  69.125  1.00  0.00     0.000 HD 
HETATM    7  C   UNL     1      -8.149  13.544  68.259  1.00  0.00    -0.155 C  
HETATM    8  N   UNL     1      -8.172  14.953  68.341  1.00  0.00    -0.144 N  
HETATM    9  O   UNL     1      -8.815  12.947  67.418  1.00  0.00    -0.179 OA 
HETATM   10  F   UNL     1      -5.706  15.518  70.922  1.00  0.00    -0.139 F  
HETATM   11  C   UNL     1      -7.352  15.616  69.235  1.00  0.00    -0.207 C  
HETATM   12  C   UNL     1      -6.554  14.942  70.055  1.00  0.00    -0.162 C  
ENDROOT
BRANCH   8  13
HETATM   13  C   UNL     1      -9.102  15.652  67.447  1.00  0.00    -0.194 C  
HETATM   14  C   UNL     1      -9.000  17.180  67.345  1.00  0.00    -0.220 C  
HETATM   15  S   UNL     1     -10.106  17.792  68.622  1.00  0.00    -0.385 SA 
HETATM   16  C   UNL     1     -11.148  16.325  68.478  1.00  0.00    -0.368 C  
HETATM   17  O   UNL     1     -10.443  15.272  67.805  1.00  0.00    -0.245 OA 
BRANCH  16  18
HETATM   18  C   UNL     1     -11.661  15.788  69.822  1.00  0.00    -0.348 C  
HETATM   19  O   UNL     1     -10.828  14.747  70.336  1.00  0.00    -0.467 OA 
HETATM   20  H   UNL     1     -11.145  14.415  71.168  1.00  0.00     0.000 HD 
ENDBRANCH  16  18
ENDBRANCH   8  13
TORSDOF 2
ENDMDL
MODEL      126
REMARK 921   NORMALIZED FREE ENERGY PREDICTED BY IDOCK:   -3.36 KCAL/MOL
REMARK 922        TOTAL FREE ENERGY PREDICTED BY IDOCK:   -3.95 KCAL/MOL
REMARK 923 INTER-LIGAND FREE ENERGY PREDICTED BY IDOCK:   -3.86 KCAL/MOL
REMARK 924 INTRA-LIGAND FREE ENERGY PREDICTED BY IDOCK:   -0.10 KCAL/MOL
REMARK 927      BINDING AFFINITY PREDICTED BY RF-SCORE:    0.00 PKD
ROOT
HETATM    1  N   UNL     1      -9.240  17.689  68.587  1.00  0.00    -0.283 NA 
HETATM    2  H2  UNL     1      -8.594  18.170  69.213  1.00  0.00     0.000 HD 
HETATM    3  C   UNL     1      -9.068  16.369  68.268  1.00  0.00    -0.207 C  
HETATM    4  H1  UNL     1     -10.036  18.176  68.175  1.00  0.00     0.000 HD 
HETATM    5  N   UNL     1      -8.053  15.749  68.793  1.00  0.00    -0.165 N  
HETATM    6  H   UNL     1      -7.407  16.255  69.399  1.00  0.00     0.000 HD 
HETATM    7  C   UNL     1      -7.844  14.411  68.535  1.00  0.00    -0.138 C  
HETATM    8  N   UNL     1      -8.780  13.718  67.737  1.00  0.00    -0.170 N  
HETATM    9  O   UNL     1      -6.858  13.842  68.994  1.00  0.00    -0.106 OA 
HETATM   10  F   UNL     1     -10.996  16.416  66.803  1.00  0.00    -0.275 F  
HETATM   11  C   UNL     1      -9.838  14.392  67.156  1.00  0.00    -0.254 C  
HETATM   12  C   UNL     1     -10.014  15.691  67.362  1.00  0.00    -0.232 C  
ENDROOT
BRANCH   8  13
HETATM   13  C   UNL     1      -8.570  12.274  67.574  1.00  0.00    -0.174 C  
HETATM   14  C   UNL     1      -9.036  11.617  66.269  1.00  0.00    -0.214 C  
HETATM   15  S   UNL     1     -10.731  11.116  66.595  1.00  0.00    -0.253 SA 
HETATM   16  C   UNL     1     -10.374  10.918  68.354  1.00  0.00    -0.178 C  
HETATM   17  O   UNL     1      -9.162  11.603  68.701  1.00  0.00    -0.179 OA 
BRANCH  16  18
HETATM   18  C   UNL     1     -11.497  11.413  69.278  1.00  0.00    -0.303 C  
HETATM   19  O   UNL     1     -12.645  10.564  69.227  1.00  0.00    -0.726 OA 
HETATM   20  H   UNL     1     -13.339  10.869  69.799  1.00  0.00     0.000 HD 
ENDBRANCH  16  18
ENDBRANCH   8  13
TORSDOF 2
ENDMDL
MODEL      127
REMARK 921   NORMALIZED FREE ENERGY PREDICTED BY IDOCK:   -3.36 KCAL/MOL
REMARK 922        TOTAL FREE ENERGY PREDICTED BY IDOCK:   -3.94 KCAL/MOL
REMARK 923 INTER-LIGAND FREE ENERGY PREDICTED BY IDOCK:   -4.20 KCAL/MOL
REMARK 924 INTRA-LIGAND FREE ENERGY PREDICTED BY IDOCK:    0.26 KCAL/MOL
REMARK 927      BINDING AFFINITY PREDICTED BY RF-SCORE:    0.00 PKD
ROOT
HETATM    1  N   UNL     1     -11.287   6.400  67.337  1.00  0.00    -0.718 NA 
HETATM    2  H2  UNL     1     -12.202   6.739  67.040  1.00  0.00     0.000 HD 
HETATM    3  C   UNL     1     -10.973   6.277  68.664  1.00  0.00    -0.346 C  
HETATM    4  H1  UNL     1     -10.573   6.142  66.655  1.00  0.00     0.000 HD 
HETATM    5  N   UNL     1     -11.883   6.606  69.532  1.00  0.00    -0.632 N  
HETATM    6  H   UNL     1     -12.783   6.964  69.213  1.00  0.00     0.000 HD 
HETATM    7  C   UNL     1     -11.637   6.474  70.882  1.00  0.00    -0.359 C  
HETATM    8  N   UNL     1     -10.405   5.927  71.299  1.00  0.00    -0.213 N  
HETATM    9  O   UNL     1     -12.482   6.831  71.699  1.00  0.00    -0.351 OA 
HETATM   10  F   UNL     1      -8.733   5.532  68.119  1.00  0.00    -0.105 F  
HETATM   11  C   UNL     1      -9.430   5.610  70.371  1.00  0.00    -0.166 C  
HETATM   12  C   UNL     1      -9.644   5.783  69.073  1.00  0.00    -0.135 C  
ENDROOT
BRANCH   8  13
HETATM   13  C   UNL     1     -10.230   5.713  72.741  1.00  0.00    -0.185 C  
HETATM   14  C   UNL     1     -10.437   6.907  73.681  1.00  0.00    -0.369 C  
HETATM   15  S   UNL     1      -8.812   7.663  73.815  1.00  0.00    -0.271 SA 
HETATM   16  C   UNL     1      -8.006   6.072  73.532  1.00  0.00    -0.103 C  
HETATM   17  O   UNL     1      -8.929   5.137  72.957  1.00  0.00    -0.120 OA 
BRANCH  16  18
HETATM   18  C   UNL     1      -6.765   6.153  72.630  1.00  0.00    -0.069 C  
HETATM   19  O   UNL     1      -6.797   7.299  71.777  1.00  0.00    -0.057 OA 
HETATM   20  H   UNL     1      -6.030   7.349  71.219  1.00  0.00     0.000 HD 
ENDBRANCH  16  18
ENDBRANCH   8  13
TORSDOF 2
ENDMDL
MODEL      128
REMARK 921   NORMALIZED FREE ENERGY PREDICTED BY IDOCK:   -3.35 KCAL/MOL
REMARK 922        TOTAL FREE ENERGY PREDICTED BY IDOCK:   -3.94 KCAL/MOL
REMARK 923 INTER-LIGAND FREE ENERGY PREDICTED BY IDOCK:   -4.28 KCAL/MOL
REMARK 924 INTRA-LIGAND FREE ENERGY PREDICTED BY IDOCK:    0.35 KCAL/MOL
REMARK 927      BINDING AFFINITY PREDICTED BY RF-SCORE:    0.00 PKD
ROOT
HETATM    1  N   UNL     1     -11.415  15.545  69.718  1.00  0.00    -0.303 NA 
HETATM    2  H2  UNL     1     -12.395  15.794  69.850  1.00  0.00     0.000 HD 
HETATM    3  C   UNL     1     -10.491  16.480  69.335  1.00  0.00    -0.320 C  
HETATM    4  H1  UNL     1     -11.088  14.590  69.867  1.00  0.00     0.000 HD 
HETATM    5  N   UNL     1     -10.908  17.697  69.145  1.00  0.00    -0.228 N  
HETATM    6  H   UNL     1     -11.897  17.918  69.261  1.00  0.00     0.000 HD 
HETATM    7  C   UNL     1     -10.020  18.690  68.788  1.00  0.00    -0.383 C  
HETATM    8  N   UNL     1      -8.649  18.371  68.686  1.00  0.00    -0.318 N  
HETATM    9  O   UNL     1     -10.426  19.827  68.564  1.00  0.00    -0.415 OA 
HETATM   10  F   UNL     1      -8.737  14.809  69.295  1.00  0.00    -0.172 F  
HETATM   11  C   UNL     1      -8.218  17.068  68.856  1.00  0.00    -0.204 C  
HETATM   12  C   UNL     1      -9.078  16.101  69.151  1.00  0.00    -0.243 C  
ENDROOT
BRANCH   8  13
HETATM   13  C   UNL     1      -7.732  19.481  68.402  1.00  0.00    -0.337 C  
HETATM   14  C   UNL     1      -7.991  20.335  67.154  1.00  0.00    -0.339 C  
HETATM   15  S   UNL     1      -7.064  19.520  65.849  1.00  0.00    -0.299 SA 
HETATM   16  C   UNL     1      -5.860  18.895  67.040  1.00  0.00    -0.155 C  
HETATM   17  O   UNL     1      -6.390  18.961  68.372  1.00  0.00    -0.219 OA 
BRANCH  16  18
HETATM   18  C   UNL     1      -5.401  17.455  66.768  1.00  0.00    -0.174 C  
HETATM   19  O   UNL     1      -6.451  16.652  66.225  1.00  0.00    -0.176 OA 
HETATM   20  H   UNL     1      -6.168  15.761  66.057  1.00  0.00     0.000 HD 
ENDBRANCH  16  18
ENDBRANCH   8  13
TORSDOF 2
ENDMDL
MODEL      129
REMARK 921   NORMALIZED FREE ENERGY PREDICTED BY IDOCK:   -3.33 KCAL/MOL
REMARK 922        TOTAL FREE ENERGY PREDICTED BY IDOCK:   -3.91 KCAL/MOL
REMARK 923 INTER-LIGAND FREE ENERGY PREDICTED BY IDOCK:   -3.78 KCAL/MOL
REMARK 924 INTRA-LIGAND FREE ENERGY PREDICTED BY IDOCK:   -0.14 KCAL/MOL
REMARK 927      BINDING AFFINITY PREDICTED BY RF-SCORE:    0.00 PKD
ROOT
HETATM    1  N   UNL     1      -8.666   8.780  67.763  1.00  0.00    -0.135 NA 
HETATM    2  H2  UNL     1      -8.718   8.067  68.490  1.00  0.00     0.000 HD 
HETATM    3  C   UNL     1      -9.401   9.933  67.847  1.00  0.00    -0.137 C  
HETATM    4  H1  UNL     1      -8.064   8.661  66.949  1.00  0.00     0.000 HD 
HETATM    5  N   UNL     1     -10.168  10.085  68.885  1.00  0.00    -0.183 N  
HETATM    6  H   UNL     1     -10.221   9.349  69.588  1.00  0.00     0.000 HD 
HETATM    7  C   UNL     1     -10.909  11.238  69.041  1.00  0.00    -0.222 C  
HETATM    8  N   UNL     1     -10.776  12.266  68.083  1.00  0.00    -0.208 N  
HETATM    9  O   UNL     1     -11.667  11.357  69.999  1.00  0.00    -0.297 OA 
HETATM   10  F   UNL     1      -8.550  10.692  65.709  1.00  0.00    -0.155 F  
HETATM   11  C   UNL     1      -9.985  12.082  66.964  1.00  0.00    -0.204 C  
HETATM   12  C   UNL     1      -9.309  10.954  66.786  1.00  0.00    -0.165 C  
ENDROOT
BRANCH   8  13
HETATM   13  C   UNL     1     -11.507  13.512  68.345  1.00  0.00    -0.311 C  
HETATM   14  C   UNL     1     -12.013  14.321  67.144  1.00  0.00    -0.417 C  
HETATM   15  S   UNL     1     -10.666  15.445  66.756  1.00  0.00    -0.304 SA 
HETATM   16  C   UNL     1     -10.128  15.456  68.480  1.00  0.00    -0.213 C  
HETATM   17  O   UNL     1     -10.690  14.343  69.189  1.00  0.00    -0.248 OA 
BRANCH  16  18
HETATM   18  C   UNL     1      -8.603  15.430  68.658  1.00  0.00    -0.179 C  
HETATM   19  O   UNL     1      -8.213  14.700  69.823  1.00  0.00    -0.400 OA 
HETATM   20  H   UNL     1      -7.270  14.683  69.933  1.00  0.00     0.000 HD 
ENDBRANCH  16  18
ENDBRANCH   8  13
TORSDOF 2
ENDMDL
MODEL      130
REMARK 921   NORMALIZED FREE ENERGY PREDICTED BY IDOCK:   -3.30 KCAL/MOL
REMARK 922        TOTAL FREE ENERGY PREDICTED BY IDOCK:   -3.88 KCAL/MOL
REMARK 923 INTER-LIGAND FREE ENERGY PREDICTED BY IDOCK:   -3.98 KCAL/MOL
REMARK 924 INTRA-LIGAND FREE ENERGY PREDICTED BY IDOCK:    0.09 KCAL/MOL
REMARK 927      BINDING AFFINITY PREDICTED BY RF-SCORE:    0.00 PKD
ROOT
HETATM    1  N   UNL     1     -11.504   7.315  73.433  1.00  0.00    -0.530 NA 
HETATM    2  H2  UNL     1     -11.155   7.298  74.392  1.00  0.00     0.000 HD 
HETATM    3  C   UNL     1     -10.732   7.786  72.406  1.00  0.00    -0.290 C  
HETATM    4  H1  UNL     1     -12.441   6.980  73.207  1.00  0.00     0.000 HD 
HETATM    5  N   UNL     1      -9.538   8.212  72.694  1.00  0.00    -0.258 N  
HETATM    6  H   UNL     1      -9.219   8.208  73.662  1.00  0.00     0.000 HD 
HETATM    7  C   UNL     1      -8.702   8.670  71.698  1.00  0.00    -0.203 C  
HETATM    8  N   UNL     1      -9.147   8.617  70.359  1.00  0.00    -0.150 N  
HETATM    9  O   UNL     1      -7.594   9.116  71.981  1.00  0.00    -0.335 OA 
HETATM   10  F   UNL     1     -12.523   7.410  70.818  1.00  0.00    -0.316 F  
HETATM   11  C   UNL     1     -10.429   8.193  70.064  1.00  0.00    -0.231 C  
HETATM   12  C   UNL     1     -11.254   7.799  71.026  1.00  0.00    -0.266 C  
ENDROOT
BRANCH   8  13
HETATM   13  C   UNL     1      -8.184   9.020  69.327  1.00  0.00    -0.117 C  
HETATM   14  C   UNL     1      -7.959  10.519  69.093  1.00  0.00    -0.145 C  
HETATM   15  S   UNL     1      -9.165  10.968  67.839  1.00  0.00    -0.159 SA 
HETATM   16  C   UNL     1      -9.128   9.299  67.151  1.00  0.00    -0.130 C  
HETATM   17  O   UNL     1      -8.554   8.381  68.092  1.00  0.00    -0.137 OA 
BRANCH  16  18
HETATM   18  C   UNL     1     -10.505   8.767  66.726  1.00  0.00    -0.213 C  
HETATM   19  O   UNL     1     -10.488   7.356  66.500  1.00  0.00    -0.496 OA 
HETATM   20  H   UNL     1     -11.339   7.027  66.237  1.00  0.00     0.000 HD 
ENDBRANCH  16  18
ENDBRANCH   8  13
TORSDOF 2
ENDMDL
MODEL      131
REMARK 921   NORMALIZED FREE ENERGY PREDICTED BY IDOCK:   -3.30 KCAL/MOL
REMARK 922        TOTAL FREE ENERGY PREDICTED BY IDOCK:   -3.88 KCAL/MOL
REMARK 923 INTER-LIGAND FREE ENERGY PREDICTED BY IDOCK:   -3.84 KCAL/MOL
REMARK 924 INTRA-LIGAND FREE ENERGY PREDICTED BY IDOCK:   -0.04 KCAL/MOL
REMARK 927      BINDING AFFINITY PREDICTED BY RF-SCORE:    0.00 PKD
ROOT
HETATM    1  N   UNL     1      -8.667  11.694  68.992  1.00  0.00    -0.371 NA 
HETATM    2  H2  UNL     1      -9.178  12.526  69.288  1.00  0.00     0.000 HD 
HETATM    3  C   UNL     1      -9.135  10.438  69.271  1.00  0.00    -0.175 C  
HETATM    4  H1  UNL     1      -7.789  11.769  68.478  1.00  0.00     0.000 HD 
HETATM    5  N   UNL     1     -10.254  10.343  69.925  1.00  0.00    -0.415 N  
HETATM    6  H   UNL     1     -10.736  11.188  70.231  1.00  0.00     0.000 HD 
HETATM    7  C   UNL     1     -10.793   9.106  70.209  1.00  0.00    -0.246 C  
HETATM    8  N   UNL     1     -10.136   7.952  69.730  1.00  0.00    -0.195 N  
HETATM    9  O   UNL     1     -11.825   9.021  70.868  1.00  0.00    -0.282 OA 
HETATM   10  F   UNL     1      -7.198   9.426  68.225  1.00  0.00    -0.073 F  
HETATM   11  C   UNL     1      -8.929   8.060  69.064  1.00  0.00    -0.145 C  
HETATM   12  C   UNL     1      -8.383   9.247  68.833  1.00  0.00    -0.120 C  
ENDROOT
BRANCH   8  13
HETATM   13  C   UNL     1     -10.800   6.665  69.970  1.00  0.00    -0.280 C  
HETATM   14  C   UNL     1      -9.979   5.532  70.598  1.00  0.00    -0.207 C  
HETATM   15  S   UNL     1      -9.267   4.660  69.198  1.00  0.00    -0.141 SA 
HETATM   16  C   UNL     1     -10.661   5.127  68.149  1.00  0.00     0.199 C  
HETATM   17  O   UNL     1     -11.383   6.221  68.731  1.00  0.00    -0.356 OA 
BRANCH  16  18
HETATM   18  C   UNL     1     -10.264   5.509  66.716  1.00  0.00    -0.233 C  
HETATM   19  O   UNL     1     -11.226   5.064  65.757  1.00  0.00    -0.804 OA 
HETATM   20  H   UNL     1     -10.980   5.301  64.871  1.00  0.00     0.000 HD 
ENDBRANCH  16  18
ENDBRANCH   8  13
TORSDOF 2
ENDMDL
MODEL      132
REMARK 921   NORMALIZED FREE ENERGY PREDICTED BY IDOCK:   -3.30 KCAL/MOL
REMARK 922        TOTAL FREE ENERGY PREDICTED BY IDOCK:   -3.88 KCAL/MOL
REMARK 923 INTER-LIGAND FREE ENERGY PREDICTED BY IDOCK:   -3.77 KCAL/MOL
REMARK 924 INTRA-LIGAND FREE ENERGY PREDICTED BY IDOCK:   -0.11 KCAL/MOL
REMARK 927      BINDING AFFINITY PREDICTED BY RF-SCORE:    0.00 PKD
ROOT
HETATM    1  N   UNL     1     -10.303   5.469  66.249  1.00  0.00    -0.398 NA 
HETATM    2  H2  UNL     1     -10.036   4.764  65.562  1.00  0.00     0.000 HD 
HETATM    3  C   UNL     1      -9.769   6.729  66.215  1.00  0.00     0.009 C  
HETATM    4  H1  UNL     1     -10.978   5.260  66.985  1.00  0.00     0.000 HD 
HETATM    5  N   UNL     1      -8.909   6.995  65.277  1.00  0.00    -0.372 N  
HETATM    6  H   UNL     1      -8.639   6.268  64.616  1.00  0.00     0.000 HD 
HETATM    7  C   UNL     1      -8.359   8.255  65.172  1.00  0.00    -0.157 C  
HETATM    8  N   UNL     1      -8.788   9.260  66.066  1.00  0.00    -0.151 N  
HETATM    9  O   UNL     1      -7.512   8.488  64.314  1.00  0.00    -0.101 OA 
HETATM   10  F   UNL     1     -11.009   7.365  68.197  1.00  0.00    -0.219 F  
HETATM   11  C   UNL     1      -9.677   8.962  67.081  1.00  0.00    -0.184 C  
HETATM   12  C   UNL     1     -10.170   7.737  67.215  1.00  0.00    -0.273 C  
ENDROOT
BRANCH   8  13
HETATM   13  C   UNL     1      -8.250  10.609  65.851  1.00  0.00    -0.159 C  
HETATM   14  C   UNL     1      -7.720  11.381  67.066  1.00  0.00    -0.154 C  
HETATM   15  S   UNL     1      -9.146  12.281  67.687  1.00  0.00    -0.193 SA 
HETATM   16  C   UNL     1      -9.866  12.358  66.033  1.00  0.00    -0.257 C  
HETATM   17  O   UNL     1      -9.251  11.390  65.172  1.00  0.00    -0.194 OA 
BRANCH  16  18
HETATM   18  C   UNL     1     -11.386  12.144  66.004  1.00  0.00    -0.358 C  
HETATM   19  O   UNL     1     -11.887  11.685  67.262  1.00  0.00    -0.609 OA 
HETATM   20  H   UNL     1     -12.827  11.552  67.244  1.00  0.00     0.000 HD 
ENDBRANCH  16  18
ENDBRANCH   8  13
TORSDOF 2
ENDMDL
MODEL      133
REMARK 921   NORMALIZED FREE ENERGY PREDICTED BY IDOCK:   -3.29 KCAL/MOL
REMARK 922        TOTAL FREE ENERGY PREDICTED BY IDOCK:   -3.87 KCAL/MOL
REMARK 923 INTER-LIGAND FREE ENERGY PREDICTED BY IDOCK:   -3.92 KCAL/MOL
REMARK 924 INTRA-LIGAND FREE ENERGY PREDICTED BY IDOCK:    0.05 KCAL/MOL
REMARK 927      BINDING AFFINITY PREDICTED BY RF-SCORE:    0.00 PKD
ROOT
HETATM    1  N   UNL     1     -12.665  14.699  66.200  1.00  0.00    -0.206 NA 
HETATM    2  H2  UNL     1     -12.616  15.587  66.698  1.00  0.00     0.000 HD 
HETATM    3  C   UNL     1     -11.611  13.824  66.206  1.00  0.00    -0.350 C  
HETATM    4  H1  UNL     1     -13.500  14.431  65.679  1.00  0.00     0.000 HD 
HETATM    5  N   UNL     1     -10.547  14.165  66.869  1.00  0.00    -0.279 N  
HETATM    6  H   UNL     1     -10.512  15.068  67.341  1.00  0.00     0.000 HD 
HETATM    7  C   UNL     1      -9.465  13.313  66.938  1.00  0.00    -0.249 C  
HETATM    8  N   UNL     1      -9.558  12.046  66.322  1.00  0.00    -0.228 N  
HETATM    9  O   UNL     1      -8.445  13.660  67.526  1.00  0.00    -0.165 OA 
HETATM   10  F   UNL     1     -12.808  12.292  64.758  1.00  0.00    -0.539 F  
HETATM   11  C   UNL     1     -10.680  11.704  65.590  1.00  0.00    -0.278 C  
HETATM   12  C   UNL     1     -11.703  12.542  65.481  1.00  0.00    -0.409 C  
ENDROOT
BRANCH   8  13
HETATM   13  C   UNL     1      -8.421  11.136  66.508  1.00  0.00    -0.165 C  
HETATM   14  C   UNL     1      -8.395   9.834  65.698  1.00  0.00    -0.134 C  
HETATM   15  S   UNL     1      -9.246   8.639  66.737  1.00  0.00    -0.182 SA 
HETATM   16  C   UNL     1      -8.728   9.511  68.231  1.00  0.00    -0.120 C  
HETATM   17  O   UNL     1      -8.304  10.844  67.913  1.00  0.00    -0.115 OA 
BRANCH  16  18
HETATM   18  C   UNL     1      -9.812   9.588  69.316  1.00  0.00    -0.181 C  
HETATM   19  O   UNL     1      -9.252   9.734  70.623  1.00  0.00    -0.322 OA 
HETATM   20  H   UNL     1      -9.922   9.782  71.294  1.00  0.00     0.000 HD 
ENDBRANCH  16  18
ENDBRANCH   8  13
TORSDOF 2
ENDMDL
MODEL      134
REMARK 921   NORMALIZED FREE ENERGY PREDICTED BY IDOCK:   -3.29 KCAL/MOL
REMARK 922        TOTAL FREE ENERGY PREDICTED BY IDOCK:   -3.87 KCAL/MOL
REMARK 923 INTER-LIGAND FREE ENERGY PREDICTED BY IDOCK:   -4.42 KCAL/MOL
REMARK 924 INTRA-LIGAND FREE ENERGY PREDICTED BY IDOCK:    0.55 KCAL/MOL
REMARK 927      BINDING AFFINITY PREDICTED BY RF-SCORE:    0.00 PKD
ROOT
HETATM    1  N   UNL     1     -10.481  14.691  69.446  1.00  0.00    -0.368 NA 
HETATM    2  H2  UNL     1      -9.790  14.971  70.142  1.00  0.00     0.000 HD 
HETATM    3  C   UNL     1     -10.294  13.580  68.668  1.00  0.00    -0.214 C  
HETATM    4  H1  UNL     1     -11.337  15.229  69.307  1.00  0.00     0.000 HD 
HETATM    5  N   UNL     1      -9.204  12.895  68.846  1.00  0.00    -0.369 N  
HETATM    6  H   UNL     1      -8.516  13.207  69.531  1.00  0.00     0.000 HD 
HETATM    7  C   UNL     1      -8.972  11.750  68.114  1.00  0.00    -0.181 C  
HETATM    8  N   UNL     1      -9.963  11.309  67.210  1.00  0.00    -0.182 N  
HETATM    9  O   UNL     1      -7.920  11.133  68.252  1.00  0.00    -0.114 OA 
HETATM   10  F   UNL     1     -12.373  13.989  67.493  1.00  0.00    -0.412 F  
HETATM   11  C   UNL     1     -11.105  12.061  67.002  1.00  0.00    -0.298 C  
HETATM   12  C   UNL     1     -11.308  13.190  67.669  1.00  0.00    -0.298 C  
ENDROOT
BRANCH   8  13
HETATM   13  C   UNL     1      -9.716  10.032  66.529  1.00  0.00    -0.200 C  
HETATM   14  C   UNL     1      -8.265   9.652  66.208  1.00  0.00    -0.116 C  
HETATM   15  S   UNL     1      -7.971  10.335  64.572  1.00  0.00    -0.096 SA 
HETATM   16  C   UNL     1      -9.718  10.167  64.145  1.00  0.00    -0.233 C  
HETATM   17  O   UNL     1     -10.510  10.001  65.330  1.00  0.00    -0.139 OA 
BRANCH  16  18
HETATM   18  C   UNL     1     -10.280  11.348  63.342  1.00  0.00    -0.411 C  
HETATM   19  O   UNL     1     -11.708  11.317  63.272  1.00  0.00    -0.789 OA 
HETATM   20  H   UNL     1     -12.056  12.047  62.775  1.00  0.00     0.000 HD 
ENDBRANCH  16  18
ENDBRANCH   8  13
TORSDOF 2
ENDMDL
MODEL      135
REMARK 921   NORMALIZED FREE ENERGY PREDICTED BY IDOCK:   -3.28 KCAL/MOL
REMARK 922        TOTAL FREE ENERGY PREDICTED BY IDOCK:   -3.86 KCAL/MOL
REMARK 923 INTER-LIGAND FREE ENERGY PREDICTED BY IDOCK:   -3.76 KCAL/MOL
REMARK 924 INTRA-LIGAND FREE ENERGY PREDICTED BY IDOCK:   -0.10 KCAL/MOL
REMARK 927      BINDING AFFINITY PREDICTED BY RF-SCORE:    0.00 PKD
ROOT
HETATM    1  N   UNL     1      -5.152  15.749  71.455  1.00  0.00    -0.149 NA 
HETATM    2  H2  UNL     1      -5.080  14.732  71.488  1.00  0.00     0.000 HD 
HETATM    3  C   UNL     1      -5.433  16.403  70.285  1.00  0.00    -0.188 C  
HETATM    4  H1  UNL     1      -5.018  16.315  72.293  1.00  0.00     0.000 HD 
HETATM    5  N   UNL     1      -5.604  15.682  69.217  1.00  0.00    -0.106 N  
HETATM    6  H   UNL     1      -5.504  14.668  69.268  1.00  0.00     0.000 HD 
HETATM    7  C   UNL     1      -5.919  16.279  68.015  1.00  0.00    -0.117 C  
HETATM    8  N   UNL     1      -6.105  17.678  67.980  1.00  0.00    -0.156 N  
HETATM    9  O   UNL     1      -6.033  15.598  67.000  1.00  0.00    -0.295 OA 
HETATM   10  F   UNL     1      -5.275  18.554  71.387  1.00  0.00    -0.268 F  
HETATM   11  C   UNL     1      -5.889  18.442  69.112  1.00  0.00    -0.221 C  
HETATM   12  C   UNL     1      -5.537  17.874  70.259  1.00  0.00    -0.236 C  
ENDROOT
BRANCH   8  13
HETATM   13  C   UNL     1      -6.538  18.256  66.702  1.00  0.00    -0.193 C  
HETATM   14  C   UNL     1      -6.034  19.657  66.332  1.00  0.00    -0.166 C  
HETATM   15  S   UNL     1      -7.268  20.774  67.009  1.00  0.00    -0.281 SA 
HETATM   16  C   UNL     1      -8.558  19.524  66.824  1.00  0.00    -0.318 C  
HETATM   17  O   UNL     1      -7.976  18.223  66.657  1.00  0.00    -0.232 OA 
BRANCH  16  18
HETATM   18  C   UNL     1      -9.548  19.471  67.997  1.00  0.00    -0.359 C  
HETATM   19  O   UNL     1     -10.902  19.373  67.549  1.00  0.00    -0.478 OA 
HETATM   20  H   UNL     1     -11.515  19.340  68.274  1.00  0.00     0.000 HD 
ENDBRANCH  16  18
ENDBRANCH   8  13
TORSDOF 2
ENDMDL
MODEL      136
REMARK 921   NORMALIZED FREE ENERGY PREDICTED BY IDOCK:   -3.28 KCAL/MOL
REMARK 922        TOTAL FREE ENERGY PREDICTED BY IDOCK:   -3.86 KCAL/MOL
REMARK 923 INTER-LIGAND FREE ENERGY PREDICTED BY IDOCK:   -4.13 KCAL/MOL
REMARK 924 INTRA-LIGAND FREE ENERGY PREDICTED BY IDOCK:    0.27 KCAL/MOL
REMARK 927      BINDING AFFINITY PREDICTED BY RF-SCORE:    0.00 PKD
ROOT
HETATM    1  N   UNL     1      -7.880  18.106  68.440  1.00  0.00    -0.289 NA 
HETATM    2  H2  UNL     1      -8.217  18.881  69.011  1.00  0.00     0.000 HD 
HETATM    3  C   UNL     1      -8.658  17.002  68.214  1.00  0.00    -0.234 C  
HETATM    4  H1  UNL     1      -6.952  18.127  68.018  1.00  0.00     0.000 HD 
HETATM    5  N   UNL     1      -9.841  16.976  68.752  1.00  0.00    -0.266 N  
HETATM    6  H   UNL     1     -10.148  17.752  69.338  1.00  0.00     0.000 HD 
HETATM    7  C   UNL     1     -10.682  15.905  68.535  1.00  0.00    -0.274 C  
HETATM    8  N   UNL     1     -10.255  14.869  67.678  1.00  0.00    -0.235 N  
HETATM    9  O   UNL     1     -11.779  15.864  69.084  1.00  0.00    -0.376 OA 
HETATM   10  F   UNL     1      -6.893  15.960  66.921  1.00  0.00    -0.223 F  
HETATM   11  C   UNL     1      -8.983  14.887  67.136  1.00  0.00    -0.214 C  
HETATM   12  C   UNL     1      -8.153  15.892  67.383  1.00  0.00    -0.163 C  
ENDROOT
BRANCH   8  13
HETATM   13  C   UNL     1     -11.224  13.802  67.398  1.00  0.00    -0.310 C  
HETATM   14  C   UNL     1     -11.808  13.024  68.585  1.00  0.00    -0.318 C  
HETATM   15  S   UNL     1     -10.681  11.645  68.820  1.00  0.00    -0.215 SA 
HETATM   16  C   UNL     1     -10.252  11.646  67.066  1.00  0.00    -0.212 C  
HETATM   17  O   UNL     1     -10.629  12.889  66.458  1.00  0.00    -0.256 OA 
BRANCH  16  18
HETATM   18  C   UNL     1      -8.762  11.398  66.788  1.00  0.00    -0.174 C  
HETATM   19  O   UNL     1      -8.495  11.251  65.392  1.00  0.00    -0.377 OA 
HETATM   20  H   UNL     1      -7.574  11.097  65.219  1.00  0.00     0.000 HD 
ENDBRANCH  16  18
ENDBRANCH   8  13
TORSDOF 2
ENDMDL
MODEL      137
REMARK 921   NORMALIZED FREE ENERGY PREDICTED BY IDOCK:   -3.25 KCAL/MOL
REMARK 922        TOTAL FREE ENERGY PREDICTED BY IDOCK:   -3.83 KCAL/MOL
REMARK 923 INTER-LIGAND FREE ENERGY PREDICTED BY IDOCK:   -4.17 KCAL/MOL
REMARK 924 INTRA-LIGAND FREE ENERGY PREDICTED BY IDOCK:    0.34 KCAL/MOL
REMARK 927      BINDING AFFINITY PREDICTED BY RF-SCORE:    0.00 PKD
ROOT
HETATM    1  N   UNL     1     -10.703  10.910  63.683  1.00  0.00    -0.538 NA 
HETATM    2  H2  UNL     1     -11.490  10.824  63.040  1.00  0.00     0.000 HD 
HETATM    3  C   UNL     1     -10.768  11.731  64.777  1.00  0.00    -0.302 C  
HETATM    4  H1  UNL     1      -9.840  10.388  63.534  1.00  0.00     0.000 HD 
HETATM    5  N   UNL     1     -11.868  12.397  64.968  1.00  0.00    -0.382 N  
HETATM    6  H   UNL     1     -12.634  12.313  64.299  1.00  0.00     0.000 HD 
HETATM    7  C   UNL     1     -12.006  13.216  66.068  1.00  0.00    -0.433 C  
HETATM    8  N   UNL     1     -10.953  13.275  67.007  1.00  0.00    -0.272 N  
HETATM    9  O   UNL     1     -13.028  13.879  66.218  1.00  0.00    -0.219 OA 
HETATM   10  F   UNL     1      -8.492  11.177  65.394  1.00  0.00    -0.168 F  
HETATM   11  C   UNL     1      -9.774  12.591  66.781  1.00  0.00    -0.234 C  
HETATM   12  C   UNL     1      -9.620  11.840  65.697  1.00  0.00    -0.220 C  
ENDROOT
BRANCH   8  13
HETATM   13  C   UNL     1     -11.186  14.082  68.211  1.00  0.00    -0.268 C  
HETATM   14  C   UNL     1     -11.680  15.523  68.034  1.00  0.00    -0.186 C  
HETATM   15  S   UNL     1     -10.179  16.505  67.928  1.00  0.00    -0.283 SA 
HETATM   16  C   UNL     1      -9.285  15.320  68.956  1.00  0.00    -0.223 C  
HETATM   17  O   UNL     1      -9.985  14.068  69.003  1.00  0.00    -0.151 OA 
BRANCH  16  18
HETATM   18  C   UNL     1      -7.843  15.058  68.497  1.00  0.00    -0.137 C  
HETATM   19  O   UNL     1      -7.016  14.597  69.568  1.00  0.00    -0.153 OA 
HETATM   20  H   UNL     1      -6.124  14.435  69.284  1.00  0.00     0.000 HD 
ENDBRANCH  16  18
ENDBRANCH   8  13
TORSDOF 2
ENDMDL
MODEL      138
REMARK 921   NORMALIZED FREE ENERGY PREDICTED BY IDOCK:   -3.24 KCAL/MOL
REMARK 922        TOTAL FREE ENERGY PREDICTED BY IDOCK:   -3.81 KCAL/MOL
REMARK 923 INTER-LIGAND FREE ENERGY PREDICTED BY IDOCK:   -3.91 KCAL/MOL
REMARK 924 INTRA-LIGAND FREE ENERGY PREDICTED BY IDOCK:    0.10 KCAL/MOL
REMARK 927      BINDING AFFINITY PREDICTED BY RF-SCORE:    0.00 PKD
ROOT
HETATM    1  N   UNL     1      -6.776  15.281  66.904  1.00  0.00    -0.230 NA 
HETATM    2  H2  UNL     1      -6.645  16.248  66.607  1.00  0.00     0.000 HD 
HETATM    3  C   UNL     1      -8.009  14.813  67.272  1.00  0.00    -0.205 C  
HETATM    4  H1  UNL     1      -5.992  14.628  66.937  1.00  0.00     0.000 HD 
HETATM    5  N   UNL     1      -9.007  15.644  67.229  1.00  0.00    -0.192 N  
HETATM    6  H   UNL     1      -8.849  16.613  66.951  1.00  0.00     0.000 HD 
HETATM    7  C   UNL     1     -10.279  15.225  67.558  1.00  0.00    -0.239 C  
HETATM    8  N   UNL     1     -10.482  13.867  67.888  1.00  0.00    -0.239 N  
HETATM    9  O   UNL     1     -11.210  16.025  67.562  1.00  0.00    -0.261 OA 
HETATM   10  F   UNL     1      -7.087  12.632  67.784  1.00  0.00    -0.080 F  
HETATM   11  C   UNL     1      -9.411  12.997  67.964  1.00  0.00    -0.213 C  
HETATM   12  C   UNL     1      -8.178  13.410  67.696  1.00  0.00    -0.177 C  
ENDROOT
BRANCH   8  13
HETATM   13  C   UNL     1     -11.868  13.447  68.132  1.00  0.00    -0.361 C  
HETATM   14  C   UNL     1     -12.455  13.663  69.532  1.00  0.00    -0.043 C  
HETATM   15  S   UNL     1     -12.066  12.151  70.423  1.00  0.00    -0.215 SA 
HETATM   16  C   UNL     1     -12.098  11.195  68.892  1.00  0.00    -0.207 C  
HETATM   17  O   UNL     1     -11.991  12.064  67.755  1.00  0.00    -0.538 OA 
BRANCH  16  18
HETATM   18  C   UNL     1     -10.997  10.129  68.798  1.00  0.00    -0.223 C  
HETATM   19  O   UNL     1     -11.084   9.373  67.588  1.00  0.00    -0.488 OA 
HETATM   20  H   UNL     1     -10.403   8.714  67.531  1.00  0.00     0.000 HD 
ENDBRANCH  16  18
ENDBRANCH   8  13
TORSDOF 2
ENDMDL
MODEL      139
REMARK 921   NORMALIZED FREE ENERGY PREDICTED BY IDOCK:   -3.19 KCAL/MOL
REMARK 922        TOTAL FREE ENERGY PREDICTED BY IDOCK:   -3.76 KCAL/MOL
REMARK 923 INTER-LIGAND FREE ENERGY PREDICTED BY IDOCK:   -3.62 KCAL/MOL
REMARK 924 INTRA-LIGAND FREE ENERGY PREDICTED BY IDOCK:   -0.13 KCAL/MOL
REMARK 927      BINDING AFFINITY PREDICTED BY RF-SCORE:    0.00 PKD
ROOT
HETATM    1  N   UNL     1     -13.642   8.326  71.433  1.00  0.00    -0.529 NA 
HETATM    2  H2  UNL     1     -14.533   7.925  71.726  1.00  0.00     0.000 HD 
HETATM    3  C   UNL     1     -12.461   7.675  71.669  1.00  0.00    -0.335 C  
HETATM    4  H1  UNL     1     -13.601   9.225  70.953  1.00  0.00     0.000 HD 
HETATM    5  N   UNL     1     -12.514   6.530  72.281  1.00  0.00    -0.549 N  
HETATM    6  H   UNL     1     -13.414   6.159  72.585  1.00  0.00     0.000 HD 
HETATM    7  C   UNL     1     -11.361   5.813  72.520  1.00  0.00    -0.307 C  
HETATM    8  N   UNL     1     -10.134   6.320  72.042  1.00  0.00    -0.182 N  
HETATM    9  O   UNL     1     -11.412   4.754  73.139  1.00  0.00    -0.309 OA 
HETATM   10  F   UNL     1     -11.202   9.491  70.674  1.00  0.00    -0.267 F  
HETATM   11  C   UNL     1     -10.080   7.555  71.422  1.00  0.00    -0.186 C  
HETATM   12  C   UNL     1     -11.182   8.271  71.235  1.00  0.00    -0.259 C  
ENDROOT
BRANCH   8  13
HETATM   13  C   UNL     1      -8.949   5.474  72.232  1.00  0.00    -0.139 C  
HETATM   14  C   UNL     1      -7.634   6.149  72.642  1.00  0.00    -0.101 C  
HETATM   15  S   UNL     1      -6.830   6.554  71.087  1.00  0.00    -0.068 SA 
HETATM   16  C   UNL     1      -7.632   5.161  70.265  1.00  0.00    -0.071 C  
HETATM   17  O   UNL     1      -8.752   4.700  71.035  1.00  0.00    -0.110 OA 
BRANCH  16  18
HETATM   18  C   UNL     1      -8.113   5.469  68.839  1.00  0.00    -0.095 C  
HETATM   19  O   UNL     1      -9.342   4.808  68.533  1.00  0.00    -0.118 OA 
HETATM   20  H   UNL     1      -9.639   4.998  67.652  1.00  0.00     0.000 HD 
ENDBRANCH  16  18
ENDBRANCH   8  13
TORSDOF 2
ENDMDL
MODEL      140
REMARK 921   NORMALIZED FREE ENERGY PREDICTED BY IDOCK:   -3.18 KCAL/MOL
REMARK 922        TOTAL FREE ENERGY PREDICTED BY IDOCK:   -3.75 KCAL/MOL
REMARK 923 INTER-LIGAND FREE ENERGY PREDICTED BY IDOCK:   -3.71 KCAL/MOL
REMARK 924 INTRA-LIGAND FREE ENERGY PREDICTED BY IDOCK:   -0.04 KCAL/MOL
REMARK 927      BINDING AFFINITY PREDICTED BY RF-SCORE:    0.00 PKD
ROOT
HETATM    1  N   UNL     1     -12.024  10.952  68.240  1.00  0.00    -0.788 NA 
HETATM    2  H2  UNL     1     -12.522  11.831  68.382  1.00  0.00     0.000 HD 
HETATM    3  C   UNL     1     -11.221  10.761  67.147  1.00  0.00    -0.147 C  
HETATM    4  H1  UNL     1     -12.106  10.185  68.908  1.00  0.00     0.000 HD 
HETATM    5  N   UNL     1     -11.117  11.738  66.297  1.00  0.00    -0.308 N  
HETATM    6  H   UNL     1     -11.642  12.599  66.447  1.00  0.00     0.000 HD 
HETATM    7  C   UNL     1     -10.300  11.617  65.192  1.00  0.00    -0.279 C  
HETATM    8  N   UNL     1      -9.542  10.436  65.034  1.00  0.00    -0.254 N  
HETATM    9  O   UNL     1     -10.241  12.524  64.368  1.00  0.00    -0.330 OA 
HETATM   10  F   UNL     1     -10.722   8.495  67.846  1.00  0.00    -0.278 F  
HETATM   11  C   UNL     1      -9.684   9.389  65.925  1.00  0.00    -0.285 C  
HETATM   12  C   UNL     1     -10.507   9.483  66.962  1.00  0.00    -0.232 C  
ENDROOT
BRANCH   8  13
HETATM   13  C   UNL     1      -8.612  10.396  63.899  1.00  0.00    -0.176 C  
HETATM   14  C   UNL     1      -8.777   9.273  62.867  1.00  0.00    -0.205 C  
HETATM   15  S   UNL     1      -7.745   7.937  63.484  1.00  0.00    -0.137 SA 
HETATM   16  C   UNL     1      -6.635   9.113  64.286  1.00  0.00    -0.084 C  
HETATM   17  O   UNL     1      -7.269  10.393  64.417  1.00  0.00    -0.104 OA 
BRANCH  16  18
HETATM   18  C   UNL     1      -6.147   8.665  65.672  1.00  0.00    -0.052 C  
HETATM   19  O   UNL     1      -6.643   7.371  66.021  1.00  0.00    -0.047 OA 
HETATM   20  H   UNL     1      -6.341   7.094  66.878  1.00  0.00     0.000 HD 
ENDBRANCH  16  18
ENDBRANCH   8  13
TORSDOF 2
ENDMDL
MODEL      141
REMARK 921   NORMALIZED FREE ENERGY PREDICTED BY IDOCK:   -3.18 KCAL/MOL
REMARK 922        TOTAL FREE ENERGY PREDICTED BY IDOCK:   -3.75 KCAL/MOL
REMARK 923 INTER-LIGAND FREE ENERGY PREDICTED BY IDOCK:   -3.63 KCAL/MOL
REMARK 924 INTRA-LIGAND FREE ENERGY PREDICTED BY IDOCK:   -0.12 KCAL/MOL
REMARK 927      BINDING AFFINITY PREDICTED BY RF-SCORE:    0.00 PKD
ROOT
HETATM    1  N   UNL     1     -12.257   9.012  72.069  1.00  0.00    -0.369 NA 
HETATM    2  H2  UNL     1     -12.732   9.665  71.446  1.00  0.00     0.000 HD 
HETATM    3  C   UNL     1     -11.683   7.864  71.591  1.00  0.00    -0.281 C  
HETATM    4  H1  UNL     1     -12.192   9.192  73.071  1.00  0.00     0.000 HD 
HETATM    5  N   UNL     1     -11.766   7.635  70.315  1.00  0.00    -0.486 N  
HETATM    6  H   UNL     1     -12.266   8.290  69.713  1.00  0.00     0.000 HD 
HETATM    7  C   UNL     1     -11.182   6.512  69.769  1.00  0.00    -0.395 C  
HETATM    8  N   UNL     1     -10.450   5.648  70.612  1.00  0.00    -0.253 N  
HETATM    9  O   UNL     1     -11.303   6.276  68.570  1.00  0.00    -0.324 OA 
HETATM   10  F   UNL     1     -11.018   7.204  73.825  1.00  0.00    -0.376 F  
HETATM   11  C   UNL     1     -10.395   5.881  71.974  1.00  0.00    -0.207 C  
HETATM   12  C   UNL     1     -10.998   6.935  72.510  1.00  0.00    -0.260 C  
ENDROOT
BRANCH   8  13
HETATM   13  C   UNL     1      -9.763   4.522  69.969  1.00  0.00    -0.213 C  
HETATM   14  C   UNL     1      -9.353   3.329  70.842  1.00  0.00    -0.150 C  
HETATM   15  S   UNL     1      -7.698   3.734  71.413  1.00  0.00    -0.057 SA 
HETATM   16  C   UNL     1      -7.383   4.710  69.927  1.00  0.00    -0.054 C  
HETATM   17  O   UNL     1      -8.615   5.035  69.269  1.00  0.00    -0.087 OA 
BRANCH  16  18
HETATM   18  C   UNL     1      -6.609   6.010  70.187  1.00  0.00    -0.040 C  
HETATM   19  O   UNL     1      -7.278   6.853  71.128  1.00  0.00    -0.073 OA 
HETATM   20  H   UNL     1      -6.800   7.657  71.289  1.00  0.00     0.000 HD 
ENDBRANCH  16  18
ENDBRANCH   8  13
TORSDOF 2
ENDMDL
MODEL      142
REMARK 921   NORMALIZED FREE ENERGY PREDICTED BY IDOCK:   -3.18 KCAL/MOL
REMARK 922        TOTAL FREE ENERGY PREDICTED BY IDOCK:   -3.74 KCAL/MOL
REMARK 923 INTER-LIGAND FREE ENERGY PREDICTED BY IDOCK:   -3.60 KCAL/MOL
REMARK 924 INTRA-LIGAND FREE ENERGY PREDICTED BY IDOCK:   -0.14 KCAL/MOL
REMARK 927      BINDING AFFINITY PREDICTED BY RF-SCORE:    0.00 PKD
ROOT
HETATM    1  N   UNL     1     -10.350  16.766  68.258  1.00  0.00    -0.301 NA 
HETATM    2  H2  UNL     1      -9.725  17.492  68.609  1.00  0.00     0.000 HD 
HETATM    3  C   UNL     1      -9.876  15.532  67.902  1.00  0.00    -0.216 C  
HETATM    4  H1  UNL     1     -11.352  16.935  68.161  1.00  0.00     0.000 HD 
HETATM    5  N   UNL     1      -8.600  15.318  68.026  1.00  0.00    -0.150 N  
HETATM    6  H   UNL     1      -7.990  16.065  68.357  1.00  0.00     0.000 HD 
HETATM    7  C   UNL     1      -8.066  14.086  67.712  1.00  0.00    -0.167 C  
HETATM    8  N   UNL     1      -8.937  13.051  67.308  1.00  0.00    -0.203 N  
HETATM    9  O   UNL     1      -6.855  13.902  67.786  1.00  0.00    -0.146 OA 
HETATM   10  F   UNL     1     -12.091  14.816  67.231  1.00  0.00    -0.396 F  
HETATM   11  C   UNL     1     -10.288  13.296  67.146  1.00  0.00    -0.248 C  
HETATM   12  C   UNL     1     -10.797  14.495  67.400  1.00  0.00    -0.291 C  
ENDROOT
BRANCH   8  13
HETATM   13  C   UNL     1      -8.336  11.731  67.083  1.00  0.00    -0.168 C  
HETATM   14  C   UNL     1      -8.698  10.979  65.795  1.00  0.00    -0.174 C  
HETATM   15  S   UNL     1     -10.146  10.008  66.231  1.00  0.00    -0.226 SA 
HETATM   16  C   UNL     1      -9.606   9.905  67.951  1.00  0.00    -0.138 C  
HETATM   17  O   UNL     1      -8.617  10.906  68.228  1.00  0.00    -0.127 OA 
BRANCH  16  18
HETATM   18  C   UNL     1     -10.745  10.046  68.972  1.00  0.00    -0.220 C  
HETATM   19  O   UNL     1     -10.527  11.136  69.870  1.00  0.00    -0.432 OA 
HETATM   20  H   UNL     1     -11.230  11.223  70.502  1.00  0.00     0.000 HD 
ENDBRANCH  16  18
ENDBRANCH   8  13
TORSDOF 2
ENDMDL
MODEL      143
REMARK 921   NORMALIZED FREE ENERGY PREDICTED BY IDOCK:   -3.17 KCAL/MOL
REMARK 922        TOTAL FREE ENERGY PREDICTED BY IDOCK:   -3.74 KCAL/MOL
REMARK 923 INTER-LIGAND FREE ENERGY PREDICTED BY IDOCK:   -3.98 KCAL/MOL
REMARK 924 INTRA-LIGAND FREE ENERGY PREDICTED BY IDOCK:    0.24 KCAL/MOL
REMARK 927      BINDING AFFINITY PREDICTED BY RF-SCORE:    0.00 PKD
ROOT
HETATM    1  N   UNL     1      -9.320  20.757  66.657  1.00  0.00    -0.624 NA 
HETATM    2  H2  UNL     1      -8.842  21.648  66.522  1.00  0.00     0.000 HD 
HETATM    3  C   UNL     1      -8.707  19.712  67.294  1.00  0.00    -0.312 C  
HETATM    4  H1  UNL     1     -10.273  20.614  66.321  1.00  0.00     0.000 HD 
HETATM    5  N   UNL     1      -7.494  19.894  67.723  1.00  0.00    -0.284 N  
HETATM    6  H   UNL     1      -7.027  20.786  67.557  1.00  0.00     0.000 HD 
HETATM    7  C   UNL     1      -6.835  18.890  68.399  1.00  0.00    -0.252 C  
HETATM    8  N   UNL     1      -7.521  17.685  68.664  1.00  0.00    -0.265 N  
HETATM    9  O   UNL     1      -5.672  19.051  68.760  1.00  0.00    -0.202 OA 
HETATM   10  F   UNL     1     -10.643  18.296  66.947  1.00  0.00    -0.364 F  
HETATM   11  C   UNL     1      -8.799  17.486  68.176  1.00  0.00    -0.263 C  
HETATM   12  C   UNL     1      -9.418  18.432  67.481  1.00  0.00    -0.270 C  
ENDROOT
BRANCH   8  13
HETATM   13  C   UNL     1      -6.814  16.686  69.474  1.00  0.00    -0.157 C  
HETATM   14  C   UNL     1      -5.521  16.080  68.912  1.00  0.00    -0.108 C  
HETATM   15  S   UNL     1      -6.062  14.635  67.991  1.00  0.00    -0.158 SA 
HETATM   16  C   UNL     1      -7.491  14.431  69.076  1.00  0.00    -0.119 C  
HETATM   17  O   UNL     1      -7.742  15.638  69.808  1.00  0.00    -0.166 OA 
BRANCH  16  18
HETATM   18  C   UNL     1      -8.779  14.027  68.343  1.00  0.00    -0.179 C  
HETATM   19  O   UNL     1      -8.969  12.610  68.337  1.00  0.00    -0.258 OA 
HETATM   20  H   UNL     1      -9.765  12.360  67.884  1.00  0.00     0.000 HD 
ENDBRANCH  16  18
ENDBRANCH   8  13
TORSDOF 2
ENDMDL
MODEL      144
REMARK 921   NORMALIZED FREE ENERGY PREDICTED BY IDOCK:   -3.17 KCAL/MOL
REMARK 922        TOTAL FREE ENERGY PREDICTED BY IDOCK:   -3.73 KCAL/MOL
REMARK 923 INTER-LIGAND FREE ENERGY PREDICTED BY IDOCK:   -4.16 KCAL/MOL
REMARK 924 INTRA-LIGAND FREE ENERGY PREDICTED BY IDOCK:    0.43 KCAL/MOL
REMARK 927      BINDING AFFINITY PREDICTED BY RF-SCORE:    0.00 PKD
ROOT
HETATM    1  N   UNL     1      -9.655   9.203  67.924  1.00  0.00    -0.144 NA 
HETATM    2  H2  UNL     1      -8.929   8.889  67.281  1.00  0.00     0.000 HD 
HETATM    3  C   UNL     1     -10.089  10.502  67.924  1.00  0.00    -0.176 C  
HETATM    4  H1  UNL     1     -10.086   8.560  68.589  1.00  0.00     0.000 HD 
HETATM    5  N   UNL     1      -9.541  11.321  67.077  1.00  0.00    -0.177 N  
HETATM    6  H   UNL     1      -8.800  10.991  66.459  1.00  0.00     0.000 HD 
HETATM    7  C   UNL     1      -9.956  12.634  67.008  1.00  0.00    -0.219 C  
HETATM    8  N   UNL     1     -11.020  13.055  67.836  1.00  0.00    -0.234 N  
HETATM    9  O   UNL     1      -9.403  13.416  66.239  1.00  0.00    -0.222 OA 
HETATM   10  F   UNL     1     -11.609  10.050  69.756  1.00  0.00    -0.256 F  
HETATM   11  C   UNL     1     -11.575  12.187  68.758  1.00  0.00    -0.327 C  
HETATM   12  C   UNL     1     -11.143  10.936  68.861  1.00  0.00    -0.252 C  
ENDROOT
BRANCH   8  13
HETATM   13  C   UNL     1     -11.493  14.433  67.655  1.00  0.00    -0.346 C  
HETATM   14  C   UNL     1     -10.446  15.544  67.499  1.00  0.00    -0.282 C  
HETATM   15  S   UNL     1     -10.127  16.102  69.177  1.00  0.00    -0.268 SA 
HETATM   16  C   UNL     1     -11.798  15.648  69.688  1.00  0.00    -0.362 C  
HETATM   17  O   UNL     1     -12.386  14.748  68.738  1.00  0.00    -0.143 OA 
BRANCH  16  18
HETATM   18  C   UNL     1     -11.872  15.007  71.081  1.00  0.00    -0.333 C  
HETATM   19  O   UNL     1     -12.417  15.901  72.054  1.00  0.00    -0.420 OA 
HETATM   20  H   UNL     1     -12.463  15.505  72.915  1.00  0.00     0.000 HD 
ENDBRANCH  16  18
ENDBRANCH   8  13
TORSDOF 2
ENDMDL
MODEL      145
REMARK 921   NORMALIZED FREE ENERGY PREDICTED BY IDOCK:   -3.10 KCAL/MOL
REMARK 922        TOTAL FREE ENERGY PREDICTED BY IDOCK:   -3.66 KCAL/MOL
REMARK 923 INTER-LIGAND FREE ENERGY PREDICTED BY IDOCK:   -5.80 KCAL/MOL
REMARK 924 INTRA-LIGAND FREE ENERGY PREDICTED BY IDOCK:    2.14 KCAL/MOL
REMARK 927      BINDING AFFINITY PREDICTED BY RF-SCORE:    0.00 PKD
ROOT
HETATM    1  N   UNL     1     -12.078  16.382  72.259  1.00  0.00    -0.606 NA 
HETATM    2  H2  UNL     1     -11.599  17.282  72.241  1.00  0.00     0.000 HD 
HETATM    3  C   UNL     1     -11.870  15.448  71.279  1.00  0.00    -0.380 C  
HETATM    4  H1  UNL     1     -12.729  16.146  73.008  1.00  0.00     0.000 HD 
HETATM    5  N   UNL     1     -11.041  15.750  70.325  1.00  0.00    -0.331 N  
HETATM    6  H   UNL     1     -10.590  16.665  70.315  1.00  0.00     0.000 HD 
HETATM    7  C   UNL     1     -10.766  14.840  69.326  1.00  0.00    -0.256 C  
HETATM    8  N   UNL     1     -11.361  13.561  69.391  1.00  0.00    -0.254 N  
HETATM    9  O   UNL     1     -10.018  15.146  68.402  1.00  0.00    -0.214 OA 
HETATM   10  F   UNL     1     -13.468  13.942  72.302  1.00  0.00    -0.423 F  
HETATM   11  C   UNL     1     -12.267  13.259  70.390  1.00  0.00    -0.332 C  
HETATM   12  C   UNL     1     -12.571  14.151  71.324  1.00  0.00    -0.363 C  
ENDROOT
BRANCH   8  13
HETATM   13  C   UNL     1     -10.960  12.593  68.362  1.00  0.00    -0.257 C  
HETATM   14  C   UNL     1      -9.605  12.791  67.670  1.00  0.00    -0.192 C  
HETATM   15  S   UNL     1      -9.971  13.827  66.248  1.00  0.00    -0.309 SA 
HETATM   16  C   UNL     1     -11.647  13.164  66.147  1.00  0.00    -0.355 C  
HETATM   17  O   UNL     1     -12.008  12.522  67.378  1.00  0.00    -0.456 OA 
BRANCH  16  18
HETATM   18  C   UNL     1     -12.716  14.215  65.812  1.00  0.00    -0.413 C  
HETATM   19  O   UNL     1     -12.701  14.572  64.428  1.00  0.00    -0.655 OA 
HETATM   20  H   UNL     1     -13.361  15.222  64.221  1.00  0.00     0.000 HD 
ENDBRANCH  16  18
ENDBRANCH   8  13
TORSDOF 2
ENDMDL
MODEL      146
REMARK 921   NORMALIZED FREE ENERGY PREDICTED BY IDOCK:   -3.09 KCAL/MOL
REMARK 922        TOTAL FREE ENERGY PREDICTED BY IDOCK:   -3.65 KCAL/MOL
REMARK 923 INTER-LIGAND FREE ENERGY PREDICTED BY IDOCK:   -4.30 KCAL/MOL
REMARK 924 INTRA-LIGAND FREE ENERGY PREDICTED BY IDOCK:    0.65 KCAL/MOL
REMARK 927      BINDING AFFINITY PREDICTED BY RF-SCORE:    0.00 PKD
ROOT
HETATM    1  N   UNL     1      -8.913   8.817  69.406  1.00  0.00    -0.143 NA 
HETATM    2  H2  UNL     1      -8.211   8.202  68.997  1.00  0.00     0.000 HD 
HETATM    3  C   UNL     1      -9.601   9.718  68.637  1.00  0.00    -0.151 C  
HETATM    4  H1  UNL     1      -9.129   8.783  70.403  1.00  0.00     0.000 HD 
HETATM    5  N   UNL     1      -9.326   9.761  67.367  1.00  0.00    -0.133 N  
HETATM    6  H   UNL     1      -8.604   9.152  66.984  1.00  0.00     0.000 HD 
HETATM    7  C   UNL     1     -10.006  10.625  66.536  1.00  0.00    -0.215 C  
HETATM    8  N   UNL     1     -11.039  11.420  67.079  1.00  0.00    -0.295 N  
HETATM    9  O   UNL     1      -9.711  10.695  65.346  1.00  0.00    -0.217 OA 
HETATM   10  F   UNL     1     -10.792  10.546  70.578  1.00  0.00    -0.341 F  
HETATM   11  C   UNL     1     -11.302  11.393  68.436  1.00  0.00    -0.281 C  
HETATM   12  C   UNL     1     -10.616  10.598  69.248  1.00  0.00    -0.233 C  
ENDROOT
BRANCH   8  13
HETATM   13  C   UNL     1     -11.801  12.248  66.137  1.00  0.00    -0.329 C  
HETATM   14  C   UNL     1     -11.108  12.700  64.845  1.00  0.00    -0.296 C  
HETATM   15  S   UNL     1     -10.340  14.268  65.270  1.00  0.00    -0.403 SA 
HETATM   16  C   UNL     1     -11.609  14.599  66.510  1.00  0.00    -0.344 C  
HETATM   17  O   UNL     1     -12.306  13.392  66.850  1.00  0.00    -0.328 OA 
BRANCH  16  18
HETATM   18  C   UNL     1     -11.071  15.234  67.801  1.00  0.00    -0.318 C  
HETATM   19  O   UNL     1     -11.710  14.704  68.964  1.00  0.00    -0.277 OA 
HETATM   20  H   UNL     1     -11.377  15.096  69.763  1.00  0.00     0.000 HD 
ENDBRANCH  16  18
ENDBRANCH   8  13
TORSDOF 2
ENDMDL
MODEL      147
REMARK 921   NORMALIZED FREE ENERGY PREDICTED BY IDOCK:   -3.07 KCAL/MOL
REMARK 922        TOTAL FREE ENERGY PREDICTED BY IDOCK:   -3.62 KCAL/MOL
REMARK 923 INTER-LIGAND FREE ENERGY PREDICTED BY IDOCK:   -3.46 KCAL/MOL
REMARK 924 INTRA-LIGAND FREE ENERGY PREDICTED BY IDOCK:   -0.17 KCAL/MOL
REMARK 927      BINDING AFFINITY PREDICTED BY RF-SCORE:    0.00 PKD
ROOT
HETATM    1  N   UNL     1      -7.853   8.758  72.950  1.00  0.00    -0.377 NA 
HETATM    2  H2  UNL     1      -8.322   8.838  73.853  1.00  0.00     0.000 HD 
HETATM    3  C   UNL     1      -8.565   8.748  71.781  1.00  0.00    -0.128 C  
HETATM    4  H1  UNL     1      -6.838   8.683  72.888  1.00  0.00     0.000 HD 
HETATM    5  N   UNL     1      -9.859   8.844  71.861  1.00  0.00    -0.323 N  
HETATM    6  H   UNL     1     -10.307   8.901  72.775  1.00  0.00     0.000 HD 
HETATM    7  C   UNL     1     -10.628   8.871  70.717  1.00  0.00    -0.226 C  
HETATM    8  N   UNL     1      -9.981   8.846  69.462  1.00  0.00    -0.186 N  
HETATM    9  O   UNL     1     -11.852   8.914  70.799  1.00  0.00    -0.273 OA 
HETATM   10  F   UNL     1      -6.536   8.465  70.487  1.00  0.00    -0.035 F  
HETATM   11  C   UNL     1      -8.608   8.710  69.385  1.00  0.00    -0.127 C  
HETATM   12  C   UNL     1      -7.869   8.634  70.485  1.00  0.00    -0.096 C  
ENDROOT
BRANCH   8  13
HETATM   13  C   UNL     1     -10.835   8.978  68.276  1.00  0.00    -0.017 C  
HETATM   14  C   UNL     1     -10.296   8.467  66.934  1.00  0.00    -0.307 C  
HETATM   15  S   UNL     1      -9.450   9.882  66.218  1.00  0.00    -0.208 SA 
HETATM   16  C   UNL     1     -10.553  11.024  67.077  1.00  0.00    -0.256 C  
HETATM   17  O   UNL     1     -11.227  10.358  68.154  1.00  0.00    -0.288 OA 
BRANCH  16  18
HETATM   18  C   UNL     1      -9.849  12.270  67.637  1.00  0.00    -0.196 C  
HETATM   19  O   UNL     1      -9.722  12.218  69.060  1.00  0.00    -0.412 OA 
HETATM   20  H   UNL     1      -9.287  12.988  69.406  1.00  0.00     0.000 HD 
ENDBRANCH  16  18
ENDBRANCH   8  13
TORSDOF 2
ENDMDL
MODEL      148
REMARK 921   NORMALIZED FREE ENERGY PREDICTED BY IDOCK:   -3.06 KCAL/MOL
REMARK 922        TOTAL FREE ENERGY PREDICTED BY IDOCK:   -3.62 KCAL/MOL
REMARK 923 INTER-LIGAND FREE ENERGY PREDICTED BY IDOCK:   -3.52 KCAL/MOL
REMARK 924 INTRA-LIGAND FREE ENERGY PREDICTED BY IDOCK:   -0.09 KCAL/MOL
REMARK 927      BINDING AFFINITY PREDICTED BY RF-SCORE:    0.00 PKD
ROOT
HETATM    1  N   UNL     1     -12.061   5.875  72.737  1.00  0.00    -0.535 NA 
HETATM    2  H2  UNL     1     -11.973   5.642  73.726  1.00  0.00     0.000 HD 
HETATM    3  C   UNL     1     -11.228   6.788  72.147  1.00  0.00    -0.259 C  
HETATM    4  H1  UNL     1     -12.773   5.436  72.153  1.00  0.00     0.000 HD 
HETATM    5  N   UNL     1     -10.322   7.348  72.892  1.00  0.00    -0.248 N  
HETATM    6  H   UNL     1     -10.267   7.116  73.884  1.00  0.00     0.000 HD 
HETATM    7  C   UNL     1      -9.434   8.252  72.349  1.00  0.00    -0.287 C  
HETATM    8  N   UNL     1      -9.495   8.516  70.964  1.00  0.00    -0.172 N  
HETATM    9  O   UNL     1      -8.610   8.813  73.066  1.00  0.00    -0.382 OA 
HETATM   10  F   UNL     1     -12.377   6.545  70.028  1.00  0.00    -0.390 F  
HETATM   11  C   UNL     1     -10.483   7.943  70.185  1.00  0.00    -0.231 C  
HETATM   12  C   UNL     1     -11.370   7.110  70.714  1.00  0.00    -0.289 C  
ENDROOT
BRANCH   8  13
HETATM   13  C   UNL     1      -8.466   9.407  70.415  1.00  0.00    -0.214 C  
HETATM   14  C   UNL     1      -8.832  10.279  69.207  1.00  0.00    -0.177 C  
HETATM   15  S   UNL     1      -8.415   9.271  67.779  1.00  0.00    -0.116 SA 
HETATM   16  C   UNL     1      -7.117   8.426  68.707  1.00  0.00    -0.068 C  
HETATM   17  O   UNL     1      -7.300   8.619  70.116  1.00  0.00    -0.049 OA 
BRANCH  16  18
HETATM   18  C   UNL     1      -7.030   6.918  68.426  1.00  0.00    -0.080 C  
HETATM   19  O   UNL     1      -6.054   6.615  67.427  1.00  0.00    -0.025 OA 
HETATM   20  H   UNL     1      -6.000   5.683  67.253  1.00  0.00     0.000 HD 
ENDBRANCH  16  18
ENDBRANCH   8  13
TORSDOF 2
ENDMDL
MODEL      149
REMARK 921   NORMALIZED FREE ENERGY PREDICTED BY IDOCK:   -3.02 KCAL/MOL
REMARK 922        TOTAL FREE ENERGY PREDICTED BY IDOCK:   -3.57 KCAL/MOL
REMARK 923 INTER-LIGAND FREE ENERGY PREDICTED BY IDOCK:   -3.47 KCAL/MOL
REMARK 924 INTRA-LIGAND FREE ENERGY PREDICTED BY IDOCK:   -0.10 KCAL/MOL
REMARK 927      BINDING AFFINITY PREDICTED BY RF-SCORE:    0.00 PKD
ROOT
HETATM    1  N   UNL     1     -12.876  10.538  69.590  1.00  0.00    -0.592 NA 
HETATM    2  H2  UNL     1     -13.551  10.742  68.854  1.00  0.00     0.000 HD 
HETATM    3  C   UNL     1     -11.584  10.194  69.292  1.00  0.00    -0.055 C  
HETATM    4  H1  UNL     1     -13.139  10.583  70.575  1.00  0.00     0.000 HD 
HETATM    5  N   UNL     1     -11.249  10.137  68.038  1.00  0.00    -0.487 N  
HETATM    6  H   UNL     1     -11.946  10.323  67.318  1.00  0.00     0.000 HD 
HETATM    7  C   UNL     1      -9.955   9.826  67.675  1.00  0.00    -0.174 C  
HETATM    8  N   UNL     1      -8.995   9.626  68.690  1.00  0.00    -0.127 N  
HETATM    9  O   UNL     1      -9.655   9.727  66.489  1.00  0.00    -0.172 OA 
HETATM   10  F   UNL     1     -11.061   9.914  71.642  1.00  0.00    -0.409 F  
HETATM   11  C   UNL     1      -9.366   9.655  70.022  1.00  0.00    -0.241 C  
HETATM   12  C   UNL     1     -10.621   9.905  70.373  1.00  0.00    -0.302 C  
ENDROOT
BRANCH   8  13
HETATM   13  C   UNL     1      -7.611   9.398  68.255  1.00  0.00    -0.082 C  
HETATM   14  C   UNL     1      -6.702   8.543  69.148  1.00  0.00    -0.047 C  
HETATM   15  S   UNL     1      -5.930   9.721  70.264  1.00  0.00    -0.068 SA 
HETATM   16  C   UNL     1      -6.050  11.031  69.027  1.00  0.00    -0.043 C  
HETATM   17  O   UNL     1      -6.999  10.677  68.012  1.00  0.00    -0.072 OA 
BRANCH  16  18
HETATM   18  C   UNL     1      -6.438  12.400  69.604  1.00  0.00    -0.063 C  
HETATM   19  O   UNL     1      -6.156  12.492  71.002  1.00  0.00    -0.540 OA 
HETATM   20  H   UNL     1      -6.396  13.338  71.359  1.00  0.00     0.000 HD 
ENDBRANCH  16  18
ENDBRANCH   8  13
TORSDOF 2
ENDMDL
MODEL      150
REMARK 921   NORMALIZED FREE ENERGY PREDICTED BY IDOCK:   -3.01 KCAL/MOL
REMARK 922        TOTAL FREE ENERGY PREDICTED BY IDOCK:   -3.55 KCAL/MOL
REMARK 923 INTER-LIGAND FREE ENERGY PREDICTED BY IDOCK:   -3.62 KCAL/MOL
REMARK 924 INTRA-LIGAND FREE ENERGY PREDICTED BY IDOCK:    0.07 KCAL/MOL
REMARK 927      BINDING AFFINITY PREDICTED BY RF-SCORE:    0.00 PKD
ROOT
HETATM    1  N   UNL     1     -12.572  10.960  69.807  1.00  0.00    -0.378 NA 
HETATM    2  H2  UNL     1     -12.690  11.584  69.009  1.00  0.00     0.000 HD 
HETATM    3  C   UNL     1     -11.357  10.396  70.092  1.00  0.00    -0.323 C  
HETATM    4  H1  UNL     1     -13.354  10.735  70.421  1.00  0.00     0.000 HD 
HETATM    5  N   UNL     1     -10.360  10.683  69.309  1.00  0.00    -0.216 N  
HETATM    6  H   UNL     1     -10.506  11.291  68.504  1.00  0.00     0.000 HD 
HETATM    7  C   UNL     1      -9.105  10.170  69.562  1.00  0.00    -0.195 C  
HETATM    8  N   UNL     1      -8.915   9.375  70.713  1.00  0.00    -0.230 N  
HETATM    9  O   UNL     1      -8.177  10.406  68.794  1.00  0.00    -0.112 OA 
HETATM   10  F   UNL     1     -12.298   9.192  71.972  1.00  0.00    -0.380 F  
HETATM   11  C   UNL     1      -9.987   9.047  71.522  1.00  0.00    -0.321 C  
HETATM   12  C   UNL     1     -11.206   9.498  71.253  1.00  0.00    -0.382 C  
ENDROOT
BRANCH   8  13
HETATM   13  C   UNL     1      -7.543   8.936  70.994  1.00  0.00    -0.118 C  
HETATM   14  C   UNL     1      -7.121   7.535  70.533  1.00  0.00    -0.056 C  
HETATM   15  S   UNL     1      -7.518   6.465  71.921  1.00  0.00    -0.094 SA 
HETATM   16  C   UNL     1      -7.271   7.820  73.088  1.00  0.00    -0.088 C  
HETATM   17  O   UNL     1      -7.304   9.082  72.406  1.00  0.00    -0.337 OA 
BRANCH  16  18
HETATM   18  C   UNL     1      -8.296   7.855  74.231  1.00  0.00    -0.244 C  
HETATM   19  O   UNL     1      -8.845   6.562  74.496  1.00  0.00    -0.149 OA 
HETATM   20  H   UNL     1      -9.479   6.583  75.203  1.00  0.00     0.000 HD 
ENDBRANCH  16  18
ENDBRANCH   8  13
TORSDOF 2
ENDMDL
MODEL      151
REMARK 921   NORMALIZED FREE ENERGY PREDICTED BY IDOCK:   -2.99 KCAL/MOL
REMARK 922        TOTAL FREE ENERGY PREDICTED BY IDOCK:   -3.54 KCAL/MOL
REMARK 923 INTER-LIGAND FREE ENERGY PREDICTED BY IDOCK:   -3.46 KCAL/MOL
REMARK 924 INTRA-LIGAND FREE ENERGY PREDICTED BY IDOCK:   -0.08 KCAL/MOL
REMARK 927      BINDING AFFINITY PREDICTED BY RF-SCORE:    0.00 PKD
ROOT
HETATM    1  N   UNL     1      -7.834  10.498  64.385  1.00  0.00    -0.340 NA 
HETATM    2  H2  UNL     1      -6.895  10.745  64.073  1.00  0.00     0.000 HD 
HETATM    3  C   UNL     1      -8.057  10.013  65.646  1.00  0.00    -0.138 C  
HETATM    4  H1  UNL     1      -8.640  10.605  63.769  1.00  0.00     0.000 HD 
HETATM    5  N   UNL     1      -7.030   9.878  66.431  1.00  0.00    -0.092 N  
HETATM    6  H   UNL     1      -6.098  10.109  66.090  1.00  0.00     0.000 HD 
HETATM    7  C   UNL     1      -7.195   9.423  67.722  1.00  0.00    -0.083 C  
HETATM    8  N   UNL     1      -8.501   9.161  68.189  1.00  0.00    -0.124 N  
HETATM    9  O   UNL     1      -6.217   9.252  68.444  1.00  0.00    -0.052 OA 
HETATM   10  F   UNL     1     -10.423   9.764  65.188  1.00  0.00    -0.280 F  
HETATM   11  C   UNL     1      -9.585   9.275  67.338  1.00  0.00    -0.150 C  
HETATM   12  C   UNL     1      -9.424   9.665  66.080  1.00  0.00    -0.225 C  
ENDROOT
BRANCH   8  13
HETATM   13  C   UNL     1      -8.635   8.776  69.600  1.00  0.00    -0.130 C  
HETATM   14  C   UNL     1      -9.403   7.490  69.931  1.00  0.00    -0.150 C  
HETATM   15  S   UNL     1     -11.106   8.023  70.138  1.00  0.00    -0.135 SA 
HETATM   16  C   UNL     1     -10.570   9.657  70.686  1.00  0.00    -0.319 C  
HETATM   17  O   UNL     1      -9.203   9.887  70.317  1.00  0.00    -0.215 OA 
BRANCH  16  18
HETATM   18  C   UNL     1     -11.424  10.811  70.139  1.00  0.00    -0.331 C  
HETATM   19  O   UNL     1     -12.475  10.343  69.291  1.00  0.00    -0.699 OA 
HETATM   20  H   UNL     1     -13.004  11.056  68.952  1.00  0.00     0.000 HD 
ENDBRANCH  16  18
ENDBRANCH   8  13
TORSDOF 2
ENDMDL
MODEL      152
REMARK 921   NORMALIZED FREE ENERGY PREDICTED BY IDOCK:   -2.98 KCAL/MOL
REMARK 922        TOTAL FREE ENERGY PREDICTED BY IDOCK:   -3.52 KCAL/MOL
REMARK 923 INTER-LIGAND FREE ENERGY PREDICTED BY IDOCK:   -3.59 KCAL/MOL
REMARK 924 INTRA-LIGAND FREE ENERGY PREDICTED BY IDOCK:    0.07 KCAL/MOL
REMARK 927      BINDING AFFINITY PREDICTED BY RF-SCORE:    0.00 PKD
ROOT
HETATM    1  N   UNL     1     -13.918   7.257  72.085  1.00  0.00    -0.569 NA 
HETATM    2  H2  UNL     1     -14.539   7.982  71.726  1.00  0.00     0.000 HD 
HETATM    3  C   UNL     1     -12.644   7.114  71.606  1.00  0.00    -0.375 C  
HETATM    4  H1  UNL     1     -14.225   6.614  72.815  1.00  0.00     0.000 HD 
HETATM    5  N   UNL     1     -12.253   7.934  70.676  1.00  0.00    -0.501 N  
HETATM    6  H   UNL     1     -12.899   8.637  70.316  1.00  0.00     0.000 HD 
HETATM    7  C   UNL     1     -10.971   7.860  70.175  1.00  0.00    -0.233 C  
HETATM    8  N   UNL     1     -10.079   6.915  70.727  1.00  0.00    -0.194 N  
HETATM    9  O   UNL     1     -10.622   8.606  69.264  1.00  0.00    -0.225 OA 
HETATM   10  F   UNL     1     -12.259   5.206  73.049  1.00  0.00    -0.351 F  
HETATM   11  C   UNL     1     -10.511   6.025  71.692  1.00  0.00    -0.228 C  
HETATM   12  C   UNL     1     -11.760   6.061  72.141  1.00  0.00    -0.279 C  
ENDROOT
BRANCH   8  13
HETATM   13  C   UNL     1      -8.697   6.943  70.231  1.00  0.00    -0.144 C  
HETATM   14  C   UNL     1      -8.362   6.127  68.976  1.00  0.00    -0.112 C  
HETATM   15  S   UNL     1      -7.878   4.514  69.602  1.00  0.00    -0.057 SA 
HETATM   16  C   UNL     1      -7.286   5.246  71.143  1.00  0.00    -0.082 C  
HETATM   17  O   UNL     1      -7.824   6.565  71.311  1.00  0.00    -0.100 OA 
BRANCH  16  18
HETATM   18  C   UNL     1      -7.618   4.419  72.394  1.00  0.00    -0.079 C  
HETATM   19  O   UNL     1      -8.177   3.146  72.062  1.00  0.00    -0.061 OA 
HETATM   20  H   UNL     1      -8.382   2.635  72.836  1.00  0.00     0.000 HD 
ENDBRANCH  16  18
ENDBRANCH   8  13
TORSDOF 2
ENDMDL
MODEL      153
REMARK 921   NORMALIZED FREE ENERGY PREDICTED BY IDOCK:   -2.98 KCAL/MOL
REMARK 922        TOTAL FREE ENERGY PREDICTED BY IDOCK:   -3.52 KCAL/MOL
REMARK 923 INTER-LIGAND FREE ENERGY PREDICTED BY IDOCK:   -3.34 KCAL/MOL
REMARK 924 INTRA-LIGAND FREE ENERGY PREDICTED BY IDOCK:   -0.18 KCAL/MOL
REMARK 927      BINDING AFFINITY PREDICTED BY RF-SCORE:    0.00 PKD
ROOT
HETATM    1  N   UNL     1     -10.165  14.145  68.723  1.00  0.00    -0.271 NA 
HETATM    2  H2  UNL     1      -9.486  14.789  69.130  1.00  0.00     0.000 HD 
HETATM    3  C   UNL     1      -9.800  12.886  68.327  1.00  0.00    -0.228 C  
HETATM    4  H1  UNL     1     -11.140  14.417  68.596  1.00  0.00     0.000 HD 
HETATM    5  N   UNL     1      -8.557  12.540  68.488  1.00  0.00    -0.338 N  
HETATM    6  H   UNL     1      -7.891  13.207  68.877  1.00  0.00     0.000 HD 
HETATM    7  C   UNL     1      -8.135  11.275  68.137  1.00  0.00    -0.134 C  
HETATM    8  N   UNL     1      -9.086  10.351  67.652  1.00  0.00    -0.138 N  
HETATM    9  O   UNL     1      -6.952  10.968  68.248  1.00  0.00    -0.066 OA 
HETATM   10  F   UNL     1     -12.044  12.425  67.540  1.00  0.00    -0.417 F  
HETATM   11  C   UNL     1     -10.398  10.738  67.451  1.00  0.00    -0.211 C  
HETATM   12  C   UNL     1     -10.797  11.970  67.742  1.00  0.00    -0.215 C  
ENDROOT
BRANCH   8  13
HETATM   13  C   UNL     1      -8.609   8.989  67.388  1.00  0.00    -0.115 C  
HETATM   14  C   UNL     1      -9.365   8.144  66.355  1.00  0.00    -0.210 C  
HETATM   15  S   UNL     1     -10.625   7.287  67.307  1.00  0.00    -0.327 SA 
HETATM   16  C   UNL     1      -9.583   7.312  68.781  1.00  0.00    -0.142 C  
HETATM   17  O   UNL     1      -8.538   8.285  68.641  1.00  0.00    -0.131 OA 
BRANCH  16  18
HETATM   18  C   UNL     1     -10.348   7.600  70.082  1.00  0.00    -0.217 C  
HETATM   19  O   UNL     1      -9.857   8.767  70.745  1.00  0.00    -0.179 OA 
HETATM   20  H   UNL     1     -10.330   8.945  71.549  1.00  0.00     0.000 HD 
ENDBRANCH  16  18
ENDBRANCH   8  13
TORSDOF 2
ENDMDL
MODEL      154
REMARK 921   NORMALIZED FREE ENERGY PREDICTED BY IDOCK:   -2.97 KCAL/MOL
REMARK 922        TOTAL FREE ENERGY PREDICTED BY IDOCK:   -3.51 KCAL/MOL
REMARK 923 INTER-LIGAND FREE ENERGY PREDICTED BY IDOCK:   -3.55 KCAL/MOL
REMARK 924 INTRA-LIGAND FREE ENERGY PREDICTED BY IDOCK:    0.04 KCAL/MOL
REMARK 927      BINDING AFFINITY PREDICTED BY RF-SCORE:    0.00 PKD
ROOT
HETATM    1  N   UNL     1     -11.060  20.477  69.680  1.00  0.00     0.487 NA 
HETATM    2  H2  UNL     1     -12.045  20.613  69.453  1.00  0.00     0.000 HD 
HETATM    3  C   UNL     1     -10.215  19.838  68.812  1.00  0.00    -0.367 C  
HETATM    4  H1  UNL     1     -10.670  20.812  70.561  1.00  0.00     0.000 HD 
HETATM    5  N   UNL     1     -10.712  19.412  67.689  1.00  0.00    -0.453 N  
HETATM    6  H   UNL     1     -11.704  19.539  67.494  1.00  0.00     0.000 HD 
HETATM    7  C   UNL     1      -9.904  18.788  66.762  1.00  0.00    -0.343 C  
HETATM    8  N   UNL     1      -8.524  18.671  67.032  1.00  0.00    -0.264 N  
HETATM    9  O   UNL     1     -10.388  18.345  65.724  1.00  0.00    -0.588 OA 
HETATM   10  F   UNL     1      -8.369  20.056  70.367  1.00  0.00     0.355 F  
HETATM   11  C   UNL     1      -8.009  19.097  68.242  1.00  0.00    -0.326 C  
HETATM   12  C   UNL     1      -8.792  19.653  69.158  1.00  0.00    -0.025 C  
ENDROOT
BRANCH   8  13
HETATM   13  C   UNL     1      -7.690  18.092  65.972  1.00  0.00    -0.169 C  
HETATM   14  C   UNL     1      -6.506  17.206  66.383  1.00  0.00    -0.201 C  
HETATM   15  S   UNL     1      -5.126  18.345  66.550  1.00  0.00    -0.145 SA 
HETATM   16  C   UNL     1      -5.840  19.452  65.315  1.00  0.00    -0.202 C  
HETATM   17  O   UNL     1      -7.232  19.161  65.124  1.00  0.00    -0.407 OA 
BRANCH  16  18
HETATM   18  C   UNL     1      -5.694  20.943  65.653  1.00  0.00    -0.236 C  
HETATM   19  O   UNL     1      -6.672  21.375  66.601  1.00  0.00    -0.670 OA 
HETATM   20  H   UNL     1      -6.582  22.297  66.810  1.00  0.00     0.000 HD 
ENDBRANCH  16  18
ENDBRANCH   8  13
TORSDOF 2
ENDMDL
MODEL      155
REMARK 921   NORMALIZED FREE ENERGY PREDICTED BY IDOCK:   -2.96 KCAL/MOL
REMARK 922        TOTAL FREE ENERGY PREDICTED BY IDOCK:   -3.50 KCAL/MOL
REMARK 923 INTER-LIGAND FREE ENERGY PREDICTED BY IDOCK:   -3.73 KCAL/MOL
REMARK 924 INTRA-LIGAND FREE ENERGY PREDICTED BY IDOCK:    0.23 KCAL/MOL
REMARK 927      BINDING AFFINITY PREDICTED BY RF-SCORE:    0.00 PKD
ROOT
HETATM    1  N   UNL     1     -12.463  15.275  69.184  1.00  0.00    -0.602 NA 
HETATM    2  H2  UNL     1     -13.476  15.168  69.131  1.00  0.00     0.000 HD 
HETATM    3  C   UNL     1     -11.621  14.307  68.707  1.00  0.00    -0.322 C  
HETATM    4  H1  UNL     1     -12.042  16.109  69.595  1.00  0.00     0.000 HD 
HETATM    5  N   UNL     1     -12.158  13.245  68.183  1.00  0.00    -0.289 N  
HETATM    6  H   UNL     1     -13.173  13.149  68.161  1.00  0.00     0.000 HD 
HETATM    7  C   UNL     1     -11.363  12.249  67.658  1.00  0.00    -0.311 C  
HETATM    8  N   UNL     1      -9.963  12.429  67.652  1.00  0.00    -0.197 N  
HETATM    9  O   UNL     1     -11.873  11.227  67.207  1.00  0.00    -0.562 OA 
HETATM   10  F   UNL     1      -9.680  15.574  69.411  1.00  0.00    -0.211 F  
HETATM   11  C   UNL     1      -9.398  13.545  68.240  1.00  0.00    -0.205 C  
HETATM   12  C   UNL     1     -10.159  14.483  68.791  1.00  0.00    -0.239 C  
ENDROOT
BRANCH   8  13
HETATM   13  C   UNL     1      -9.166  11.388  66.991  1.00  0.00    -0.169 C  
HETATM   14  C   UNL     1      -9.207   9.968  67.569  1.00  0.00    -0.137 C  
HETATM   15  S   UNL     1      -7.869   9.929  68.769  1.00  0.00    -0.096 SA 
HETATM   16  C   UNL     1      -6.942  11.164  67.832  1.00  0.00    -0.069 C  
HETATM   17  O   UNL     1      -7.804  11.847  66.911  1.00  0.00    -0.160 OA 
BRANCH  16  18
HETATM   18  C   UNL     1      -6.234  12.209  68.707  1.00  0.00    -0.071 C  
HETATM   19  O   UNL     1      -5.320  13.008  67.952  1.00  0.00    -0.095 OA 
HETATM   20  H   UNL     1      -4.882  13.654  68.493  1.00  0.00     0.000 HD 
ENDBRANCH  16  18
ENDBRANCH   8  13
TORSDOF 2
ENDMDL
MODEL      156
REMARK 921   NORMALIZED FREE ENERGY PREDICTED BY IDOCK:   -2.93 KCAL/MOL
REMARK 922        TOTAL FREE ENERGY PREDICTED BY IDOCK:   -3.46 KCAL/MOL
REMARK 923 INTER-LIGAND FREE ENERGY PREDICTED BY IDOCK:   -3.29 KCAL/MOL
REMARK 924 INTRA-LIGAND FREE ENERGY PREDICTED BY IDOCK:   -0.17 KCAL/MOL
REMARK 927      BINDING AFFINITY PREDICTED BY RF-SCORE:    0.00 PKD
ROOT
HETATM    1  N   UNL     1      -7.987  15.405  68.674  1.00  0.00    -0.140 NA 
HETATM    2  H2  UNL     1      -8.568  16.227  68.842  1.00  0.00     0.000 HD 
HETATM    3  C   UNL     1      -8.544  14.163  68.524  1.00  0.00    -0.163 C  
HETATM    4  H1  UNL     1      -6.972  15.480  68.611  1.00  0.00     0.000 HD 
HETATM    5  N   UNL     1      -9.838  14.068  68.604  1.00  0.00    -0.299 N  
HETATM    6  H   UNL     1     -10.396  14.900  68.796  1.00  0.00     0.000 HD 
HETATM    7  C   UNL     1     -10.460  12.850  68.431  1.00  0.00    -0.251 C  
HETATM    8  N   UNL     1      -9.670  11.723  68.113  1.00  0.00    -0.186 N  
HETATM    9  O   UNL     1     -11.678  12.757  68.554  1.00  0.00    -0.296 OA 
HETATM   10  F   UNL     1      -6.355  13.154  68.281  1.00  0.00    -0.070 F  
HETATM   11  C   UNL     1      -8.293  11.826  68.063  1.00  0.00    -0.154 C  
HETATM   12  C   UNL     1      -7.688  12.987  68.278  1.00  0.00    -0.141 C  
ENDROOT
BRANCH   8  13
HETATM   13  C   UNL     1     -10.386  10.471  67.839  1.00  0.00    -0.192 C  
HETATM   14  C   UNL     1      -9.794   9.165  68.383  1.00  0.00    -0.164 C  
HETATM   15  S   UNL     1      -8.710   8.581  67.074  1.00  0.00    -0.127 SA 
HETATM   16  C   UNL     1      -9.731   9.381  65.818  1.00  0.00    -0.284 C  
HETATM   17  O   UNL     1     -10.583  10.367  66.417  1.00  0.00    -0.206 OA 
BRANCH  16  18
HETATM   18  C   UNL     1      -8.928  10.047  64.692  1.00  0.00    -0.214 C  
HETATM   19  O   UNL     1      -9.082  11.468  64.693  1.00  0.00    -0.406 OA 
HETATM   20  H   UNL     1      -8.585  11.880  63.996  1.00  0.00     0.000 HD 
ENDBRANCH  16  18
ENDBRANCH   8  13
TORSDOF 2
ENDMDL
MODEL      157
REMARK 921   NORMALIZED FREE ENERGY PREDICTED BY IDOCK:   -2.93 KCAL/MOL
REMARK 922        TOTAL FREE ENERGY PREDICTED BY IDOCK:   -3.46 KCAL/MOL
REMARK 923 INTER-LIGAND FREE ENERGY PREDICTED BY IDOCK:   -3.34 KCAL/MOL
REMARK 924 INTRA-LIGAND FREE ENERGY PREDICTED BY IDOCK:   -0.12 KCAL/MOL
REMARK 927      BINDING AFFINITY PREDICTED BY RF-SCORE:    0.00 PKD
ROOT
HETATM    1  N   UNL     1     -12.321  15.595  68.624  1.00  0.00    -0.460 NA 
HETATM    2  H2  UNL     1     -12.566  16.506  68.238  1.00  0.00     0.000 HD 
HETATM    3  C   UNL     1     -11.177  14.947  68.240  1.00  0.00    -0.294 C  
HETATM    4  H1  UNL     1     -12.919  15.134  69.310  1.00  0.00     0.000 HD 
HETATM    5  N   UNL     1     -10.415  15.534  67.367  1.00  0.00    -0.275 N  
HETATM    6  H   UNL     1     -10.692  16.435  66.978  1.00  0.00     0.000 HD 
HETATM    7  C   UNL     1      -9.235  14.946  66.964  1.00  0.00    -0.234 C  
HETATM    8  N   UNL     1      -8.847  13.725  67.556  1.00  0.00    -0.186 N  
HETATM    9  O   UNL     1      -8.542  15.483  66.104  1.00  0.00    -0.265 OA 
HETATM   10  F   UNL     1     -11.713  13.053  69.655  1.00  0.00    -0.318 F  
HETATM   11  C   UNL     1      -9.679  13.090  68.460  1.00  0.00    -0.130 C  
HETATM   12  C   UNL     1     -10.839  13.629  68.812  1.00  0.00    -0.255 C  
ENDROOT
BRANCH   8  13
HETATM   13  C   UNL     1      -7.536  13.190  67.169  1.00  0.00     0.006 C  
HETATM   14  C   UNL     1      -7.271  11.694  67.387  1.00  0.00    -0.128 C  
HETATM   15  S   UNL     1      -6.584  11.593  69.044  1.00  0.00    -0.100 SA 
HETATM   16  C   UNL     1      -5.892  13.255  68.900  1.00  0.00    -0.076 C  
HETATM   17  O   UNL     1      -6.520  13.969  67.826  1.00  0.00    -0.155 OA 
BRANCH  16  18
HETATM   18  C   UNL     1      -6.011  14.094  70.181  1.00  0.00    -0.151 C  
HETATM   19  O   UNL     1      -7.259  14.786  70.253  1.00  0.00    -0.322 OA 
HETATM   20  H   UNL     1      -7.333  15.305  71.045  1.00  0.00     0.000 HD 
ENDBRANCH  16  18
ENDBRANCH   8  13
TORSDOF 2
ENDMDL
MODEL      158
REMARK 921   NORMALIZED FREE ENERGY PREDICTED BY IDOCK:   -2.92 KCAL/MOL
REMARK 922        TOTAL FREE ENERGY PREDICTED BY IDOCK:   -3.46 KCAL/MOL
REMARK 923 INTER-LIGAND FREE ENERGY PREDICTED BY IDOCK:   -3.37 KCAL/MOL
REMARK 924 INTRA-LIGAND FREE ENERGY PREDICTED BY IDOCK:   -0.09 KCAL/MOL
REMARK 927      BINDING AFFINITY PREDICTED BY RF-SCORE:    0.00 PKD
ROOT
HETATM    1  N   UNL     1      -9.835  14.655  69.086  1.00  0.00    -0.364 NA 
HETATM    2  H2  UNL     1      -9.437  15.042  69.942  1.00  0.00     0.000 HD 
HETATM    3  C   UNL     1      -9.211  13.643  68.407  1.00  0.00    -0.169 C  
HETATM    4  H1  UNL     1     -10.713  15.009  68.705  1.00  0.00     0.000 HD 
HETATM    5  N   UNL     1      -8.092  13.192  68.892  1.00  0.00    -0.338 N  
HETATM    6  H   UNL     1      -7.701  13.609  69.736  1.00  0.00     0.000 HD 
HETATM    7  C   UNL     1      -7.432  12.154  68.271  1.00  0.00    -0.107 C  
HETATM    8  N   UNL     1      -8.019  11.557  67.134  1.00  0.00    -0.152 N  
HETATM    9  O   UNL     1      -6.352  11.763  68.705  1.00  0.00    -0.054 OA 
HETATM   10  F   UNL     1     -10.924  13.663  66.694  1.00  0.00    -0.284 F  
HETATM   11  C   UNL     1      -9.192  12.064  66.605  1.00  0.00    -0.211 C  
HETATM   12  C   UNL     1      -9.804  13.096  67.172  1.00  0.00    -0.235 C  
ENDROOT
BRANCH   8  13
HETATM   13  C   UNL     1      -7.330  10.391  66.568  1.00  0.00    -0.119 C  
HETATM   14  C   UNL     1      -7.308  10.232  65.043  1.00  0.00    -0.117 C  
HETATM   15  S   UNL     1      -8.781   9.274  64.667  1.00  0.00    -0.170 SA 
HETATM   16  C   UNL     1      -8.715   8.467  66.281  1.00  0.00    -0.142 C  
HETATM   17  O   UNL     1      -7.875   9.207  67.178  1.00  0.00    -0.101 OA 
BRANCH  16  18
HETATM   18  C   UNL     1     -10.089   8.279  66.942  1.00  0.00    -0.296 C  
HETATM   19  O   UNL     1     -10.757   7.109  66.463  1.00  0.00    -0.508 OA 
HETATM   20  H   UNL     1     -11.606   6.993  66.872  1.00  0.00     0.000 HD 
ENDBRANCH  16  18
ENDBRANCH   8  13
TORSDOF 2
ENDMDL
MODEL      159
REMARK 921   NORMALIZED FREE ENERGY PREDICTED BY IDOCK:   -2.91 KCAL/MOL
REMARK 922        TOTAL FREE ENERGY PREDICTED BY IDOCK:   -3.44 KCAL/MOL
REMARK 923 INTER-LIGAND FREE ENERGY PREDICTED BY IDOCK:   -3.69 KCAL/MOL
REMARK 924 INTRA-LIGAND FREE ENERGY PREDICTED BY IDOCK:    0.26 KCAL/MOL
REMARK 927      BINDING AFFINITY PREDICTED BY RF-SCORE:    0.00 PKD
ROOT
HETATM    1  N   UNL     1      -8.564  11.517  68.137  1.00  0.00    -0.149 NA 
HETATM    2  H2  UNL     1      -8.738  12.498  68.356  1.00  0.00     0.000 HD 
HETATM    3  C   UNL     1      -9.230  10.516  68.793  1.00  0.00    -0.177 C  
HETATM    4  H1  UNL     1      -7.889  11.247  67.422  1.00  0.00     0.000 HD 
HETATM    5  N   UNL     1     -10.091  10.860  69.704  1.00  0.00    -0.439 N  
HETATM    6  H   UNL     1     -10.231  11.847  69.922  1.00  0.00     0.000 HD 
HETATM    7  C   UNL     1     -10.815   9.900  70.378  1.00  0.00    -0.319 C  
HETATM    8  N   UNL     1     -10.642   8.545  70.021  1.00  0.00    -0.225 N  
HETATM    9  O   UNL     1     -11.592  10.227  71.270  1.00  0.00    -0.344 OA 
HETATM   10  F   UNL     1      -8.011   8.825  67.559  1.00  0.00    -0.098 F  
HETATM   11  C   UNL     1      -9.701   8.184  69.075  1.00  0.00    -0.163 C  
HETATM   12  C   UNL     1      -8.967   9.103  68.461  1.00  0.00    -0.133 C  
ENDROOT
BRANCH   8  13
HETATM   13  C   UNL     1     -11.507   7.569  70.695  1.00  0.00    -0.269 C  
HETATM   14  C   UNL     1     -11.430   7.465  72.224  1.00  0.00    -0.288 C  
HETATM   15  S   UNL     1     -10.162   6.230  72.530  1.00  0.00    -0.187 SA 
HETATM   16  C   UNL     1     -10.533   5.406  70.967  1.00  0.00    -0.232 C  
HETATM   17  O   UNL     1     -11.276   6.277  70.103  1.00  0.00    -0.343 OA 
BRANCH  16  18
HETATM   18  C   UNL     1      -9.291   4.911  70.212  1.00  0.00    -0.154 C  
HETATM   19  O   UNL     1      -9.633   4.042  69.129  1.00  0.00    -0.175 OA 
HETATM   20  H   UNL     1      -8.865   3.736  68.662  1.00  0.00     0.000 HD 
ENDBRANCH  16  18
ENDBRANCH   8  13
TORSDOF 2
ENDMDL
MODEL      160
REMARK 921   NORMALIZED FREE ENERGY PREDICTED BY IDOCK:   -2.90 KCAL/MOL
REMARK 922        TOTAL FREE ENERGY PREDICTED BY IDOCK:   -3.44 KCAL/MOL
REMARK 923 INTER-LIGAND FREE ENERGY PREDICTED BY IDOCK:   -3.61 KCAL/MOL
REMARK 924 INTRA-LIGAND FREE ENERGY PREDICTED BY IDOCK:    0.17 KCAL/MOL
REMARK 927      BINDING AFFINITY PREDICTED BY RF-SCORE:    0.00 PKD
ROOT
HETATM    1  N   UNL     1      -8.370  12.023  67.986  1.00  0.00    -0.153 NA 
HETATM    2  H2  UNL     1      -7.935  12.801  68.483  1.00  0.00     0.000 HD 
HETATM    3  C   UNL     1      -8.432  10.773  68.541  1.00  0.00    -0.143 C  
HETATM    4  H1  UNL     1      -8.775  12.150  67.058  1.00  0.00     0.000 HD 
HETATM    5  N   UNL     1      -7.916  10.611  69.723  1.00  0.00    -0.370 N  
HETATM    6  H   UNL     1      -7.466  11.397  70.191  1.00  0.00     0.000 HD 
HETATM    7  C   UNL     1      -7.975   9.383  70.347  1.00  0.00    -0.172 C  
HETATM    8  N   UNL     1      -8.650   8.325  69.702  1.00  0.00    -0.128 N  
HETATM    9  O   UNL     1      -7.445   9.224  71.443  1.00  0.00    -0.316 OA 
HETATM   10  F   UNL     1      -9.513   9.890  66.561  1.00  0.00    -0.178 F  
HETATM   11  C   UNL     1      -9.167   8.495  68.431  1.00  0.00    -0.135 C  
HETATM   12  C   UNL     1      -9.068   9.662  67.807  1.00  0.00    -0.124 C  
ENDROOT
BRANCH   8  13
HETATM   13  C   UNL     1      -8.773   7.067  70.449  1.00  0.00    -0.147 C  
HETATM   14  C   UNL     1      -9.522   5.903  69.789  1.00  0.00    -0.148 C  
HETATM   15  S   UNL     1     -11.233   6.121  70.295  1.00  0.00    -0.334 SA 
HETATM   16  C   UNL     1     -10.718   6.923  71.828  1.00  0.00    -0.221 C  
HETATM   17  O   UNL     1      -9.355   7.360  71.732  1.00  0.00    -0.145 OA 
BRANCH  16  18
HETATM   18  C   UNL     1     -11.590   8.122  72.229  1.00  0.00    -0.374 C  
HETATM   19  O   UNL     1     -12.904   7.720  72.622  1.00  0.00    -0.518 OA 
HETATM   20  H   UNL     1     -13.443   8.461  72.870  1.00  0.00     0.000 HD 
ENDBRANCH  16  18
ENDBRANCH   8  13
TORSDOF 2
ENDMDL
MODEL      161
REMARK 921   NORMALIZED FREE ENERGY PREDICTED BY IDOCK:   -2.90 KCAL/MOL
REMARK 922        TOTAL FREE ENERGY PREDICTED BY IDOCK:   -3.44 KCAL/MOL
REMARK 923 INTER-LIGAND FREE ENERGY PREDICTED BY IDOCK:   -3.72 KCAL/MOL
REMARK 924 INTRA-LIGAND FREE ENERGY PREDICTED BY IDOCK:    0.29 KCAL/MOL
REMARK 927      BINDING AFFINITY PREDICTED BY RF-SCORE:    0.00 PKD
ROOT
HETATM    1  N   UNL     1      -5.867  10.661  67.328  1.00  0.00    -0.045 NA 
HETATM    2  H2  UNL     1      -5.197  11.279  66.869  1.00  0.00     0.000 HD 
HETATM    3  C   UNL     1      -7.172  11.035  67.504  1.00  0.00    -0.096 C  
HETATM    4  H1  UNL     1      -5.587   9.742  67.671  1.00  0.00     0.000 HD 
HETATM    5  N   UNL     1      -7.529  12.205  67.066  1.00  0.00    -0.308 N  
HETATM    6  H   UNL     1      -6.838  12.816  66.632  1.00  0.00     0.000 HD 
HETATM    7  C   UNL     1      -8.836  12.626  67.187  1.00  0.00    -0.204 C  
HETATM    8  N   UNL     1      -9.786  11.742  67.743  1.00  0.00    -0.178 N  
HETATM    9  O   UNL     1      -9.158  13.751  66.815  1.00  0.00    -0.247 OA 
HETATM   10  F   UNL     1      -7.665   8.961  68.656  1.00  0.00    -0.090 F  
HETATM   11  C   UNL     1      -9.393  10.512  68.236  1.00  0.00    -0.156 C  
HETATM   12  C   UNL     1      -8.125  10.124  68.167  1.00  0.00    -0.105 C  
ENDROOT
BRANCH   8  13
HETATM   13  C   UNL     1     -11.182  12.196  67.757  1.00  0.00    -0.275 C  
HETATM   14  C   UNL     1     -11.493  13.563  68.380  1.00  0.00    -0.311 C  
HETATM   15  S   UNL     1     -11.816  13.208  70.111  1.00  0.00    -0.193 SA 
HETATM   16  C   UNL     1     -12.411  11.553  69.701  1.00  0.00    -0.142 C  
HETATM   17  O   UNL     1     -11.980  11.176  68.386  1.00  0.00    -0.561 OA 
BRANCH  16  18
HETATM   18  C   UNL     1     -11.965  10.466  70.691  1.00  0.00    -0.351 C  
HETATM   19  O   UNL     1     -11.995   9.163  70.105  1.00  0.00    -0.464 OA 
HETATM   20  H   UNL     1     -11.720   8.491  70.717  1.00  0.00     0.000 HD 
ENDBRANCH  16  18
ENDBRANCH   8  13
TORSDOF 2
ENDMDL
MODEL      162
REMARK 921   NORMALIZED FREE ENERGY PREDICTED BY IDOCK:   -2.89 KCAL/MOL
REMARK 922        TOTAL FREE ENERGY PREDICTED BY IDOCK:   -3.42 KCAL/MOL
REMARK 923 INTER-LIGAND FREE ENERGY PREDICTED BY IDOCK:   -4.57 KCAL/MOL
REMARK 924 INTRA-LIGAND FREE ENERGY PREDICTED BY IDOCK:    1.15 KCAL/MOL
REMARK 927      BINDING AFFINITY PREDICTED BY RF-SCORE:    0.00 PKD
ROOT
HETATM    1  N   UNL     1     -11.122  11.368  63.449  1.00  0.00    -0.772 NA 
HETATM    2  H2  UNL     1     -10.545  10.532  63.542  1.00  0.00     0.000 HD 
HETATM    3  C   UNL     1     -10.892  12.478  64.218  1.00  0.00    -0.364 C  
HETATM    4  H1  UNL     1     -11.890  11.407  62.778  1.00  0.00     0.000 HD 
HETATM    5  N   UNL     1      -9.913  12.428  65.072  1.00  0.00    -0.417 N  
HETATM    6  H   UNL     1      -9.364  11.573  65.164  1.00  0.00     0.000 HD 
HETATM    7  C   UNL     1      -9.613  13.523  65.853  1.00  0.00    -0.111 C  
HETATM    8  N   UNL     1     -10.352  14.712  65.669  1.00  0.00    -0.328 N  
HETATM    9  O   UNL     1      -8.718  13.456  66.691  1.00  0.00    -0.136 OA 
HETATM   10  F   UNL     1     -12.774  13.628  63.214  1.00  0.00    -0.377 F  
HETATM   11  C   UNL     1     -11.413  14.747  64.783  1.00  0.00    -0.410 C  
HETATM   12  C   UNL     1     -11.736  13.678  64.066  1.00  0.00    -0.364 C  
ENDROOT
BRANCH   8  13
HETATM   13  C   UNL     1      -9.930  15.880  66.451  1.00  0.00    -0.287 C  
HETATM   14  C   UNL     1      -8.844  15.685  67.517  1.00  0.00    -0.181 C  
HETATM   15  S   UNL     1      -9.749  15.279  69.015  1.00  0.00    -0.245 SA 
HETATM   16  C   UNL     1     -11.178  16.231  68.456  1.00  0.00    -0.359 C  
HETATM   17  O   UNL     1     -11.100  16.472  67.045  1.00  0.00    -0.090 OA 
BRANCH  16  18
HETATM   18  C   UNL     1     -12.529  15.571  68.766  1.00  0.00     0.365 C  
HETATM   19  O   UNL     1     -12.622  14.256  68.212  1.00  0.00    -0.494 OA 
HETATM   20  H   UNL     1     -13.457  13.848  68.403  1.00  0.00     0.000 HD 
ENDBRANCH  16  18
ENDBRANCH   8  13
TORSDOF 2
ENDMDL
MODEL      163
REMARK 921   NORMALIZED FREE ENERGY PREDICTED BY IDOCK:   -2.85 KCAL/MOL
REMARK 922        TOTAL FREE ENERGY PREDICTED BY IDOCK:   -3.37 KCAL/MOL
REMARK 923 INTER-LIGAND FREE ENERGY PREDICTED BY IDOCK:   -3.32 KCAL/MOL
REMARK 924 INTRA-LIGAND FREE ENERGY PREDICTED BY IDOCK:   -0.06 KCAL/MOL
REMARK 927      BINDING AFFINITY PREDICTED BY RF-SCORE:    0.00 PKD
ROOT
HETATM    1  N   UNL     1     -10.404   4.616  70.246  1.00  0.00    -0.134 NA 
HETATM    2  H2  UNL     1     -10.163   4.140  71.115  1.00  0.00     0.000 HD 
HETATM    3  C   UNL     1     -10.502   5.981  70.188  1.00  0.00    -0.246 C  
HETATM    4  H1  UNL     1     -10.581   4.092  69.388  1.00  0.00     0.000 HD 
HETATM    5  N   UNL     1     -10.276   6.648  71.281  1.00  0.00    -0.199 N  
HETATM    6  H   UNL     1     -10.059   6.150  72.143  1.00  0.00     0.000 HD 
HETATM    7  C   UNL     1     -10.329   8.026  71.279  1.00  0.00    -0.193 C  
HETATM    8  N   UNL     1     -10.578   8.695  70.061  1.00  0.00    -0.224 N  
HETATM    9  O   UNL     1     -10.162   8.649  72.323  1.00  0.00    -0.320 OA 
HETATM   10  F   UNL     1     -11.139   5.889  67.852  1.00  0.00    -0.336 F  
HETATM   11  C   UNL     1     -10.850   7.978  68.911  1.00  0.00     0.029 C  
HETATM   12  C   UNL     1     -10.849   6.651  68.920  1.00  0.00    -0.277 C  
ENDROOT
BRANCH   8  13
HETATM   13  C   UNL     1     -10.525  10.162  70.090  1.00  0.00    -0.255 C  
HETATM   14  C   UNL     1     -11.788  10.941  69.701  1.00  0.00    -0.344 C  
HETATM   15  S   UNL     1     -11.639  11.185  67.927  1.00  0.00    -0.189 SA 
HETATM   16  C   UNL     1      -9.837  11.166  68.036  1.00  0.00    -0.174 C  
HETATM   17  O   UNL     1      -9.415  10.588  69.279  1.00  0.00    -0.206 OA 
BRANCH  16  18
HETATM   18  C   UNL     1      -9.149  10.414  66.888  1.00  0.00    -0.143 C  
HETATM   19  O   UNL     1      -7.956   9.754  67.318  1.00  0.00    -0.105 OA 
HETATM   20  H   UNL     1      -7.531   9.289  66.608  1.00  0.00     0.000 HD 
ENDBRANCH  16  18
ENDBRANCH   8  13
TORSDOF 2
ENDMDL
MODEL      164
REMARK 921   NORMALIZED FREE ENERGY PREDICTED BY IDOCK:   -2.84 KCAL/MOL
REMARK 922        TOTAL FREE ENERGY PREDICTED BY IDOCK:   -3.37 KCAL/MOL
REMARK 923 INTER-LIGAND FREE ENERGY PREDICTED BY IDOCK:   -3.29 KCAL/MOL
REMARK 924 INTRA-LIGAND FREE ENERGY PREDICTED BY IDOCK:   -0.08 KCAL/MOL
REMARK 927      BINDING AFFINITY PREDICTED BY RF-SCORE:    0.00 PKD
ROOT
HETATM    1  N   UNL     1     -13.156   7.846  71.567  1.00  0.00    -0.408 NA 
HETATM    2  H2  UNL     1     -13.642   6.951  71.608  1.00  0.00     0.000 HD 
HETATM    3  C   UNL     1     -11.818   7.914  71.282  1.00  0.00    -0.296 C  
HETATM    4  H1  UNL     1     -13.648   8.723  71.737  1.00  0.00     0.000 HD 
HETATM    5  N   UNL     1     -11.190   6.796  71.065  1.00  0.00    -0.274 N  
HETATM    6  H   UNL     1     -11.692   5.911  71.133  1.00  0.00     0.000 HD 
HETATM    7  C   UNL     1      -9.849   6.801  70.743  1.00  0.00    -0.183 C  
HETATM    8  N   UNL     1      -9.189   8.041  70.602  1.00  0.00    -0.152 N  
HETATM    9  O   UNL     1      -9.250   5.741  70.585  1.00  0.00    -0.148 OA 
HETATM   10  F   UNL     1     -11.832  10.324  71.533  1.00  0.00    -0.428 F  
HETATM   11  C   UNL     1      -9.855   9.223  70.867  1.00  0.00    -0.293 C  
HETATM   12  C   UNL     1     -11.133   9.219  71.226  1.00  0.00    -0.357 C  
ENDROOT
BRANCH   8  13
HETATM   13  C   UNL     1      -7.790   7.998  70.159  1.00  0.00    -0.099 C  
HETATM   14  C   UNL     1      -6.777   8.906  70.869  1.00  0.00    -0.068 C  
HETATM   15  S   UNL     1      -6.804  10.435  69.925  1.00  0.00    -0.153 SA 
HETATM   16  C   UNL     1      -7.254   9.544  68.421  1.00  0.00    -0.075 C  
HETATM   17  O   UNL     1      -7.758   8.240  68.741  1.00  0.00    -0.108 OA 
BRANCH  16  18
HETATM   18  C   UNL     1      -8.293  10.270  67.552  1.00  0.00    -0.114 C  
HETATM   19  O   UNL     1      -8.685   9.489  66.422  1.00  0.00    -0.131 OA 
HETATM   20  H   UNL     1      -9.327   9.937  65.885  1.00  0.00     0.000 HD 
ENDBRANCH  16  18
ENDBRANCH   8  13
TORSDOF 2
ENDMDL
MODEL      165
REMARK 921   NORMALIZED FREE ENERGY PREDICTED BY IDOCK:   -2.81 KCAL/MOL
REMARK 922        TOTAL FREE ENERGY PREDICTED BY IDOCK:   -3.33 KCAL/MOL
REMARK 923 INTER-LIGAND FREE ENERGY PREDICTED BY IDOCK:   -3.41 KCAL/MOL
REMARK 924 INTRA-LIGAND FREE ENERGY PREDICTED BY IDOCK:    0.08 KCAL/MOL
REMARK 927      BINDING AFFINITY PREDICTED BY RF-SCORE:    0.00 PKD
ROOT
HETATM    1  N   UNL     1     -10.145   9.591  65.671  1.00  0.00    -0.341 NA 
HETATM    2  H2  UNL     1      -9.604   8.774  65.384  1.00  0.00     0.000 HD 
HETATM    3  C   UNL     1      -9.533  10.696  66.199  1.00  0.00    -0.179 C  
HETATM    4  H1  UNL     1     -11.160   9.612  65.574  1.00  0.00     0.000 HD 
HETATM    5  N   UNL     1      -8.239  10.669  66.321  1.00  0.00    -0.148 N  
HETATM    6  H   UNL     1      -7.722   9.834  66.049  1.00  0.00     0.000 HD 
HETATM    7  C   UNL     1      -7.563  11.764  66.817  1.00  0.00    -0.072 C  
HETATM    8  N   UNL     1      -8.295  12.928  67.136  1.00  0.00    -0.179 N  
HETATM    9  O   UNL     1      -6.347  11.716  66.975  1.00  0.00    -0.122 OA 
HETATM   10  F   UNL     1     -11.670  11.793  66.514  1.00  0.00    -0.394 F  
HETATM   11  C   UNL     1      -9.674  12.937  67.035  1.00  0.00    -0.230 C  
HETATM   12  C   UNL     1     -10.332  11.868  66.605  1.00  0.00    -0.211 C  
ENDROOT
BRANCH   8  13
HETATM   13  C   UNL     1      -7.521  14.099  67.564  1.00  0.00    -0.174 C  
HETATM   14  C   UNL     1      -7.475  14.430  69.061  1.00  0.00    -0.119 C  
HETATM   15  S   UNL     1      -8.874  15.527  69.324  1.00  0.00    -0.258 SA 
HETATM   16  C   UNL     1      -8.764  16.137  67.628  1.00  0.00    -0.177 C  
HETATM   17  O   UNL     1      -7.985  15.242  66.822  1.00  0.00    -0.200 OA 
BRANCH  16  18
HETATM   18  C   UNL     1     -10.127  16.345  66.950  1.00  0.00    -0.281 C  
HETATM   19  O   UNL     1     -10.721  17.593  67.315  1.00  0.00    -0.325 OA 
HETATM   20  H   UNL     1     -11.563  17.722  66.896  1.00  0.00     0.000 HD 
ENDBRANCH  16  18
ENDBRANCH   8  13
TORSDOF 2
ENDMDL
MODEL      166
REMARK 921   NORMALIZED FREE ENERGY PREDICTED BY IDOCK:   -2.81 KCAL/MOL
REMARK 922        TOTAL FREE ENERGY PREDICTED BY IDOCK:   -3.33 KCAL/MOL
REMARK 923 INTER-LIGAND FREE ENERGY PREDICTED BY IDOCK:   -3.42 KCAL/MOL
REMARK 924 INTRA-LIGAND FREE ENERGY PREDICTED BY IDOCK:    0.10 KCAL/MOL
REMARK 927      BINDING AFFINITY PREDICTED BY RF-SCORE:    0.00 PKD
ROOT
HETATM    1  N   UNL     1     -10.314  17.105  65.774  1.00  0.00    -0.559 NA 
HETATM    2  H2  UNL     1      -9.978  18.051  65.595  1.00  0.00     0.000 HD 
HETATM    3  C   UNL     1      -9.480  16.137  66.267  1.00  0.00    -0.316 C  
HETATM    4  H1  UNL     1     -11.284  16.846  65.592  1.00  0.00     0.000 HD 
HETATM    5  N   UNL     1      -8.244  16.467  66.499  1.00  0.00    -0.278 N  
HETATM    6  H   UNL     1      -7.924  17.412  66.291  1.00  0.00     0.000 HD 
HETATM    7  C   UNL     1      -7.363  15.545  67.024  1.00  0.00    -0.137 C  
HETATM    8  N   UNL     1      -7.843  14.259  67.354  1.00  0.00    -0.192 N  
HETATM    9  O   UNL     1      -6.186  15.848  67.197  1.00  0.00    -0.298 OA 
HETATM   10  F   UNL     1     -11.256  14.491  66.190  1.00  0.00    -0.315 F  
HETATM   11  C   UNL     1      -9.149  13.905  67.074  1.00  0.00    -0.250 C  
HETATM   12  C   UNL     1      -9.986  14.775  66.522  1.00  0.00    -0.271 C  
ENDROOT
BRANCH   8  13
HETATM   13  C   UNL     1      -6.893  13.347  68.004  1.00  0.00    -0.132 C  
HETATM   14  C   UNL     1      -6.072  12.403  67.116  1.00  0.00    -0.080 C  
HETATM   15  S   UNL     1      -7.077  10.919  66.984  1.00  0.00    -0.117 SA 
HETATM   16  C   UNL     1      -7.813  11.226  68.604  1.00  0.00    -0.139 C  
HETATM   17  O   UNL     1      -7.606  12.589  68.999  1.00  0.00    -0.011 OA 
BRANCH  16  18
HETATM   18  C   UNL     1      -9.316  10.919  68.675  1.00  0.00    -0.187 C  
HETATM   19  O   UNL     1      -9.629   9.642  68.114  1.00  0.00    -0.142 OA 
HETATM   20  H   UNL     1     -10.558   9.452  68.157  1.00  0.00     0.000 HD 
ENDBRANCH  16  18
ENDBRANCH   8  13
TORSDOF 2
ENDMDL
MODEL      167
REMARK 921   NORMALIZED FREE ENERGY PREDICTED BY IDOCK:   -2.80 KCAL/MOL
REMARK 922        TOTAL FREE ENERGY PREDICTED BY IDOCK:   -3.33 KCAL/MOL
REMARK 923 INTER-LIGAND FREE ENERGY PREDICTED BY IDOCK:   -3.24 KCAL/MOL
REMARK 924 INTRA-LIGAND FREE ENERGY PREDICTED BY IDOCK:   -0.08 KCAL/MOL
REMARK 927      BINDING AFFINITY PREDICTED BY RF-SCORE:    0.00 PKD
ROOT
HETATM    1  N   UNL     1      -7.107   6.143  64.676  1.00  0.00    -0.055 NA 
HETATM    2  H2  UNL     1      -7.229   5.133  64.598  1.00  0.00     0.000 HD 
HETATM    3  C   UNL     1      -8.016   6.917  65.346  1.00  0.00    -0.125 C  
HETATM    4  H1  UNL     1      -6.302   6.611  64.259  1.00  0.00     0.000 HD 
HETATM    5  N   UNL     1      -9.041   6.320  65.878  1.00  0.00    -0.297 N  
HETATM    6  H   UNL     1      -9.155   5.313  65.767  1.00  0.00     0.000 HD 
HETATM    7  C   UNL     1      -9.975   7.041  66.591  1.00  0.00    -0.154 C  
HETATM    8  N   UNL     1      -9.768   8.425  66.777  1.00  0.00    -0.219 N  
HETATM    9  O   UNL     1     -10.965   6.481  67.052  1.00  0.00    -0.368 OA 
HETATM   10  F   UNL     1      -6.775   8.929  64.814  1.00  0.00    -0.068 F  
HETATM   11  C   UNL     1      -8.694   9.059  66.180  1.00  0.00    -0.147 C  
HETATM   12  C   UNL     1      -7.820   8.376  65.451  1.00  0.00    -0.108 C  
ENDROOT
BRANCH   8  13
HETATM   13  C   UNL     1     -10.735   9.130  67.627  1.00  0.00    -0.189 C  
HETATM   14  C   UNL     1     -10.930  10.636  67.408  1.00  0.00    -0.298 C  
HETATM   15  S   UNL     1      -9.731  11.410  68.500  1.00  0.00    -0.183 SA 
HETATM   16  C   UNL     1      -9.816  10.016  69.645  1.00  0.00    -0.235 C  
HETATM   17  O   UNL     1     -10.397   8.873  69.002  1.00  0.00    -0.206 OA 
BRANCH  16  18
HETATM   18  C   UNL     1      -8.457   9.608  70.234  1.00  0.00    -0.188 C  
HETATM   19  O   UNL     1      -7.481  10.643  70.096  1.00  0.00    -0.403 OA 
HETATM   20  H   UNL     1      -6.641  10.391  70.460  1.00  0.00     0.000 HD 
ENDBRANCH  16  18
ENDBRANCH   8  13
TORSDOF 2
ENDMDL
MODEL      168
REMARK 921   NORMALIZED FREE ENERGY PREDICTED BY IDOCK:   -2.76 KCAL/MOL
REMARK 922        TOTAL FREE ENERGY PREDICTED BY IDOCK:   -3.27 KCAL/MOL
REMARK 923 INTER-LIGAND FREE ENERGY PREDICTED BY IDOCK:   -3.21 KCAL/MOL
REMARK 924 INTRA-LIGAND FREE ENERGY PREDICTED BY IDOCK:   -0.06 KCAL/MOL
REMARK 927      BINDING AFFINITY PREDICTED BY RF-SCORE:    0.00 PKD
ROOT
HETATM    1  N   UNL     1      -9.172   4.682  63.322  1.00  0.00    -0.294 NA 
HETATM    2  H2  UNL     1      -8.337   4.806  62.748  1.00  0.00     0.000 HD 
HETATM    3  C   UNL     1      -9.134   4.869  64.678  1.00  0.00    -0.074 C  
HETATM    4  H1  UNL     1     -10.063   4.414  62.905  1.00  0.00     0.000 HD 
HETATM    5  N   UNL     1      -7.998   5.211  65.208  1.00  0.00    -0.103 N  
HETATM    6  H   UNL     1      -7.172   5.307  64.618  1.00  0.00     0.000 HD 
HETATM    7  C   UNL     1      -7.904   5.444  66.564  1.00  0.00    -0.100 C  
HETATM    8  N   UNL     1      -9.072   5.357  67.351  1.00  0.00    -0.111 N  
HETATM    9  O   UNL     1      -6.818   5.721  67.067  1.00  0.00    -0.060 OA 
HETATM   10  F   UNL     1     -11.471   4.263  64.879  1.00  0.00    -0.328 F  
HETATM   11  C   UNL     1     -10.270   4.960  66.786  1.00  0.00    -0.235 C  
HETATM   12  C   UNL     1     -10.353   4.687  65.490  1.00  0.00    -0.198 C  
ENDROOT
BRANCH   8  13
HETATM   13  C   UNL     1      -8.941   5.712  68.770  1.00  0.00    -0.115 C  
HETATM   14  C   UNL     1      -9.993   5.179  69.750  1.00  0.00    -0.243 C  
HETATM   15  S   UNL     1     -11.271   6.442  69.774  1.00  0.00    -0.426 SA 
HETATM   16  C   UNL     1     -10.062   7.727  69.392  1.00  0.00    -0.195 C  
HETATM   17  O   UNL     1      -8.859   7.145  68.869  1.00  0.00    -0.131 OA 
BRANCH  16  18
HETATM   18  C   UNL     1     -10.566   8.784  68.398  1.00  0.00    -0.137 C  
HETATM   19  O   UNL     1     -11.452   9.720  69.016  1.00  0.00    -0.463 OA 
HETATM   20  H   UNL     1     -11.764  10.373  68.401  1.00  0.00     0.000 HD 
ENDBRANCH  16  18
ENDBRANCH   8  13
TORSDOF 2
ENDMDL
MODEL      169
REMARK 921   NORMALIZED FREE ENERGY PREDICTED BY IDOCK:   -2.75 KCAL/MOL
REMARK 922        TOTAL FREE ENERGY PREDICTED BY IDOCK:   -3.26 KCAL/MOL
REMARK 923 INTER-LIGAND FREE ENERGY PREDICTED BY IDOCK:   -3.10 KCAL/MOL
REMARK 924 INTRA-LIGAND FREE ENERGY PREDICTED BY IDOCK:   -0.16 KCAL/MOL
REMARK 927      BINDING AFFINITY PREDICTED BY RF-SCORE:    0.00 PKD
ROOT
HETATM    1  N   UNL     1     -11.263   6.395  67.743  1.00  0.00    -0.601 NA 
HETATM    2  H2  UNL     1     -12.237   6.687  67.665  1.00  0.00     0.000 HD 
HETATM    3  C   UNL     1     -10.371   7.100  68.507  1.00  0.00    -0.183 C  
HETATM    4  H1  UNL     1     -10.919   5.567  67.256  1.00  0.00     0.000 HD 
HETATM    5  N   UNL     1     -10.809   8.154  69.127  1.00  0.00    -0.412 N  
HETATM    6  H   UNL     1     -11.782   8.440  69.016  1.00  0.00     0.000 HD 
HETATM    7  C   UNL     1      -9.967   8.888  69.935  1.00  0.00    -0.188 C  
HETATM    8  N   UNL     1      -8.640   8.442  70.116  1.00  0.00    -0.128 N  
HETATM    9  O   UNL     1     -10.374   9.910  70.482  1.00  0.00    -0.286 OA 
HETATM   10  F   UNL     1      -8.572   5.603  67.881  1.00  0.00    -0.104 F  
HETATM   11  C   UNL     1      -8.172   7.339  69.427  1.00  0.00    -0.131 C  
HETATM   12  C   UNL     1      -8.967   6.660  68.609  1.00  0.00    -0.124 C  
ENDROOT
BRANCH   8  13
HETATM   13  C   UNL     1      -7.812   9.199  71.064  1.00  0.00    -0.116 C  
HETATM   14  C   UNL     1      -6.287   9.071  70.956  1.00  0.00    -0.061 C  
HETATM   15  S   UNL     1      -5.872   7.690  72.027  1.00  0.00    -0.036 SA 
HETATM   16  C   UNL     1      -7.299   8.028  73.081  1.00  0.00    -0.119 C  
HETATM   17  O   UNL     1      -8.239   8.869  72.398  1.00  0.00    -0.384 OA 
BRANCH  16  18
HETATM   18  C   UNL     1      -8.030   6.768  73.565  1.00  0.00    -0.094 C  
HETATM   19  O   UNL     1      -9.346   6.668  73.015  1.00  0.00    -0.135 OA 
HETATM   20  H   UNL     1      -9.798   5.889  73.314  1.00  0.00     0.000 HD 
ENDBRANCH  16  18
ENDBRANCH   8  13
TORSDOF 2
ENDMDL
MODEL      170
REMARK 921   NORMALIZED FREE ENERGY PREDICTED BY IDOCK:   -2.74 KCAL/MOL
REMARK 922        TOTAL FREE ENERGY PREDICTED BY IDOCK:   -3.25 KCAL/MOL
REMARK 923 INTER-LIGAND FREE ENERGY PREDICTED BY IDOCK:   -3.26 KCAL/MOL
REMARK 924 INTRA-LIGAND FREE ENERGY PREDICTED BY IDOCK:    0.01 KCAL/MOL
REMARK 927      BINDING AFFINITY PREDICTED BY RF-SCORE:    0.00 PKD
ROOT
HETATM    1  N   UNL     1      -9.177   7.634  65.665  1.00  0.00    -0.391 NA 
HETATM    2  H2  UNL     1      -8.324   7.977  65.223  1.00  0.00     0.000 HD 
HETATM    3  C   UNL     1      -9.143   7.018  66.888  1.00  0.00    -0.140 C  
HETATM    4  H1  UNL     1     -10.085   7.740  65.213  1.00  0.00     0.000 HD 
HETATM    5  N   UNL     1      -7.986   6.884  67.464  1.00  0.00    -0.111 N  
HETATM    6  H   UNL     1      -7.143   7.213  66.993  1.00  0.00     0.000 HD 
HETATM    7  C   UNL     1      -7.890   6.299  68.709  1.00  0.00    -0.101 C  
HETATM    8  N   UNL     1      -9.075   5.899  69.365  1.00  0.00    -0.127 N  
HETATM    9  O   UNL     1      -6.791   6.132  69.228  1.00  0.00    -0.057 OA 
HETATM   10  F   UNL     1     -11.535   6.641  66.822  1.00  0.00    -0.461 F  
HETATM   11  C   UNL     1     -10.299   6.014  68.731  1.00  0.00    -0.214 C  
HETATM   12  C   UNL     1     -10.388   6.531  67.512  1.00  0.00    -0.201 C  
ENDROOT
BRANCH   8  13
HETATM   13  C   UNL     1      -8.931   5.375  70.728  1.00  0.00    -0.137 C  
HETATM   14  C   UNL     1     -10.175   4.799  71.418  1.00  0.00    -0.166 C  
HETATM   15  S   UNL     1     -10.912   6.201  72.265  1.00  0.00    -0.275 SA 
HETATM   16  C   UNL     1      -9.297   6.988  72.451  1.00  0.00    -0.135 C  
HETATM   17  O   UNL     1      -8.348   6.404  71.547  1.00  0.00    -0.123 OA 
BRANCH  16  18
HETATM   18  C   UNL     1      -9.314   8.507  72.230  1.00  0.00    -0.293 C  
HETATM   19  O   UNL     1      -8.120   8.969  71.594  1.00  0.00    -0.329 OA 
HETATM   20  H   UNL     1      -8.130   9.908  71.458  1.00  0.00     0.000 HD 
ENDBRANCH  16  18
ENDBRANCH   8  13
TORSDOF 2
ENDMDL
MODEL      171
REMARK 921   NORMALIZED FREE ENERGY PREDICTED BY IDOCK:   -2.73 KCAL/MOL
REMARK 922        TOTAL FREE ENERGY PREDICTED BY IDOCK:   -3.25 KCAL/MOL
REMARK 923 INTER-LIGAND FREE ENERGY PREDICTED BY IDOCK:   -3.31 KCAL/MOL
REMARK 924 INTRA-LIGAND FREE ENERGY PREDICTED BY IDOCK:    0.07 KCAL/MOL
REMARK 927      BINDING AFFINITY PREDICTED BY RF-SCORE:    0.00 PKD
ROOT
HETATM    1  N   UNL     1      -6.567  14.169  70.800  1.00  0.00    -0.399 NA 
HETATM    2  H2  UNL     1      -6.971  13.241  70.670  1.00  0.00     0.000 HD 
HETATM    3  C   UNL     1      -6.737  15.153  69.863  1.00  0.00    -0.165 C  
HETATM    4  H1  UNL     1      -6.022  14.395  71.632  1.00  0.00     0.000 HD 
HETATM    5  N   UNL     1      -7.431  14.865  68.803  1.00  0.00    -0.123 N  
HETATM    6  H   UNL     1      -7.806  13.924  68.684  1.00  0.00     0.000 HD 
HETATM    7  C   UNL     1      -7.663  15.823  67.839  1.00  0.00    -0.133 C  
HETATM    8  N   UNL     1      -7.179  17.132  68.052  1.00  0.00    -0.179 N  
HETATM    9  O   UNL     1      -8.279  15.532  66.818  1.00  0.00    -0.230 OA 
HETATM   10  F   UNL     1      -5.382  16.690  71.157  1.00  0.00    -0.192 F  
HETATM   11  C   UNL     1      -6.413  17.423  69.166  1.00  0.00    -0.239 C  
HETATM   12  C   UNL     1      -6.147  16.489  70.071  1.00  0.00    -0.151 C  
ENDROOT
BRANCH   8  13
HETATM   13  C   UNL     1      -7.537  18.140  67.047  1.00  0.00    -0.214 C  
HETATM   14  C   UNL     1      -6.501  18.492  65.972  1.00  0.00    -0.234 C  
HETATM   15  S   UNL     1      -5.557  19.846  66.682  1.00  0.00    -0.166 SA 
HETATM   16  C   UNL     1      -6.981  20.382  67.654  1.00  0.00    -0.304 C  
HETATM   17  O   UNL     1      -7.956  19.333  67.735  1.00  0.00    -0.266 OA 
BRANCH  16  18
HETATM   18  C   UNL     1      -6.630  20.835  69.079  1.00  0.00     0.132 C  
HETATM   19  O   UNL     1      -5.282  21.301  69.176  1.00  0.00    -0.451 OA 
HETATM   20  H   UNL     1      -5.064  21.581  70.056  1.00  0.00     0.000 HD 
ENDBRANCH  16  18
ENDBRANCH   8  13
TORSDOF 2
ENDMDL
MODEL      172
REMARK 921   NORMALIZED FREE ENERGY PREDICTED BY IDOCK:   -2.72 KCAL/MOL
REMARK 922        TOTAL FREE ENERGY PREDICTED BY IDOCK:   -3.24 KCAL/MOL
REMARK 923 INTER-LIGAND FREE ENERGY PREDICTED BY IDOCK:   -3.63 KCAL/MOL
REMARK 924 INTRA-LIGAND FREE ENERGY PREDICTED BY IDOCK:    0.40 KCAL/MOL
REMARK 927      BINDING AFFINITY PREDICTED BY RF-SCORE:    0.00 PKD
ROOT
HETATM    1  N   UNL     1     -11.134  16.605  66.988  1.00  0.00     0.035 NA 
HETATM    2  H2  UNL     1     -12.087  16.925  66.818  1.00  0.00     0.000 HD 
HETATM    3  C   UNL     1     -10.793  15.286  66.845  1.00  0.00    -0.317 C  
HETATM    4  H1  UNL     1     -10.401  17.256  67.271  1.00  0.00     0.000 HD 
HETATM    5  N   UNL     1     -11.727  14.457  66.484  1.00  0.00    -0.383 N  
HETATM    6  H   UNL     1     -12.678  14.796  66.342  1.00  0.00     0.000 HD 
HETATM    7  C   UNL     1     -11.439  13.123  66.294  1.00  0.00    -0.334 C  
HETATM    8  N   UNL     1     -10.104  12.687  66.445  1.00  0.00    -0.248 N  
HETATM    9  O   UNL     1     -12.333  12.335  65.999  1.00  0.00    -0.609 OA 
HETATM   10  F   UNL     1      -8.516  15.746  67.533  1.00  0.00    -0.154 F  
HETATM   11  C   UNL     1      -9.123  13.568  66.861  1.00  0.00    -0.239 C  
HETATM   12  C   UNL     1      -9.408  14.843  67.093  1.00  0.00    -0.218 C  
ENDROOT
BRANCH   8  13
HETATM   13  C   UNL     1      -9.829  11.279  66.133  1.00  0.00    -0.225 C  
HETATM   14  C   UNL     1     -10.777  10.213  66.698  1.00  0.00    -0.086 C  
HETATM   15  S   UNL     1     -10.067   9.776  68.290  1.00  0.00    -0.171 SA 
HETATM   16  C   UNL     1      -8.407  10.178  67.704  1.00  0.00    -0.114 C  
HETATM   17  O   UNL     1      -8.475  10.988  66.522  1.00  0.00    -0.150 OA 
BRANCH  16  18
HETATM   18  C   UNL     1      -7.536  10.900  68.743  1.00  0.00    -0.121 C  
HETATM   19  O   UNL     1      -7.749  10.396  70.063  1.00  0.00    -0.301 OA 
HETATM   20  H   UNL     1      -7.211  10.842  70.706  1.00  0.00     0.000 HD 
ENDBRANCH  16  18
ENDBRANCH   8  13
TORSDOF 2
ENDMDL
MODEL      173
REMARK 921   NORMALIZED FREE ENERGY PREDICTED BY IDOCK:   -2.71 KCAL/MOL
REMARK 922        TOTAL FREE ENERGY PREDICTED BY IDOCK:   -3.22 KCAL/MOL
REMARK 923 INTER-LIGAND FREE ENERGY PREDICTED BY IDOCK:   -3.24 KCAL/MOL
REMARK 924 INTRA-LIGAND FREE ENERGY PREDICTED BY IDOCK:    0.02 KCAL/MOL
REMARK 927      BINDING AFFINITY PREDICTED BY RF-SCORE:    0.00 PKD
ROOT
HETATM    1  N   UNL     1      -7.531  11.458  69.301  1.00  0.00    -0.307 NA 
HETATM    2  H2  UNL     1      -6.512  11.469  69.317  1.00  0.00     0.000 HD 
HETATM    3  C   UNL     1      -8.231  10.287  69.424  1.00  0.00    -0.165 C  
HETATM    4  H1  UNL     1      -8.066  12.320  69.193  1.00  0.00     0.000 HD 
HETATM    5  N   UNL     1      -7.549   9.189  69.562  1.00  0.00    -0.076 N  
HETATM    6  H   UNL     1      -6.530   9.221  69.553  1.00  0.00     0.000 HD 
HETATM    7  C   UNL     1      -8.196   7.982  69.721  1.00  0.00    -0.120 C  
HETATM    8  N   UNL     1      -9.606   7.971  69.785  1.00  0.00    -0.171 N  
HETATM    9  O   UNL     1      -7.548   6.943  69.804  1.00  0.00    -0.099 OA 
HETATM   10  F   UNL     1     -10.338  11.459  69.182  1.00  0.00    -0.217 F  
HETATM   11  C   UNL     1     -10.325   9.138  69.604  1.00  0.00    -0.219 C  
HETATM   12  C   UNL     1      -9.706  10.294  69.401  1.00  0.00    -0.222 C  
ENDROOT
BRANCH   8  13
HETATM   13  C   UNL     1     -10.245   6.677  70.056  1.00  0.00    -0.187 C  
HETATM   14  C   UNL     1     -11.778   6.616  70.080  1.00  0.00    -0.317 C  
HETATM   15  S   UNL     1     -12.217   6.949  71.790  1.00  0.00    -0.355 SA 
HETATM   16  C   UNL     1     -10.658   6.244  72.368  1.00  0.00    -0.211 C  
HETATM   17  O   UNL     1      -9.714   6.163  71.291  1.00  0.00    -0.173 OA 
BRANCH  16  18
HETATM   18  C   UNL     1     -10.013   7.019  73.526  1.00  0.00    -0.284 C  
HETATM   19  O   UNL     1      -8.608   7.198  73.334  1.00  0.00    -0.124 OA 
HETATM   20  H   UNL     1      -8.209   7.678  74.050  1.00  0.00     0.000 HD 
ENDBRANCH  16  18
ENDBRANCH   8  13
TORSDOF 2
ENDMDL
MODEL      174
REMARK 921   NORMALIZED FREE ENERGY PREDICTED BY IDOCK:   -2.70 KCAL/MOL
REMARK 922        TOTAL FREE ENERGY PREDICTED BY IDOCK:   -3.21 KCAL/MOL
REMARK 923 INTER-LIGAND FREE ENERGY PREDICTED BY IDOCK:   -3.30 KCAL/MOL
REMARK 924 INTRA-LIGAND FREE ENERGY PREDICTED BY IDOCK:    0.09 KCAL/MOL
REMARK 927      BINDING AFFINITY PREDICTED BY RF-SCORE:    0.00 PKD
ROOT
HETATM    1  N   UNL     1      -9.602   3.089  67.902  1.00  0.00    -0.249 NA 
HETATM    2  H2  UNL     1      -9.152   2.179  68.002  1.00  0.00     0.000 HD 
HETATM    3  C   UNL     1      -9.482   4.050  68.872  1.00  0.00    -0.167 C  
HETATM    4  H1  UNL     1     -10.156   3.317  67.077  1.00  0.00     0.000 HD 
HETATM    5  N   UNL     1      -8.776   3.760  69.924  1.00  0.00    -0.072 N  
HETATM    6  H   UNL     1      -8.354   2.836  70.013  1.00  0.00     0.000 HD 
HETATM    7  C   UNL     1      -8.593   4.696  70.920  1.00  0.00    -0.105 C  
HETATM    8  N   UNL     1      -9.141   5.986  70.749  1.00  0.00    -0.152 N  
HETATM    9  O   UNL     1      -7.965   4.402  71.933  1.00  0.00    -0.092 OA 
HETATM   10  F   UNL     1     -10.910   5.559  67.626  1.00  0.00    -0.274 F  
HETATM   11  C   UNL     1      -9.919   6.275  69.644  1.00  0.00    -0.165 C  
HETATM   12  C   UNL     1     -10.138   5.361  68.707  1.00  0.00    -0.185 C  
ENDROOT
BRANCH   8  13
HETATM   13  C   UNL     1      -8.834   6.976  71.788  1.00  0.00    -0.126 C  
HETATM   14  C   UNL     1      -9.665   6.955  73.077  1.00  0.00    -0.166 C  
HETATM   15  S   UNL     1     -11.048   8.052  72.742  1.00  0.00    -0.322 SA 
HETATM   16  C   UNL     1     -10.049   9.023  71.592  1.00  0.00    -0.335 C  
HETATM   17  O   UNL     1      -8.886   8.285  71.192  1.00  0.00    -0.132 OA 
BRANCH  16  18
HETATM   18  C   UNL     1     -10.804   9.468  70.331  1.00  0.00    -0.282 C  
HETATM   19  O   UNL     1     -12.184   9.096  70.373  1.00  0.00    -0.475 OA 
HETATM   20  H   UNL     1     -12.651   9.371  69.594  1.00  0.00     0.000 HD 
ENDBRANCH  16  18
ENDBRANCH   8  13
TORSDOF 2
ENDMDL
MODEL      175
REMARK 921   NORMALIZED FREE ENERGY PREDICTED BY IDOCK:   -2.69 KCAL/MOL
REMARK 922        TOTAL FREE ENERGY PREDICTED BY IDOCK:   -3.20 KCAL/MOL
REMARK 923 INTER-LIGAND FREE ENERGY PREDICTED BY IDOCK:   -3.48 KCAL/MOL
REMARK 924 INTRA-LIGAND FREE ENERGY PREDICTED BY IDOCK:    0.29 KCAL/MOL
REMARK 927      BINDING AFFINITY PREDICTED BY RF-SCORE:    0.00 PKD
ROOT
HETATM    1  N   UNL     1      -8.923   3.289  70.434  1.00  0.00    -0.089 NA 
HETATM    2  H2  UNL     1      -9.205   2.402  70.852  1.00  0.00     0.000 HD 
HETATM    3  C   UNL     1      -9.430   4.478  70.886  1.00  0.00    -0.166 C  
HETATM    4  H1  UNL     1      -8.254   3.320  69.665  1.00  0.00     0.000 HD 
HETATM    5  N   UNL     1     -10.282   4.437  71.866  1.00  0.00    -0.174 N  
HETATM    6  H   UNL     1     -10.567   3.538  72.253  1.00  0.00     0.000 HD 
HETATM    7  C   UNL     1     -10.804   5.603  72.385  1.00  0.00    -0.248 C  
HETATM    8  N   UNL     1     -10.355   6.838  71.868  1.00  0.00    -0.197 N  
HETATM    9  O   UNL     1     -11.644   5.557  73.279  1.00  0.00    -0.180 OA 
HETATM   10  F   UNL     1      -8.179   5.706  69.213  1.00  0.00    -0.092 F  
HETATM   11  C   UNL     1      -9.474   6.872  70.804  1.00  0.00    -0.165 C  
HETATM   12  C   UNL     1      -9.008   5.750  70.269  1.00  0.00    -0.141 C  
ENDROOT
BRANCH   8  13
HETATM   13  C   UNL     1     -10.863   8.051  72.520  1.00  0.00    -0.349 C  
HETATM   14  C   UNL     1     -12.382   8.237  72.623  1.00  0.00    -0.196 C  
HETATM   15  S   UNL     1     -12.832   9.115  71.121  1.00  0.00    -0.130 SA 
HETATM   16  C   UNL     1     -11.206   9.896  71.045  1.00  0.00    -0.364 C  
HETATM   17  O   UNL     1     -10.271   9.192  71.873  1.00  0.00    -0.332 OA 
BRANCH  16  18
HETATM   18  C   UNL     1     -10.627   9.995  69.626  1.00  0.00    -0.252 C  
HETATM   19  O   UNL     1      -9.403  10.733  69.597  1.00  0.00    -0.408 OA 
HETATM   20  H   UNL     1      -9.044  10.793  68.720  1.00  0.00     0.000 HD 
ENDBRANCH  16  18
ENDBRANCH   8  13
TORSDOF 2
ENDMDL
MODEL      176
REMARK 921   NORMALIZED FREE ENERGY PREDICTED BY IDOCK:   -2.63 KCAL/MOL
REMARK 922        TOTAL FREE ENERGY PREDICTED BY IDOCK:   -3.14 KCAL/MOL
REMARK 923 INTER-LIGAND FREE ENERGY PREDICTED BY IDOCK:   -3.40 KCAL/MOL
REMARK 924 INTRA-LIGAND FREE ENERGY PREDICTED BY IDOCK:    0.26 KCAL/MOL
REMARK 927      BINDING AFFINITY PREDICTED BY RF-SCORE:    0.00 PKD
ROOT
HETATM    1  N   UNL     1     -11.136  13.022  65.152  1.00  0.00    -0.287 NA 
HETATM    2  H2  UNL     1     -11.110  13.037  64.132  1.00  0.00     0.000 HD 
HETATM    3  C   UNL     1     -10.617  11.970  65.858  1.00  0.00    -0.265 C  
HETATM    4  H1  UNL     1     -11.549  13.790  65.681  1.00  0.00     0.000 HD 
HETATM    5  N   UNL     1     -10.089  10.992  65.183  1.00  0.00    -0.270 N  
HETATM    6  H   UNL     1     -10.095  11.018  64.164  1.00  0.00     0.000 HD 
HETATM    7  C   UNL     1      -9.523   9.919  65.838  1.00  0.00    -0.215 C  
HETATM    8  N   UNL     1      -9.479   9.930  67.249  1.00  0.00    -0.151 N  
HETATM    9  O   UNL     1      -9.069   8.976  65.197  1.00  0.00    -0.207 OA 
HETATM   10  F   UNL     1     -11.287  12.979  67.956  1.00  0.00    -0.257 F  
HETATM   11  C   UNL     1     -10.071  10.957  67.960  1.00  0.00    -0.177 C  
HETATM   12  C   UNL     1     -10.661  11.967  67.333  1.00  0.00    -0.229 C  
ENDROOT
BRANCH   8  13
HETATM   13  C   UNL     1      -8.777   8.816  67.897  1.00  0.00    -0.136 C  
HETATM   14  C   UNL     1      -9.388   7.413  67.790  1.00  0.00    -0.136 C  
HETATM   15  S   UNL     1     -10.469   7.281  69.219  1.00  0.00    -0.215 SA 
HETATM   16  C   UNL     1      -9.429   8.418  70.160  1.00  0.00    -0.164 C  
HETATM   17  O   UNL     1      -8.570   9.157  69.280  1.00  0.00    -0.130 OA 
BRANCH  16  18
HETATM   18  C   UNL     1     -10.216   9.413  71.025  1.00  0.00    -0.299 C  
HETATM   19  O   UNL     1     -11.521   9.664  70.500  1.00  0.00    -0.259 OA 
HETATM   20  H   UNL     1     -12.008  10.279  71.035  1.00  0.00     0.000 HD 
ENDBRANCH  16  18
ENDBRANCH   8  13
TORSDOF 2
ENDMDL
MODEL      177
REMARK 921   NORMALIZED FREE ENERGY PREDICTED BY IDOCK:   -2.63 KCAL/MOL
REMARK 922        TOTAL FREE ENERGY PREDICTED BY IDOCK:   -3.13 KCAL/MOL
REMARK 923 INTER-LIGAND FREE ENERGY PREDICTED BY IDOCK:   -3.27 KCAL/MOL
REMARK 924 INTRA-LIGAND FREE ENERGY PREDICTED BY IDOCK:    0.13 KCAL/MOL
REMARK 927      BINDING AFFINITY PREDICTED BY RF-SCORE:    0.00 PKD
ROOT
HETATM    1  N   UNL     1      -5.413  10.216  68.542  1.00  0.00    -0.039 NA 
HETATM    2  H2  UNL     1      -4.809  10.762  69.156  1.00  0.00     0.000 HD 
HETATM    3  C   UNL     1      -6.491   9.530  69.036  1.00  0.00    -0.046 C  
HETATM    4  H1  UNL     1      -5.237  10.163  67.539  1.00  0.00     0.000 HD 
HETATM    5  N   UNL     1      -6.715   9.597  70.314  1.00  0.00    -0.084 N  
HETATM    6  H   UNL     1      -6.084  10.130  70.912  1.00  0.00     0.000 HD 
HETATM    7  C   UNL     1      -7.802   8.953  70.866  1.00  0.00    -0.133 C  
HETATM    8  N   UNL     1      -8.691   8.266  70.012  1.00  0.00    -0.132 N  
HETATM    9  O   UNL     1      -7.983   8.981  72.080  1.00  0.00    -0.356 OA 
HETATM   10  F   UNL     1      -7.017   8.668  66.833  1.00  0.00    -0.071 F  
HETATM   11  C   UNL     1      -8.427   8.171  68.658  1.00  0.00    -0.127 C  
HETATM   12  C   UNL     1      -7.355   8.748  68.131  1.00  0.00    -0.087 C  
ENDROOT
BRANCH   8  13
HETATM   13  C   UNL     1      -9.886   7.682  70.633  1.00  0.00    -0.182 C  
HETATM   14  C   UNL     1      -9.712   6.432  71.504  1.00  0.00    -0.168 C  
HETATM   15  S   UNL     1      -9.896   5.056  70.362  1.00  0.00    -0.250 SA 
HETATM   16  C   UNL     1     -10.985   6.031  69.302  1.00  0.00    -0.366 C  
HETATM   17  O   UNL     1     -10.853   7.429  69.598  1.00  0.00    -0.239 OA 
BRANCH  16  18
HETATM   18  C   UNL     1     -10.743   5.824  67.800  1.00  0.00    -0.223 C  
HETATM   19  O   UNL     1     -11.534   6.709  67.003  1.00  0.00    -0.763 OA 
HETATM   20  H   UNL     1     -11.385   6.580  66.074  1.00  0.00     0.000 HD 
ENDBRANCH  16  18
ENDBRANCH   8  13
TORSDOF 2
ENDMDL
MODEL      178
REMARK 921   NORMALIZED FREE ENERGY PREDICTED BY IDOCK:   -2.63 KCAL/MOL
REMARK 922        TOTAL FREE ENERGY PREDICTED BY IDOCK:   -3.13 KCAL/MOL
REMARK 923 INTER-LIGAND FREE ENERGY PREDICTED BY IDOCK:   -3.10 KCAL/MOL
REMARK 924 INTRA-LIGAND FREE ENERGY PREDICTED BY IDOCK:   -0.02 KCAL/MOL
REMARK 927      BINDING AFFINITY PREDICTED BY RF-SCORE:    0.00 PKD
ROOT
HETATM    1  N   UNL     1     -10.468   7.496  66.555  1.00  0.00    -0.494 NA 
HETATM    2  H2  UNL     1     -11.381   7.876  66.304  1.00  0.00     0.000 HD 
HETATM    3  C   UNL     1     -10.246   6.937  67.785  1.00  0.00    -0.180 C  
HETATM    4  H1  UNL     1      -9.688   7.519  65.898  1.00  0.00     0.000 HD 
HETATM    5  N   UNL     1     -11.240   6.908  68.622  1.00  0.00    -0.521 N  
HETATM    6  H   UNL     1     -12.137   7.314  68.358  1.00  0.00     0.000 HD 
HETATM    7  C   UNL     1     -11.088   6.331  69.865  1.00  0.00    -0.401 C  
HETATM    8  N   UNL     1      -9.853   5.728  70.188  1.00  0.00    -0.175 N  
HETATM    9  O   UNL     1     -12.015   6.347  70.669  1.00  0.00    -0.340 OA 
HETATM   10  F   UNL     1      -7.923   6.523  67.237  1.00  0.00    -0.105 F  
HETATM   11  C   UNL     1      -8.791   5.792  69.305  1.00  0.00    -0.116 C  
HETATM   12  C   UNL     1      -8.919   6.391  68.128  1.00  0.00    -0.116 C  
ENDROOT
BRANCH   8  13
HETATM   13  C   UNL     1      -9.772   5.038  71.481  1.00  0.00    -0.169 C  
HETATM   14  C   UNL     1      -8.638   5.426  72.439  1.00  0.00    -0.122 C  
HETATM   15  S   UNL     1      -7.287   4.321  72.009  1.00  0.00    -0.067 SA 
HETATM   16  C   UNL     1      -8.448   3.051  71.462  1.00  0.00    -0.064 C  
HETATM   17  O   UNL     1      -9.745   3.621  71.236  1.00  0.00    -0.165 OA 
BRANCH  16  18
HETATM   18  C   UNL     1      -8.010   2.311  70.190  1.00  0.00    -0.042 C  
HETATM   19  O   UNL     1      -6.731   1.693  70.344  1.00  0.00    -0.027 OA 
HETATM   20  H   UNL     1      -6.459   1.235  69.557  1.00  0.00     0.000 HD 
ENDBRANCH  16  18
ENDBRANCH   8  13
TORSDOF 2
ENDMDL
MODEL      179
REMARK 921   NORMALIZED FREE ENERGY PREDICTED BY IDOCK:   -2.58 KCAL/MOL
REMARK 922        TOTAL FREE ENERGY PREDICTED BY IDOCK:   -3.07 KCAL/MOL
REMARK 923 INTER-LIGAND FREE ENERGY PREDICTED BY IDOCK:   -3.20 KCAL/MOL
REMARK 924 INTRA-LIGAND FREE ENERGY PREDICTED BY IDOCK:    0.12 KCAL/MOL
REMARK 927      BINDING AFFINITY PREDICTED BY RF-SCORE:    0.00 PKD
ROOT
HETATM    1  N   UNL     1     -12.403  14.221  66.834  1.00  0.00    -0.571 NA 
HETATM    2  H2  UNL     1     -12.551  15.138  66.412  1.00  0.00     0.000 HD 
HETATM    3  C   UNL     1     -11.151  13.800  67.195  1.00  0.00    -0.302 C  
HETATM    4  H1  UNL     1     -13.183  13.586  67.002  1.00  0.00     0.000 HD 
HETATM    5  N   UNL     1     -10.157  14.610  66.981  1.00  0.00    -0.247 N  
HETATM    6  H   UNL     1     -10.325  15.513  66.537  1.00  0.00     0.000 HD 
HETATM    7  C   UNL     1      -8.877  14.256  67.351  1.00  0.00    -0.205 C  
HETATM    8  N   UNL     1      -8.677  13.025  68.012  1.00  0.00    -0.180 N  
HETATM    9  O   UNL     1      -7.936  15.004  67.103  1.00  0.00    -0.196 OA 
HETATM   10  F   UNL     1     -12.024  11.663  67.929  1.00  0.00    -0.371 F  
HETATM   11  C   UNL     1      -9.734  12.155  68.206  1.00  0.00    -0.216 C  
HETATM   12  C   UNL     1     -10.959  12.472  67.807  1.00  0.00    -0.234 C  
ENDROOT
BRANCH   8  13
HETATM   13  C   UNL     1      -7.314  12.738  68.476  1.00  0.00    -0.115 C  
HETATM   14  C   UNL     1      -6.258  12.356  67.430  1.00  0.00    -0.158 C  
HETATM   15  S   UNL     1      -6.365  10.567  67.313  1.00  0.00    -0.064 SA 
HETATM   16  C   UNL     1      -6.919  10.448  69.027  1.00  0.00    -0.071 C  
HETATM   17  O   UNL     1      -7.389  11.721  69.492  1.00  0.00     0.047 OA 
BRANCH  16  18
HETATM   18  C   UNL     1      -8.024   9.406  69.255  1.00  0.00    -0.093 C  
HETATM   19  O   UNL     1      -8.772   9.670  70.444  1.00  0.00    -0.221 OA 
HETATM   20  H   UNL     1      -9.455   9.026  70.585  1.00  0.00     0.000 HD 
ENDBRANCH  16  18
ENDBRANCH   8  13
TORSDOF 2
ENDMDL
MODEL      180
REMARK 921   NORMALIZED FREE ENERGY PREDICTED BY IDOCK:   -2.57 KCAL/MOL
REMARK 922        TOTAL FREE ENERGY PREDICTED BY IDOCK:   -3.07 KCAL/MOL
REMARK 923 INTER-LIGAND FREE ENERGY PREDICTED BY IDOCK:   -3.13 KCAL/MOL
REMARK 924 INTRA-LIGAND FREE ENERGY PREDICTED BY IDOCK:    0.06 KCAL/MOL
REMARK 927      BINDING AFFINITY PREDICTED BY RF-SCORE:    0.00 PKD
ROOT
HETATM    1  N   UNL     1      -8.148   9.786  66.686  1.00  0.00    -0.116 NA 
HETATM    2  H2  UNL     1      -8.787   9.042  66.405  1.00  0.00     0.000 HD 
HETATM    3  C   UNL     1      -8.592  11.068  66.874  1.00  0.00    -0.143 C  
HETATM    4  H1  UNL     1      -7.157   9.601  66.838  1.00  0.00     0.000 HD 
HETATM    5  N   UNL     1      -9.856  11.303  66.681  1.00  0.00    -0.201 N  
HETATM    6  H   UNL     1     -10.471  10.549  66.378  1.00  0.00     0.000 HD 
HETATM    7  C   UNL     1     -10.368  12.567  66.884  1.00  0.00    -0.229 C  
HETATM    8  N   UNL     1      -9.508  13.582  67.355  1.00  0.00    -0.218 N  
HETATM    9  O   UNL     1     -11.553  12.795  66.655  1.00  0.00    -0.330 OA 
HETATM   10  F   UNL     1      -6.349  11.825  67.393  1.00  0.00    -0.067 F  
HETATM   11  C   UNL     1      -8.159  13.333  67.526  1.00  0.00    -0.186 C  
HETATM   12  C   UNL     1      -7.653  12.130  67.284  1.00  0.00    -0.156 C  
ENDROOT
BRANCH   8  13
HETATM   13  C   UNL     1     -10.120  14.883  67.652  1.00  0.00    -0.227 C  
HETATM   14  C   UNL     1     -10.227  15.909  66.517  1.00  0.00    -0.290 C  
HETATM   15  S   UNL     1      -8.699  16.849  66.612  1.00  0.00    -0.269 SA 
HETATM   16  C   UNL     1      -8.582  16.554  68.390  1.00  0.00    -0.213 C  
HETATM   17  O   UNL     1      -9.428  15.461  68.774  1.00  0.00    -0.191 OA 
BRANCH  16  18
HETATM   18  C   UNL     1      -7.157  16.267  68.883  1.00  0.00    -0.182 C  
HETATM   19  O   UNL     1      -6.211  16.256  67.811  1.00  0.00    -0.112 OA 
HETATM   20  H   UNL     1      -5.330  16.078  68.116  1.00  0.00     0.000 HD 
ENDBRANCH  16  18
ENDBRANCH   8  13
TORSDOF 2
ENDMDL
MODEL      181
REMARK 921   NORMALIZED FREE ENERGY PREDICTED BY IDOCK:   -2.57 KCAL/MOL
REMARK 922        TOTAL FREE ENERGY PREDICTED BY IDOCK:   -3.06 KCAL/MOL
REMARK 923 INTER-LIGAND FREE ENERGY PREDICTED BY IDOCK:   -3.16 KCAL/MOL
REMARK 924 INTRA-LIGAND FREE ENERGY PREDICTED BY IDOCK:    0.10 KCAL/MOL
REMARK 927      BINDING AFFINITY PREDICTED BY RF-SCORE:    0.00 PKD
ROOT
HETATM    1  N   UNL     1     -12.982  10.387  70.440  1.00  0.00    -0.517 NA 
HETATM    2  H2  UNL     1     -13.877  10.817  70.210  1.00  0.00     0.000 HD 
HETATM    3  C   UNL     1     -11.854  10.665  69.715  1.00  0.00    -0.304 C  
HETATM    4  H1  UNL     1     -12.895   9.734  71.219  1.00  0.00     0.000 HD 
HETATM    5  N   UNL     1     -11.965  11.496  68.722  1.00  0.00    -0.319 N  
HETATM    6  H   UNL     1     -12.875  11.897  68.496  1.00  0.00     0.000 HD 
HETATM    7  C   UNL     1     -10.859  11.840  67.973  1.00  0.00    -0.213 C  
HETATM    8  N   UNL     1      -9.601  11.314  68.339  1.00  0.00    -0.189 N  
HETATM    9  O   UNL     1     -10.978  12.589  67.008  1.00  0.00    -0.251 OA 
HETATM   10  F   UNL     1     -10.548   9.130  71.059  1.00  0.00    -0.260 F  
HETATM   11  C   UNL     1      -9.497  10.404  69.375  1.00  0.00    -0.183 C  
HETATM   12  C   UNL     1     -10.567  10.034  70.066  1.00  0.00    -0.293 C  
ENDROOT
BRANCH   8  13
HETATM   13  C   UNL     1      -8.440  11.787  67.575  1.00  0.00    -0.154 C  
HETATM   14  C   UNL     1      -8.018  10.993  66.332  1.00  0.00    -0.161 C  
HETATM   15  S   UNL     1      -6.846   9.778  66.949  1.00  0.00    -0.084 SA 
HETATM   16  C   UNL     1      -6.350  10.880  68.291  1.00  0.00    -0.056 C  
HETATM   17  O   UNL     1      -7.327  11.913  68.479  1.00  0.00    -0.098 OA 
BRANCH  16  18
HETATM   18  C   UNL     1      -6.125  10.168  69.633  1.00  0.00    -0.046 C  
HETATM   19  O   UNL     1      -5.167   9.113  69.525  1.00  0.00    -0.034 OA 
HETATM   20  H   UNL     1      -5.028   8.672  70.355  1.00  0.00     0.000 HD 
ENDBRANCH  16  18
ENDBRANCH   8  13
TORSDOF 2
ENDMDL
MODEL      182
REMARK 921   NORMALIZED FREE ENERGY PREDICTED BY IDOCK:   -2.55 KCAL/MOL
REMARK 922        TOTAL FREE ENERGY PREDICTED BY IDOCK:   -3.05 KCAL/MOL
REMARK 923 INTER-LIGAND FREE ENERGY PREDICTED BY IDOCK:   -3.05 KCAL/MOL
REMARK 924 INTRA-LIGAND FREE ENERGY PREDICTED BY IDOCK:    0.00 KCAL/MOL
REMARK 927      BINDING AFFINITY PREDICTED BY RF-SCORE:    0.00 PKD
ROOT
HETATM    1  N   UNL     1      -9.012  13.703  68.731  1.00  0.00    -0.378 NA 
HETATM    2  H2  UNL     1      -9.746  13.868  69.420  1.00  0.00     0.000 HD 
HETATM    3  C   UNL     1      -9.013  12.579  67.949  1.00  0.00    -0.188 C  
HETATM    4  H1  UNL     1      -8.251  14.370  68.601  1.00  0.00     0.000 HD 
HETATM    5  N   UNL     1      -9.983  11.729  68.115  1.00  0.00    -0.189 N  
HETATM    6  H   UNL     1     -10.694  11.904  68.825  1.00  0.00     0.000 HD 
HETATM    7  C   UNL     1     -10.056  10.594  67.336  1.00  0.00    -0.194 C  
HETATM    8  N   UNL     1      -9.091  10.401  66.324  1.00  0.00    -0.155 N  
HETATM    9  O   UNL     1     -10.947   9.772  67.529  1.00  0.00    -0.275 OA 
HETATM   10  F   UNL     1      -6.937  13.247  66.894  1.00  0.00    -0.041 F  
HETATM   11  C   UNL     1      -8.044  11.292  66.175  1.00  0.00    -0.065 C  
HETATM   12  C   UNL     1      -7.944  12.360  66.957  1.00  0.00    -0.106 C  
ENDROOT
BRANCH   8  13
HETATM   13  C   UNL     1      -9.269   9.231  65.456  1.00  0.00    -0.231 C  
HETATM   14  C   UNL     1      -8.243   8.095  65.552  1.00  0.00    -0.144 C  
HETATM   15  S   UNL     1      -6.978   8.525  64.350  1.00  0.00    -0.082 SA 
HETATM   16  C   UNL     1      -8.186   9.400  63.334  1.00  0.00    -0.168 C  
HETATM   17  O   UNL     1      -9.367   9.690  64.095  1.00  0.00    -0.236 OA 
BRANCH  16  18
HETATM   18  C   UNL     1      -7.661  10.710  62.728  1.00  0.00    -0.066 C  
HETATM   19  O   UNL     1      -8.723  11.591  62.356  1.00  0.00    -0.530 OA 
HETATM   20  H   UNL     1      -8.399  12.401  61.982  1.00  0.00     0.000 HD 
ENDBRANCH  16  18
ENDBRANCH   8  13
TORSDOF 2
ENDMDL
MODEL      183
REMARK 921   NORMALIZED FREE ENERGY PREDICTED BY IDOCK:   -2.55 KCAL/MOL
REMARK 922        TOTAL FREE ENERGY PREDICTED BY IDOCK:   -3.04 KCAL/MOL
REMARK 923 INTER-LIGAND FREE ENERGY PREDICTED BY IDOCK:   -2.96 KCAL/MOL
REMARK 924 INTRA-LIGAND FREE ENERGY PREDICTED BY IDOCK:   -0.08 KCAL/MOL
REMARK 927      BINDING AFFINITY PREDICTED BY RF-SCORE:    0.00 PKD
ROOT
HETATM    1  N   UNL     1      -7.248   7.826  66.818  1.00  0.00    -0.086 NA 
HETATM    2  H2  UNL     1      -7.372   7.393  65.903  1.00  0.00     0.000 HD 
HETATM    3  C   UNL     1      -8.228   7.762  67.772  1.00  0.00    -0.126 C  
HETATM    4  H1  UNL     1      -6.388   8.322  67.054  1.00  0.00     0.000 HD 
HETATM    5  N   UNL     1      -9.323   7.129  67.471  1.00  0.00    -0.124 N  
HETATM    6  H   UNL     1      -9.434   6.723  66.542  1.00  0.00     0.000 HD 
HETATM    7  C   UNL     1     -10.333   7.004  68.400  1.00  0.00    -0.193 C  
HETATM    8  N   UNL     1     -10.134   7.527  69.696  1.00  0.00    -0.185 N  
HETATM    9  O   UNL     1     -11.384   6.446  68.096  1.00  0.00    -0.266 OA 
HETATM   10  F   UNL     1      -6.899   9.091  69.301  1.00  0.00    -0.047 F  
HETATM   11  C   UNL     1      -8.981   8.228  69.999  1.00  0.00    -0.142 C  
HETATM   12  C   UNL     1      -8.027   8.393  69.091  1.00  0.00    -0.110 C  
ENDROOT
BRANCH   8  13
HETATM   13  C   UNL     1     -11.196   7.281  70.679  1.00  0.00    -0.274 C  
HETATM   14  C   UNL     1     -11.342   8.263  71.849  1.00  0.00    -0.308 C  
HETATM   15  S   UNL     1     -10.288   7.589  73.139  1.00  0.00    -0.362 SA 
HETATM   16  C   UNL     1     -10.539   5.911  72.522  1.00  0.00    -0.218 C  
HETATM   17  O   UNL     1     -11.044   5.940  71.180  1.00  0.00    -0.274 OA 
BRANCH  16  18
HETATM   18  C   UNL     1      -9.275   5.040  72.550  1.00  0.00    -0.132 C  
HETATM   19  O   UNL     1      -8.519   5.232  73.748  1.00  0.00    -0.111 OA 
HETATM   20  H   UNL     1      -7.737   4.694  73.765  1.00  0.00     0.000 HD 
ENDBRANCH  16  18
ENDBRANCH   8  13
TORSDOF 2
ENDMDL
MODEL      184
REMARK 921   NORMALIZED FREE ENERGY PREDICTED BY IDOCK:   -2.55 KCAL/MOL
REMARK 922        TOTAL FREE ENERGY PREDICTED BY IDOCK:   -3.04 KCAL/MOL
REMARK 923 INTER-LIGAND FREE ENERGY PREDICTED BY IDOCK:   -3.34 KCAL/MOL
REMARK 924 INTRA-LIGAND FREE ENERGY PREDICTED BY IDOCK:    0.30 KCAL/MOL
REMARK 927      BINDING AFFINITY PREDICTED BY RF-SCORE:    0.00 PKD
ROOT
HETATM    1  N   UNL     1      -5.591   6.419  74.003  1.00  0.00    -0.053 NA 
HETATM    2  H2  UNL     1      -5.365   5.597  74.563  1.00  0.00     0.000 HD 
HETATM    3  C   UNL     1      -6.886   6.714  73.668  1.00  0.00    -0.076 C  
HETATM    4  H1  UNL     1      -4.861   7.050  73.673  1.00  0.00     0.000 HD 
HETATM    5  N   UNL     1      -7.816   5.910  74.088  1.00  0.00    -0.101 N  
HETATM    6  H   UNL     1      -7.565   5.081  74.627  1.00  0.00     0.000 HD 
HETATM    7  C   UNL     1      -9.141   6.170  73.810  1.00  0.00    -0.128 C  
HETATM    8  N   UNL     1      -9.469   7.351  73.109  1.00  0.00    -0.180 N  
HETATM    9  O   UNL     1     -10.012   5.383  74.168  1.00  0.00    -0.175 OA 
HETATM   10  F   UNL     1      -6.171   8.652  72.402  1.00  0.00    -0.063 F  
HETATM   11  C   UNL     1      -8.472   8.184  72.636  1.00  0.00    -0.190 C  
HETATM   12  C   UNL     1      -7.193   7.910  72.860  1.00  0.00    -0.090 C  
ENDROOT
BRANCH   8  13
HETATM   13  C   UNL     1     -10.897   7.635  72.924  1.00  0.00    -0.389 C  
HETATM   14  C   UNL     1     -11.783   6.537  72.321  1.00  0.00    -0.281 C  
HETATM   15  S   UNL     1     -11.717   6.827  70.549  1.00  0.00    -0.348 SA 
HETATM   16  C   UNL     1     -11.449   8.593  70.808  1.00  0.00    -0.259 C  
HETATM   17  O   UNL     1     -11.020   8.844  72.154  1.00  0.00    -0.362 OA 
BRANCH  16  18
HETATM   18  C   UNL     1     -10.430   9.219  69.844  1.00  0.00    -0.227 C  
HETATM   19  O   UNL     1     -10.184  10.594  70.144  1.00  0.00    -0.421 OA 
HETATM   20  H   UNL     1      -9.554  10.981  69.548  1.00  0.00     0.000 HD 
ENDBRANCH  16  18
ENDBRANCH   8  13
TORSDOF 2
ENDMDL
MODEL      185
REMARK 921   NORMALIZED FREE ENERGY PREDICTED BY IDOCK:   -2.53 KCAL/MOL
REMARK 922        TOTAL FREE ENERGY PREDICTED BY IDOCK:   -3.02 KCAL/MOL
REMARK 923 INTER-LIGAND FREE ENERGY PREDICTED BY IDOCK:   -2.94 KCAL/MOL
REMARK 924 INTRA-LIGAND FREE ENERGY PREDICTED BY IDOCK:   -0.08 KCAL/MOL
REMARK 927      BINDING AFFINITY PREDICTED BY RF-SCORE:    0.00 PKD
ROOT
HETATM    1  N   UNL     1      -6.926   7.252  68.268  1.00  0.00    -0.073 NA 
HETATM    2  H2  UNL     1      -6.708   6.818  69.165  1.00  0.00     0.000 HD 
HETATM    3  C   UNL     1      -7.912   8.196  68.158  1.00  0.00    -0.127 C  
HETATM    4  H1  UNL     1      -6.415   7.000  67.421  1.00  0.00     0.000 HD 
HETATM    5  N   UNL     1      -8.562   8.518  69.236  1.00  0.00    -0.128 N  
HETATM    6  H   UNL     1      -8.343   8.054  70.118  1.00  0.00     0.000 HD 
HETATM    7  C   UNL     1      -9.545   9.484  69.196  1.00  0.00    -0.170 C  
HETATM    8  N   UNL     1      -9.793  10.150  67.976  1.00  0.00    -0.146 N  
HETATM    9  O   UNL     1     -10.188   9.751  70.207  1.00  0.00    -0.261 OA 
HETATM   10  F   UNL     1      -7.544   8.378  65.770  1.00  0.00    -0.079 F  
HETATM   11  C   UNL     1      -9.121   9.779  66.826  1.00  0.00    -0.146 C  
HETATM   12  C   UNL     1      -8.209   8.815  66.852  1.00  0.00    -0.108 C  
ENDROOT
BRANCH   8  13
HETATM   13  C   UNL     1     -10.777  11.239  68.006  1.00  0.00    -0.203 C  
HETATM   14  C   UNL     1     -11.365  11.721  66.674  1.00  0.00    -0.316 C  
HETATM   15  S   UNL     1     -10.255  13.028  66.137  1.00  0.00    -0.288 SA 
HETATM   16  C   UNL     1      -9.835  13.428  67.847  1.00  0.00    -0.237 C  
HETATM   17  O   UNL     1     -10.200  12.348  68.719  1.00  0.00    -0.186 OA 
BRANCH  16  18
HETATM   18  C   UNL     1      -8.350  13.753  68.066  1.00  0.00    -0.171 C  
HETATM   19  O   UNL     1      -7.862  13.222  69.300  1.00  0.00    -0.305 OA 
HETATM   20  H   UNL     1      -6.944  13.423  69.435  1.00  0.00     0.000 HD 
ENDBRANCH  16  18
ENDBRANCH   8  13
TORSDOF 2
ENDMDL
MODEL      186
REMARK 921   NORMALIZED FREE ENERGY PREDICTED BY IDOCK:   -2.47 KCAL/MOL
REMARK 922        TOTAL FREE ENERGY PREDICTED BY IDOCK:   -2.95 KCAL/MOL
REMARK 923 INTER-LIGAND FREE ENERGY PREDICTED BY IDOCK:   -2.77 KCAL/MOL
REMARK 924 INTRA-LIGAND FREE ENERGY PREDICTED BY IDOCK:   -0.18 KCAL/MOL
REMARK 927      BINDING AFFINITY PREDICTED BY RF-SCORE:    0.00 PKD
ROOT
HETATM    1  N   UNL     1      -6.319   6.186  72.867  1.00  0.00    -0.061 NA 
HETATM    2  H2  UNL     1      -6.456   6.007  73.861  1.00  0.00     0.000 HD 
HETATM    3  C   UNL     1      -7.383   6.396  72.030  1.00  0.00    -0.092 C  
HETATM    4  H1  UNL     1      -5.384   6.215  72.460  1.00  0.00     0.000 HD 
HETATM    5  N   UNL     1      -8.574   6.359  72.549  1.00  0.00    -0.123 N  
HETATM    6  H   UNL     1      -8.689   6.155  73.542  1.00  0.00     0.000 HD 
HETATM    7  C   UNL     1      -9.684   6.593  71.764  1.00  0.00    -0.161 C  
HETATM    8  N   UNL     1      -9.497   6.926  70.405  1.00  0.00    -0.169 N  
HETATM    9  O   UNL     1     -10.809   6.510  72.249  1.00  0.00    -0.217 OA 
HETATM   10  F   UNL     1      -5.908   6.608  70.120  1.00  0.00    -0.020 F  
HETATM   11  C   UNL     1      -8.229   6.931  69.854  1.00  0.00    -0.127 C  
HETATM   12  C   UNL     1      -7.163   6.657  70.595  1.00  0.00    -0.074 C  
ENDROOT
BRANCH   8  13
HETATM   13  C   UNL     1     -10.700   7.265  69.637  1.00  0.00    -0.236 C  
HETATM   14  C   UNL     1     -10.816   6.737  68.201  1.00  0.00    -0.228 C  
HETATM   15  S   UNL     1     -10.068   8.017  67.186  1.00  0.00    -0.292 SA 
HETATM   16  C   UNL     1     -10.533   9.289  68.381  1.00  0.00    -0.206 C  
HETATM   17  O   UNL     1     -10.853   8.696  69.647  1.00  0.00    -0.226 OA 
BRANCH  16  18
HETATM   18  C   UNL     1      -9.457  10.362  68.601  1.00  0.00    -0.167 C  
HETATM   19  O   UNL     1      -9.015  10.406  69.959  1.00  0.00    -0.372 OA 
HETATM   20  H   UNL     1      -8.350  11.070  70.096  1.00  0.00     0.000 HD 
ENDBRANCH  16  18
ENDBRANCH   8  13
TORSDOF 2
ENDMDL
MODEL      187
REMARK 921   NORMALIZED FREE ENERGY PREDICTED BY IDOCK:   -2.40 KCAL/MOL
REMARK 922        TOTAL FREE ENERGY PREDICTED BY IDOCK:   -2.87 KCAL/MOL
REMARK 923 INTER-LIGAND FREE ENERGY PREDICTED BY IDOCK:   -2.68 KCAL/MOL
REMARK 924 INTRA-LIGAND FREE ENERGY PREDICTED BY IDOCK:   -0.19 KCAL/MOL
REMARK 927      BINDING AFFINITY PREDICTED BY RF-SCORE:    0.00 PKD
ROOT
HETATM    1  N   UNL     1      -6.541  11.600  69.940  1.00  0.00    -0.315 NA 
HETATM    2  H2  UNL     1      -5.849  12.013  70.566  1.00  0.00     0.000 HD 
HETATM    3  C   UNL     1      -6.978  10.315  70.116  1.00  0.00    -0.155 C  
HETATM    4  H1  UNL     1      -6.931  12.131  69.162  1.00  0.00     0.000 HD 
HETATM    5  N   UNL     1      -6.481   9.639  71.109  1.00  0.00    -0.046 N  
HETATM    6  H   UNL     1      -5.774  10.064  71.708  1.00  0.00     0.000 HD 
HETATM    7  C   UNL     1      -6.904   8.350  71.356  1.00  0.00    -0.069 C  
HETATM    8  N   UNL     1      -7.922   7.802  70.546  1.00  0.00    -0.097 N  
HETATM    9  O   UNL     1      -6.397   7.699  72.265  1.00  0.00    -0.042 OA 
HETATM   10  F   UNL     1      -8.394  10.472  68.156  1.00  0.00    -0.110 F  
HETATM   11  C   UNL     1      -8.422   8.514  69.472  1.00  0.00    -0.127 C  
HETATM   12  C   UNL     1      -7.981   9.736  69.202  1.00  0.00    -0.104 C  
ENDROOT
BRANCH   8  13
HETATM   13  C   UNL     1      -8.409   6.466  70.911  1.00  0.00    -0.126 C  
HETATM   14  C   UNL     1      -8.976   5.573  69.800  1.00  0.00    -0.125 C  
HETATM   15  S   UNL     1     -10.730   5.965  69.756  1.00  0.00    -0.363 SA 
HETATM   16  C   UNL     1     -10.719   6.386  71.512  1.00  0.00    -0.238 C  
HETATM   17  O   UNL     1      -9.377   6.612  71.966  1.00  0.00    -0.144 OA 
BRANCH  16  18
HETATM   18  C   UNL     1     -11.568   7.616  71.865  1.00  0.00    -0.280 C  
HETATM   19  O   UNL     1     -10.773   8.685  72.383  1.00  0.00    -0.339 OA 
HETATM   20  H   UNL     1     -11.298   9.445  72.601  1.00  0.00     0.000 HD 
ENDBRANCH  16  18
ENDBRANCH   8  13
TORSDOF 2
ENDMDL
MODEL      188
REMARK 921   NORMALIZED FREE ENERGY PREDICTED BY IDOCK:   -2.39 KCAL/MOL
REMARK 922        TOTAL FREE ENERGY PREDICTED BY IDOCK:   -2.87 KCAL/MOL
REMARK 923 INTER-LIGAND FREE ENERGY PREDICTED BY IDOCK:   -3.18 KCAL/MOL
REMARK 924 INTRA-LIGAND FREE ENERGY PREDICTED BY IDOCK:    0.31 KCAL/MOL
REMARK 927      BINDING AFFINITY PREDICTED BY RF-SCORE:    0.00 PKD
ROOT
HETATM    1  N   UNL     1      -9.458  10.647  65.662  1.00  0.00    -0.199 NA 
HETATM    2  H2  UNL     1      -9.081  10.430  64.740  1.00  0.00     0.000 HD 
HETATM    3  C   UNL     1      -9.884   9.655  66.505  1.00  0.00    -0.235 C  
HETATM    4  H1  UNL     1      -9.530  11.610  65.990  1.00  0.00     0.000 HD 
HETATM    5  N   UNL     1      -9.792   8.428  66.088  1.00  0.00    -0.458 N  
HETATM    6  H   UNL     1      -9.433   8.236  65.153  1.00  0.00     0.000 HD 
HETATM    7  C   UNL     1     -10.176   7.384  66.903  1.00  0.00    -0.276 C  
HETATM    8  N   UNL     1     -10.619   7.671  68.212  1.00  0.00    -0.165 N  
HETATM    9  O   UNL     1     -10.131   6.230  66.487  1.00  0.00    -0.167 OA 
HETATM   10  F   UNL     1     -10.556  11.285  68.168  1.00  0.00    -0.180 F  
HETATM   11  C   UNL     1     -10.746   8.981  68.637  1.00  0.00    -0.097 C  
HETATM   12  C   UNL     1     -10.424   9.990  67.837  1.00  0.00    -0.231 C  
ENDROOT
BRANCH   8  13
HETATM   13  C   UNL     1     -10.921   6.523  69.075  1.00  0.00    -0.321 C  
HETATM   14  C   UNL     1     -10.923   6.738  70.594  1.00  0.00    -0.267 C  
HETATM   15  S   UNL     1      -9.233   6.401  71.100  1.00  0.00    -0.156 SA 
HETATM   16  C   UNL     1      -9.010   5.248  69.728  1.00  0.00    -0.111 C  
HETATM   17  O   UNL     1     -10.021   5.453  68.732  1.00  0.00    -0.146 OA 
BRANCH  16  18
HETATM   18  C   UNL     1      -7.633   5.338  69.054  1.00  0.00    -0.078 C  
HETATM   19  O   UNL     1      -7.734   5.344  67.628  1.00  0.00    -0.090 OA 
HETATM   20  H   UNL     1      -6.883   5.399  67.211  1.00  0.00     0.000 HD 
ENDBRANCH  16  18
ENDBRANCH   8  13
TORSDOF 2
ENDMDL
MODEL      189
REMARK 921   NORMALIZED FREE ENERGY PREDICTED BY IDOCK:   -2.39 KCAL/MOL
REMARK 922        TOTAL FREE ENERGY PREDICTED BY IDOCK:   -2.86 KCAL/MOL
REMARK 923 INTER-LIGAND FREE ENERGY PREDICTED BY IDOCK:   -2.82 KCAL/MOL
REMARK 924 INTRA-LIGAND FREE ENERGY PREDICTED BY IDOCK:   -0.04 KCAL/MOL
REMARK 927      BINDING AFFINITY PREDICTED BY RF-SCORE:    0.00 PKD
ROOT
HETATM    1  N   UNL     1     -11.785   7.741  69.854  1.00  0.00    -0.377 NA 
HETATM    2  H2  UNL     1     -11.964   7.585  68.862  1.00  0.00     0.000 HD 
HETATM    3  C   UNL     1     -11.134   6.805  70.613  1.00  0.00    -0.291 C  
HETATM    4  H1  UNL     1     -12.084   8.600  70.315  1.00  0.00     0.000 HD 
HETATM    5  N   UNL     1     -10.753   5.711  70.024  1.00  0.00    -0.323 N  
HETATM    6  H   UNL     1     -10.963   5.566  69.037  1.00  0.00     0.000 HD 
HETATM    7  C   UNL     1     -10.066   4.744  70.728  1.00  0.00    -0.216 C  
HETATM    8  N   UNL     1      -9.741   4.989  72.079  1.00  0.00    -0.159 N  
HETATM    9  O   UNL     1      -9.750   3.692  70.180  1.00  0.00    -0.192 OA 
HETATM   10  F   UNL     1     -11.371   8.173  72.598  1.00  0.00    -0.377 F  
HETATM   11  C   UNL     1     -10.179   6.141  72.707  1.00  0.00    -0.185 C  
HETATM   12  C   UNL     1     -10.883   7.051  72.045  1.00  0.00    -0.223 C  
ENDROOT
BRANCH   8  13
HETATM   13  C   UNL     1      -8.922   3.976  72.756  1.00  0.00    -0.105 C  
HETATM   14  C   UNL     1      -8.693   4.121  74.266  1.00  0.00    -0.095 C  
HETATM   15  S   UNL     1      -7.199   5.109  74.404  1.00  0.00    -0.082 SA 
HETATM   16  C   UNL     1      -6.588   4.476  72.827  1.00  0.00    -0.046 C  
HETATM   17  O   UNL     1      -7.658   3.888  72.074  1.00  0.00    -0.062 OA 
BRANCH  16  18
HETATM   18  C   UNL     1      -5.899   5.535  71.954  1.00  0.00    -0.025 C  
HETATM   19  O   UNL     1      -6.841   6.420  71.342  1.00  0.00    -0.063 OA 
HETATM   20  H   UNL     1      -6.415   7.074  70.802  1.00  0.00     0.000 HD 
ENDBRANCH  16  18
ENDBRANCH   8  13
TORSDOF 2
ENDMDL
MODEL      190
REMARK 921   NORMALIZED FREE ENERGY PREDICTED BY IDOCK:   -2.36 KCAL/MOL
REMARK 922        TOTAL FREE ENERGY PREDICTED BY IDOCK:   -2.83 KCAL/MOL
REMARK 923 INTER-LIGAND FREE ENERGY PREDICTED BY IDOCK:   -2.80 KCAL/MOL
REMARK 924 INTRA-LIGAND FREE ENERGY PREDICTED BY IDOCK:   -0.03 KCAL/MOL
REMARK 927      BINDING AFFINITY PREDICTED BY RF-SCORE:    0.00 PKD
ROOT
HETATM    1  N   UNL     1      -8.371  12.831  68.449  1.00  0.00    -0.251 NA 
HETATM    2  H2  UNL     1      -8.034  13.484  69.157  1.00  0.00     0.000 HD 
HETATM    3  C   UNL     1      -8.185  11.481  68.583  1.00  0.00    -0.124 C  
HETATM    4  H1  UNL     1      -8.858  13.162  67.616  1.00  0.00     0.000 HD 
HETATM    5  N   UNL     1      -7.565  11.060  69.645  1.00  0.00    -0.367 N  
HETATM    6  H   UNL     1      -7.217  11.732  70.329  1.00  0.00     0.000 HD 
HETATM    7  C   UNL     1      -7.375   9.711  69.852  1.00  0.00    -0.120 C  
HETATM    8  N   UNL     1      -7.912   8.798  68.919  1.00  0.00    -0.103 N  
HETATM    9  O   UNL     1      -6.747   9.321  70.832  1.00  0.00    -0.077 OA 
HETATM   10  F   UNL     1      -9.249  11.069  66.445  1.00  0.00    -0.163 F  
HETATM   11  C   UNL     1      -8.541   9.254  67.775  1.00  0.00    -0.117 C  
HETATM   12  C   UNL     1      -8.682  10.554  67.549  1.00  0.00    -0.125 C  
ENDROOT
BRANCH   8  13
HETATM   13  C   UNL     1      -7.772   7.371  69.234  1.00  0.00    -0.107 C  
HETATM   14  C   UNL     1      -6.965   6.491  68.270  1.00  0.00    -0.080 C  
HETATM   15  S   UNL     1      -8.176   5.890  67.086  1.00  0.00    -0.105 SA 
HETATM   16  C   UNL     1      -9.488   5.983  68.323  1.00  0.00    -0.115 C  
HETATM   17  O   UNL     1      -9.088   6.819  69.418  1.00  0.00    -0.143 OA 
BRANCH  16  18
HETATM   18  C   UNL     1     -10.826   6.502  67.776  1.00  0.00    -0.314 C  
HETATM   19  O   UNL     1     -10.749   6.815  66.383  1.00  0.00    -0.490 OA 
HETATM   20  H   UNL     1     -11.577   7.136  66.045  1.00  0.00     0.000 HD 
ENDBRANCH  16  18
ENDBRANCH   8  13
TORSDOF 2
ENDMDL
MODEL      191
REMARK 921   NORMALIZED FREE ENERGY PREDICTED BY IDOCK:   -2.35 KCAL/MOL
REMARK 922        TOTAL FREE ENERGY PREDICTED BY IDOCK:   -2.82 KCAL/MOL
REMARK 923 INTER-LIGAND FREE ENERGY PREDICTED BY IDOCK:   -4.08 KCAL/MOL
REMARK 924 INTRA-LIGAND FREE ENERGY PREDICTED BY IDOCK:    1.26 KCAL/MOL
REMARK 927      BINDING AFFINITY PREDICTED BY RF-SCORE:    0.00 PKD
ROOT
HETATM    1  N   UNL     1     -11.355  15.269  69.463  1.00  0.00    -0.267 NA 
HETATM    2  H2  UNL     1     -12.245  15.205  69.957  1.00  0.00     0.000 HD 
HETATM    3  C   UNL     1     -11.259  14.955  68.134  1.00  0.00    -0.299 C  
HETATM    4  H1  UNL     1     -10.506  15.568  69.942  1.00  0.00     0.000 HD 
HETATM    5  N   UNL     1     -12.341  14.574  67.524  1.00  0.00    -0.582 N  
HETATM    6  H   UNL     1     -13.215  14.496  68.043  1.00  0.00     0.000 HD 
HETATM    7  C   UNL     1     -12.314  14.274  66.178  1.00  0.00    -0.387 C  
HETATM    8  N   UNL     1     -11.105  14.441  65.469  1.00  0.00    -0.314 N  
HETATM    9  O   UNL     1     -13.328  13.869  65.617  1.00  0.00    -0.620 OA 
HETATM   10  F   UNL     1      -8.875  15.387  68.151  1.00  0.00    -0.163 F  
HETATM   11  C   UNL     1      -9.950  14.815  66.131  1.00  0.00    -0.304 C  
HETATM   12  C   UNL     1      -9.962  15.056  67.436  1.00  0.00    -0.226 C  
ENDROOT
BRANCH   8  13
HETATM   13  C   UNL     1     -11.151  14.207  64.020  1.00  0.00     0.223 C  
HETATM   14  C   UNL     1     -12.442  13.637  63.419  1.00  0.00     0.025 C  
HETATM   15  S   UNL     1     -12.220  11.855  63.483  1.00  0.00    -0.381 SA 
HETATM   16  C   UNL     1     -10.429  12.033  63.347  1.00  0.00    -0.433 C  
HETATM   17  O   UNL     1     -10.032  13.375  63.663  1.00  0.00     0.311 OA 
BRANCH  16  18
HETATM   18  C   UNL     1      -9.635  11.066  64.237  1.00  0.00    -0.262 C  
HETATM   19  O   UNL     1     -10.109   9.722  64.123  1.00  0.00    -0.399 OA 
HETATM   20  H   UNL     1      -9.618   9.124  64.674  1.00  0.00     0.000 HD 
ENDBRANCH  16  18
ENDBRANCH   8  13
TORSDOF 2
ENDMDL
MODEL      192
REMARK 921   NORMALIZED FREE ENERGY PREDICTED BY IDOCK:   -2.33 KCAL/MOL
REMARK 922        TOTAL FREE ENERGY PREDICTED BY IDOCK:   -2.80 KCAL/MOL
REMARK 923 INTER-LIGAND FREE ENERGY PREDICTED BY IDOCK:   -2.71 KCAL/MOL
REMARK 924 INTRA-LIGAND FREE ENERGY PREDICTED BY IDOCK:   -0.09 KCAL/MOL
REMARK 927      BINDING AFFINITY PREDICTED BY RF-SCORE:    0.00 PKD
ROOT
HETATM    1  N   UNL     1      -5.425  13.486  68.993  1.00  0.00    -0.072 NA 
HETATM    2  H2  UNL     1      -4.814  13.861  69.718  1.00  0.00     0.000 HD 
HETATM    3  C   UNL     1      -6.121  12.322  69.185  1.00  0.00    -0.083 C  
HETATM    4  H1  UNL     1      -5.540  13.964  68.100  1.00  0.00     0.000 HD 
HETATM    5  N   UNL     1      -5.975  11.712  70.323  1.00  0.00    -0.160 N  
HETATM    6  H   UNL     1      -5.341  12.094  71.025  1.00  0.00     0.000 HD 
HETATM    7  C   UNL     1      -6.673  10.553  70.588  1.00  0.00     0.157 C  
HETATM    8  N   UNL     1      -7.584  10.073  69.623  1.00  0.00    -0.129 N  
HETATM    9  O   UNL     1      -6.496   9.955  71.646  1.00  0.00    -0.305 OA 
HETATM   10  F   UNL     1      -7.045  12.444  66.948  1.00  0.00    -0.133 F  
HETATM   11  C   UNL     1      -7.709  10.708  68.401  1.00  0.00    -0.106 C  
HETATM   12  C   UNL     1      -7.002  11.797  68.124  1.00  0.00    -0.076 C  
ENDROOT
BRANCH   8  13
HETATM   13  C   UNL     1      -8.377   8.893  69.991  1.00  0.00    -0.133 C  
HETATM   14  C   UNL     1      -8.744   7.894  68.886  1.00  0.00    -0.135 C  
HETATM   15  S   UNL     1     -10.316   8.484  68.247  1.00  0.00    -0.177 SA 
HETATM   16  C   UNL     1     -10.740   9.206  69.847  1.00  0.00    -0.231 C  
HETATM   17  O   UNL     1      -9.568   9.342  70.663  1.00  0.00    -0.250 OA 
BRANCH  16  18
HETATM   18  C   UNL     1     -11.432  10.573  69.752  1.00  0.00    -0.294 C  
HETATM   19  O   UNL     1     -12.856  10.456  69.779  1.00  0.00    -0.579 OA 
HETATM   20  H   UNL     1     -13.284  11.302  69.720  1.00  0.00     0.000 HD 
ENDBRANCH  16  18
ENDBRANCH   8  13
TORSDOF 2
ENDMDL
MODEL      193
REMARK 921   NORMALIZED FREE ENERGY PREDICTED BY IDOCK:   -2.33 KCAL/MOL
REMARK 922        TOTAL FREE ENERGY PREDICTED BY IDOCK:   -2.79 KCAL/MOL
REMARK 923 INTER-LIGAND FREE ENERGY PREDICTED BY IDOCK:   -3.25 KCAL/MOL
REMARK 924 INTRA-LIGAND FREE ENERGY PREDICTED BY IDOCK:    0.45 KCAL/MOL
REMARK 927      BINDING AFFINITY PREDICTED BY RF-SCORE:    0.00 PKD
ROOT
HETATM    1  N   UNL     1     -12.233   7.211  71.569  1.00  0.00    -0.339 NA 
HETATM    2  H2  UNL     1     -12.674   6.294  71.638  1.00  0.00     0.000 HD 
HETATM    3  C   UNL     1     -11.498   7.563  70.469  1.00  0.00    -0.237 C  
HETATM    4  H1  UNL     1     -12.324   7.897  72.318  1.00  0.00     0.000 HD 
HETATM    5  N   UNL     1     -11.382   6.688  69.515  1.00  0.00    -0.542 N  
HETATM    6  H   UNL     1     -11.813   5.769  69.615  1.00  0.00     0.000 HD 
HETATM    7  C   UNL     1     -10.681   6.995  68.368  1.00  0.00    -0.179 C  
HETATM    8  N   UNL     1     -10.139   8.291  68.230  1.00  0.00    -0.192 N  
HETATM    9  O   UNL     1     -10.534   6.149  67.491  1.00  0.00    -0.178 OA 
HETATM   10  F   UNL     1     -10.974   9.718  71.444  1.00  0.00    -0.405 F  
HETATM   11  C   UNL     1     -10.237   9.205  69.262  1.00  0.00    -0.210 C  
HETATM   12  C   UNL     1     -10.870   8.895  70.387  1.00  0.00    -0.236 C  
ENDROOT
BRANCH   8  13
HETATM   13  C   UNL     1      -9.489   8.602  66.951  1.00  0.00    -0.180 C  
HETATM   14  C   UNL     1      -8.603   7.527  66.308  1.00  0.00    -0.145 C  
HETATM   15  S   UNL     1      -6.962   7.837  66.972  1.00  0.00    -0.078 SA 
HETATM   16  C   UNL     1      -7.327   9.596  67.157  1.00  0.00    -0.087 C  
HETATM   17  O   UNL     1      -8.743   9.823  67.110  1.00  0.00    -0.131 OA 
BRANCH  16  18
HETATM   18  C   UNL     1      -6.775  10.215  68.449  1.00  0.00    -0.054 C  
HETATM   19  O   UNL     1      -6.995   9.373  69.583  1.00  0.00    -0.052 OA 
HETATM   20  H   UNL     1      -6.654   9.756  70.383  1.00  0.00     0.000 HD 
ENDBRANCH  16  18
ENDBRANCH   8  13
TORSDOF 2
ENDMDL
MODEL      194
REMARK 921   NORMALIZED FREE ENERGY PREDICTED BY IDOCK:   -2.32 KCAL/MOL
REMARK 922        TOTAL FREE ENERGY PREDICTED BY IDOCK:   -2.79 KCAL/MOL
REMARK 923 INTER-LIGAND FREE ENERGY PREDICTED BY IDOCK:   -3.37 KCAL/MOL
REMARK 924 INTRA-LIGAND FREE ENERGY PREDICTED BY IDOCK:    0.58 KCAL/MOL
REMARK 927      BINDING AFFINITY PREDICTED BY RF-SCORE:    0.00 PKD
ROOT
HETATM    1  N   UNL     1      -7.161  10.104  64.452  1.00  0.00    -0.193 NA 
HETATM    2  H2  UNL     1      -7.374   9.852  63.486  1.00  0.00     0.000 HD 
HETATM    3  C   UNL     1      -8.052  10.811  65.213  1.00  0.00    -0.021 C  
HETATM    4  H1  UNL     1      -6.276   9.837  64.883  1.00  0.00     0.000 HD 
HETATM    5  N   UNL     1      -9.180  11.151  64.662  1.00  0.00    -0.332 N  
HETATM    6  H   UNL     1      -9.362  10.908  63.689  1.00  0.00     0.000 HD 
HETATM    7  C   UNL     1     -10.131  11.837  65.387  1.00  0.00    -0.254 C  
HETATM    8  N   UNL     1      -9.878  12.115  66.748  1.00  0.00    -0.203 N  
HETATM    9  O   UNL     1     -11.174  12.196  64.849  1.00  0.00    -0.309 OA 
HETATM   10  F   UNL     1      -6.512  10.841  67.083  1.00  0.00    -0.062 F  
HETATM   11  C   UNL     1      -8.664  11.780  67.317  1.00  0.00    -0.163 C  
HETATM   12  C   UNL     1      -7.727  11.164  66.608  1.00  0.00    -0.155 C  
ENDROOT
BRANCH   8  13
HETATM   13  C   UNL     1     -10.961  12.757  67.503  1.00  0.00    -0.249 C  
HETATM   14  C   UNL     1     -11.947  13.650  66.739  1.00  0.00    -0.414 C  
HETATM   15  S   UNL     1     -11.217  15.290  66.807  1.00  0.00    -0.178 SA 
HETATM   16  C   UNL     1     -10.414  14.910  68.378  1.00  0.00    -0.243 C  
HETATM   17  O   UNL     1     -10.375  13.493  68.593  1.00  0.00    -0.241 OA 
BRANCH  16  18
HETATM   18  C   UNL     1      -8.986  15.463  68.499  1.00  0.00    -0.192 C  
HETATM   19  O   UNL     1      -8.348  15.580  67.225  1.00  0.00    -0.164 OA 
HETATM   20  H   UNL     1      -7.465  15.921  67.299  1.00  0.00     0.000 HD 
ENDBRANCH  16  18
ENDBRANCH   8  13
TORSDOF 2
ENDMDL
MODEL      195
REMARK 921   NORMALIZED FREE ENERGY PREDICTED BY IDOCK:   -2.29 KCAL/MOL
REMARK 922        TOTAL FREE ENERGY PREDICTED BY IDOCK:   -2.76 KCAL/MOL
REMARK 923 INTER-LIGAND FREE ENERGY PREDICTED BY IDOCK:   -2.56 KCAL/MOL
REMARK 924 INTRA-LIGAND FREE ENERGY PREDICTED BY IDOCK:   -0.20 KCAL/MOL
REMARK 927      BINDING AFFINITY PREDICTED BY RF-SCORE:    0.00 PKD
ROOT
HETATM    1  N   UNL     1      -9.672  10.867  64.185  1.00  0.00    -0.268 NA 
HETATM    2  H2  UNL     1      -9.773  10.393  63.288  1.00  0.00     0.000 HD 
HETATM    3  C   UNL     1      -9.579  10.160  65.354  1.00  0.00    -0.264 C  
HETATM    4  H1  UNL     1      -9.635  11.885  64.242  1.00  0.00     0.000 HD 
HETATM    5  N   UNL     1      -9.625   8.864  65.281  1.00  0.00    -0.425 N  
HETATM    6  H   UNL     1      -9.750   8.411  64.375  1.00  0.00     0.000 HD 
HETATM    7  C   UNL     1      -9.506   8.096  66.420  1.00  0.00    -0.218 C  
HETATM    8  N   UNL     1      -9.281   8.742  67.654  1.00  0.00    -0.133 N  
HETATM    9  O   UNL     1      -9.598   6.874  66.351  1.00  0.00    -0.166 OA 
HETATM   10  F   UNL     1      -9.463  12.208  66.644  1.00  0.00    -0.198 F  
HETATM   11  C   UNL     1      -9.266  10.123  67.729  1.00  0.00    -0.137 C  
HETATM   12  C   UNL     1      -9.430  10.865  66.642  1.00  0.00    -0.179 C  
ENDROOT
BRANCH   8  13
HETATM   13  C   UNL     1      -9.060   7.880  68.821  1.00  0.00    -0.140 C  
HETATM   14  C   UNL     1      -9.609   8.341  70.178  1.00  0.00    -0.167 C  
HETATM   15  S   UNL     1      -8.273   9.300  70.903  1.00  0.00    -0.052 SA 
HETATM   16  C   UNL     1      -7.040   8.327  70.013  1.00  0.00    -0.043 C  
HETATM   17  O   UNL     1      -7.649   7.616  68.927  1.00  0.00    -0.096 OA 
BRANCH  16  18
HETATM   18  C   UNL     1      -5.870   9.156  69.462  1.00  0.00    -0.033 C  
HETATM   19  O   UNL     1      -5.831   9.141  68.033  1.00  0.00    -0.038 OA 
HETATM   20  H   UNL     1      -5.108   9.653  67.692  1.00  0.00     0.000 HD 
ENDBRANCH  16  18
ENDBRANCH   8  13
TORSDOF 2
ENDMDL
MODEL      196
REMARK 921   NORMALIZED FREE ENERGY PREDICTED BY IDOCK:   -2.27 KCAL/MOL
REMARK 922        TOTAL FREE ENERGY PREDICTED BY IDOCK:   -2.73 KCAL/MOL
REMARK 923 INTER-LIGAND FREE ENERGY PREDICTED BY IDOCK:   -2.93 KCAL/MOL
REMARK 924 INTRA-LIGAND FREE ENERGY PREDICTED BY IDOCK:    0.20 KCAL/MOL
REMARK 927      BINDING AFFINITY PREDICTED BY RF-SCORE:    0.00 PKD
ROOT
HETATM    1  N   UNL     1     -12.761   7.978  71.572  1.00  0.00    -0.317 NA 
HETATM    2  H2  UNL     1     -13.156   7.180  72.070  1.00  0.00     0.000 HD 
HETATM    3  C   UNL     1     -11.614   7.855  70.834  1.00  0.00    -0.273 C  
HETATM    4  H1  UNL     1     -13.206   8.895  71.606  1.00  0.00     0.000 HD 
HETATM    5  N   UNL     1     -11.046   6.686  70.792  1.00  0.00    -0.268 N  
HETATM    6  H   UNL     1     -11.446   5.909  71.316  1.00  0.00     0.000 HD 
HETATM    7  C   UNL     1      -9.906   6.492  70.041  1.00  0.00    -0.165 C  
HETATM    8  N   UNL     1      -9.401   7.569  69.281  1.00  0.00    -0.151 N  
HETATM    9  O   UNL     1      -9.347   5.399  70.041  1.00  0.00    -0.139 OA 
HETATM   10  F   UNL     1     -11.662  10.211  70.270  1.00  0.00    -0.279 F  
HETATM   11  C   UNL     1      -9.991   8.818  69.358  1.00  0.00    -0.196 C  
HETATM   12  C   UNL     1     -11.059   9.020  70.118  1.00  0.00    -0.207 C  
ENDROOT
BRANCH   8  13
HETATM   13  C   UNL     1      -8.246   7.287  68.420  1.00  0.00    -0.125 C  
HETATM   14  C   UNL     1      -7.919   8.279  67.297  1.00  0.00    -0.105 C  
HETATM   15  S   UNL     1      -8.849   7.680  65.880  1.00  0.00    -0.087 SA 
HETATM   16  C   UNL     1      -8.750   5.982  66.485  1.00  0.00    -0.128 C  
HETATM   17  O   UNL     1      -8.402   5.964  67.877  1.00  0.00    -0.111 OA 
BRANCH  16  18
HETATM   18  C   UNL     1     -10.043   5.175  66.294  1.00  0.00    -0.231 C  
HETATM   19  O   UNL     1     -10.152   4.107  67.238  1.00  0.00    -0.152 OA 
HETATM   20  H   UNL     1     -10.951   3.608  67.120  1.00  0.00     0.000 HD 
ENDBRANCH  16  18
ENDBRANCH   8  13
TORSDOF 2
ENDMDL
MODEL      197
REMARK 921   NORMALIZED FREE ENERGY PREDICTED BY IDOCK:   -2.26 KCAL/MOL
REMARK 922        TOTAL FREE ENERGY PREDICTED BY IDOCK:   -2.72 KCAL/MOL
REMARK 923 INTER-LIGAND FREE ENERGY PREDICTED BY IDOCK:   -2.55 KCAL/MOL
REMARK 924 INTRA-LIGAND FREE ENERGY PREDICTED BY IDOCK:   -0.17 KCAL/MOL
REMARK 927      BINDING AFFINITY PREDICTED BY RF-SCORE:    0.00 PKD
ROOT
HETATM    1  N   UNL     1      -7.648   3.983  64.618  1.00  0.00    -0.076 NA 
HETATM    2  H2  UNL     1      -7.304   3.037  64.455  1.00  0.00     0.000 HD 
HETATM    3  C   UNL     1      -8.339   4.300  65.757  1.00  0.00    -0.109 C  
HETATM    4  H1  UNL     1      -7.490   4.727  63.938  1.00  0.00     0.000 HD 
HETATM    5  N   UNL     1      -8.541   3.352  66.623  1.00  0.00    -0.109 N  
HETATM    6  H   UNL     1      -8.208   2.408  66.429  1.00  0.00     0.000 HD 
HETATM    7  C   UNL     1      -9.203   3.616  67.804  1.00  0.00    -0.184 C  
HETATM    8  N   UNL     1      -9.608   4.941  68.074  1.00  0.00    -0.139 N  
HETATM    9  O   UNL     1      -9.432   2.708  68.597  1.00  0.00    -0.189 OA 
HETATM   10  F   UNL     1      -8.642   6.582  65.002  1.00  0.00    -0.135 F  
HETATM   11  C   UNL     1      -9.419   5.936  67.134  1.00  0.00    -0.117 C  
HETATM   12  C   UNL     1      -8.826   5.675  65.975  1.00  0.00    -0.146 C  
ENDROOT
BRANCH   8  13
HETATM   13  C   UNL     1     -10.217   5.191  69.386  1.00  0.00    -0.223 C  
HETATM   14  C   UNL     1     -11.306   6.267  69.486  1.00  0.00    -0.404 C  
HETATM   15  S   UNL     1     -10.412   7.782  69.853  1.00  0.00    -0.234 SA 
HETATM   16  C   UNL     1      -9.109   6.855  70.691  1.00  0.00    -0.155 C  
HETATM   17  O   UNL     1      -9.165   5.469  70.327  1.00  0.00    -0.144 OA 
BRANCH  16  18
HETATM   18  C   UNL     1      -7.692   7.378  70.411  1.00  0.00    -0.093 C  
HETATM   19  O   UNL     1      -7.632   8.144  69.206  1.00  0.00    -0.091 OA 
HETATM   20  H   UNL     1      -6.756   8.467  69.033  1.00  0.00     0.000 HD 
ENDBRANCH  16  18
ENDBRANCH   8  13
TORSDOF 2
ENDMDL
MODEL      198
REMARK 921   NORMALIZED FREE ENERGY PREDICTED BY IDOCK:   -2.24 KCAL/MOL
REMARK 922        TOTAL FREE ENERGY PREDICTED BY IDOCK:   -2.69 KCAL/MOL
REMARK 923 INTER-LIGAND FREE ENERGY PREDICTED BY IDOCK:   -2.79 KCAL/MOL
REMARK 924 INTRA-LIGAND FREE ENERGY PREDICTED BY IDOCK:    0.09 KCAL/MOL
REMARK 927      BINDING AFFINITY PREDICTED BY RF-SCORE:    0.00 PKD
ROOT
HETATM    1  N   UNL     1      -8.937   3.121  68.651  1.00  0.00    -0.120 NA 
HETATM    2  H2  UNL     1      -9.393   2.583  69.388  1.00  0.00     0.000 HD 
HETATM    3  C   UNL     1      -9.379   4.372  68.310  1.00  0.00    -0.147 C  
HETATM    4  H1  UNL     1      -8.137   2.746  68.142  1.00  0.00     0.000 HD 
HETATM    5  N   UNL     1     -10.399   4.850  68.959  1.00  0.00    -0.097 N  
HETATM    6  H   UNL     1     -10.853   4.285  69.676  1.00  0.00     0.000 HD 
HETATM    7  C   UNL     1     -10.870   6.115  68.683  1.00  0.00    -0.332 C  
HETATM    8  N   UNL     1     -10.192   6.899  67.723  1.00  0.00    -0.166 N  
HETATM    9  O   UNL     1     -11.862   6.544  69.265  1.00  0.00    -0.140 OA 
HETATM   10  F   UNL     1      -7.703   4.546  66.569  1.00  0.00    -0.089 F  
HETATM   11  C   UNL     1      -9.129   6.372  67.014  1.00  0.00    -0.127 C  
HETATM   12  C   UNL     1      -8.704   5.135  67.243  1.00  0.00    -0.103 C  
ENDROOT
BRANCH   8  13
HETATM   13  C   UNL     1     -10.669   8.274  67.537  1.00  0.00    -0.147 C  
HETATM   14  C   UNL     1     -10.028   9.120  66.429  1.00  0.00    -0.288 C  
HETATM   15  S   UNL     1      -8.642   9.937  67.229  1.00  0.00    -0.125 SA 
HETATM   16  C   UNL     1      -9.495   9.910  68.820  1.00  0.00    -0.157 C  
HETATM   17  O   UNL     1     -10.570   8.961  68.798  1.00  0.00    -0.214 OA 
BRANCH  16  18
HETATM   18  C   UNL     1      -8.582   9.589  70.012  1.00  0.00    -0.215 C  
HETATM   19  O   UNL     1      -9.292   9.616  71.253  1.00  0.00    -0.321 OA 
HETATM   20  H   UNL     1      -8.727   9.418  71.990  1.00  0.00     0.000 HD 
ENDBRANCH  16  18
ENDBRANCH   8  13
TORSDOF 2
ENDMDL
MODEL      199
REMARK 921   NORMALIZED FREE ENERGY PREDICTED BY IDOCK:   -2.22 KCAL/MOL
REMARK 922        TOTAL FREE ENERGY PREDICTED BY IDOCK:   -2.67 KCAL/MOL
REMARK 923 INTER-LIGAND FREE ENERGY PREDICTED BY IDOCK:   -2.58 KCAL/MOL
REMARK 924 INTRA-LIGAND FREE ENERGY PREDICTED BY IDOCK:   -0.10 KCAL/MOL
REMARK 927      BINDING AFFINITY PREDICTED BY RF-SCORE:    0.00 PKD
ROOT
HETATM    1  N   UNL     1     -10.742   7.696  67.492  1.00  0.00    -0.464 NA 
HETATM    2  H2  UNL     1     -11.216   8.594  67.400  1.00  0.00     0.000 HD 
HETATM    3  C   UNL     1     -10.084   7.356  68.644  1.00  0.00    -0.179 C  
HETATM    4  H1  UNL     1     -10.742   7.019  66.728  1.00  0.00     0.000 HD 
HETATM    5  N   UNL     1     -10.085   8.218  69.616  1.00  0.00    -0.194 N  
HETATM    6  H   UNL     1     -10.546   9.119  69.494  1.00  0.00     0.000 HD 
HETATM    7  C   UNL     1      -9.466   7.921  70.812  1.00  0.00    -0.158 C  
HETATM    8  N   UNL     1      -8.881   6.646  70.976  1.00  0.00    -0.142 N  
HETATM    9  O   UNL     1      -9.429   8.756  71.710  1.00  0.00    -0.260 OA 
HETATM   10  F   UNL     1      -9.388   5.242  67.684  1.00  0.00    -0.112 F  
HETATM   11  C   UNL     1      -8.855   5.747  69.926  1.00  0.00    -0.127 C  
HETATM   12  C   UNL     1      -9.407   6.050  68.757  1.00  0.00    -0.122 C  
ENDROOT
BRANCH   8  13
HETATM   13  C   UNL     1      -8.324   6.340  72.299  1.00  0.00    -0.108 C  
HETATM   14  C   UNL     1      -7.108   5.407  72.375  1.00  0.00    -0.083 C  
HETATM   15  S   UNL     1      -7.812   3.761  72.529  1.00  0.00    -0.074 SA 
HETATM   16  C   UNL     1      -9.276   4.421  73.353  1.00  0.00    -0.112 C  
HETATM   17  O   UNL     1      -9.385   5.834  73.129  1.00  0.00    -0.140 OA 
BRANCH  16  18
HETATM   18  C   UNL     1     -10.591   3.755  72.921  1.00  0.00    -0.143 C  
HETATM   19  O   UNL     1     -10.377   2.446  72.387  1.00  0.00    -0.158 OA 
HETATM   20  H   UNL     1     -11.189   2.034  72.120  1.00  0.00     0.000 HD 
ENDBRANCH  16  18
ENDBRANCH   8  13
TORSDOF 2
ENDMDL
MODEL      200
REMARK 921   NORMALIZED FREE ENERGY PREDICTED BY IDOCK:   -2.12 KCAL/MOL
REMARK 922        TOTAL FREE ENERGY PREDICTED BY IDOCK:   -2.56 KCAL/MOL
REMARK 923 INTER-LIGAND FREE ENERGY PREDICTED BY IDOCK:   -4.65 KCAL/MOL
REMARK 924 INTRA-LIGAND FREE ENERGY PREDICTED BY IDOCK:    2.09 KCAL/MOL
REMARK 927      BINDING AFFINITY PREDICTED BY RF-SCORE:    0.00 PKD
ROOT
HETATM    1  N   UNL     1     -12.387  16.184  71.701  1.00  0.00    -0.593 NA 
HETATM    2  H2  UNL     1     -12.171  17.109  72.074  1.00  0.00     0.000 HD 
HETATM    3  C   UNL     1     -11.759  15.707  70.581  1.00  0.00    -0.369 C  
HETATM    4  H1  UNL     1     -13.078  15.583  72.149  1.00  0.00     0.000 HD 
HETATM    5  N   UNL     1     -10.879  16.474  70.010  1.00  0.00    -0.321 N  
HETATM    6  H   UNL     1     -10.695  17.403  70.387  1.00  0.00     0.000 HD 
HETATM    7  C   UNL     1     -10.191  16.038  68.897  1.00  0.00    -0.231 C  
HETATM    8  N   UNL     1     -10.423  14.728  68.425  1.00  0.00    -0.238 N  
HETATM    9  O   UNL     1      -9.395  16.783  68.334  1.00  0.00    -0.217 OA 
HETATM   10  F   UNL     1     -13.057  13.663  70.660  1.00  0.00    -0.299 F  
HETATM   11  C   UNL     1     -11.385  13.930  69.017  1.00  0.00    -0.283 C  
HETATM   12  C   UNL     1     -12.084  14.366  70.058  1.00  0.00    -0.343 C  
ENDROOT
BRANCH   8  13
HETATM   13  C   UNL     1      -9.595  14.274  67.301  1.00  0.00    -0.232 C  
HETATM   14  C   UNL     1      -8.181  14.852  67.163  1.00  0.00    -0.215 C  
HETATM   15  S   UNL     1      -8.389  16.314  66.140  1.00  0.00    -0.072 SA 
HETATM   16  C   UNL     1      -9.820  15.582  65.317  1.00  0.00    -0.166 C  
HETATM   17  O   UNL     1     -10.333  14.485  66.084  1.00  0.00    -0.279 OA 
BRANCH  16  18
HETATM   18  C   UNL     1     -10.963  16.573  65.053  1.00  0.00    -0.210 C  
HETATM   19  O   UNL     1     -10.672  17.875  65.565  1.00  0.00    -0.585 OA 
HETATM   20  H   UNL     1     -11.379  18.488  65.402  1.00  0.00     0.000 HD 
ENDBRANCH  16  18
ENDBRANCH   8  13
TORSDOF 2
ENDMDL
MODEL      201
REMARK 921   NORMALIZED FREE ENERGY PREDICTED BY IDOCK:   -1.85 KCAL/MOL
REMARK 922        TOTAL FREE ENERGY PREDICTED BY IDOCK:   -2.26 KCAL/MOL
REMARK 923 INTER-LIGAND FREE ENERGY PREDICTED BY IDOCK:   -3.99 KCAL/MOL
REMARK 924 INTRA-LIGAND FREE ENERGY PREDICTED BY IDOCK:    1.73 KCAL/MOL
REMARK 927      BINDING AFFINITY PREDICTED BY RF-SCORE:    0.00 PKD
ROOT
HETATM    1  N   UNL     1     -14.384   8.157  71.381  1.00  0.00    -0.621 NA 
HETATM    2  H2  UNL     1     -15.042   7.400  71.194  1.00  0.00     0.000 HD 
HETATM    3  C   UNL     1     -13.049   8.020  71.109  1.00  0.00    -0.057 C  
HETATM    4  H1  UNL     1     -14.698   9.043  71.776  1.00  0.00     0.000 HD 
HETATM    5  N   UNL     1     -12.649   6.890  70.605  1.00  0.00    -0.553 N  
HETATM    6  H   UNL     1     -13.321   6.139  70.448  1.00  0.00     0.000 HD 
HETATM    7  C   UNL     1     -11.322   6.702  70.281  1.00  0.00    -0.374 C  
HETATM    8  N   UNL     1     -10.421   7.775  70.457  1.00  0.00    -0.213 N  
HETATM    9  O   UNL     1     -10.941   5.618  69.849  1.00  0.00    -0.339 OA 
HETATM   10  F   UNL     1     -12.591  10.237  71.972  1.00  0.00    -0.470 F  
HETATM   11  C   UNL     1     -10.848   8.961  71.024  1.00  0.00    -0.259 C  
HETATM   12  C   UNL     1     -12.114   9.128  71.383  1.00  0.00    -0.337 C  
ENDROOT
BRANCH   8  13
HETATM   13  C   UNL     1      -9.042   7.560  70.004  1.00  0.00    -0.148 C  
HETATM   14  C   UNL     1      -8.723   6.270  69.237  1.00  0.00    -0.124 C  
HETATM   15  S   UNL     1      -8.261   5.089  70.510  1.00  0.00    -0.102 SA 
HETATM   16  C   UNL     1      -7.653   6.416  71.573  1.00  0.00    -0.098 C  
HETATM   17  O   UNL     1      -8.170   7.682  71.142  1.00  0.00    -0.098 OA 
BRANCH  16  18
HETATM   18  C   UNL     1      -7.992   6.229  73.060  1.00  0.00    -0.107 C  
HETATM   19  O   UNL     1      -7.535   4.970  73.559  1.00  0.00    -0.088 OA 
HETATM   20  H   UNL     1      -7.745   4.854  74.478  1.00  0.00     0.000 HD 
ENDBRANCH  16  18
ENDBRANCH   8  13
TORSDOF 2
ENDMDL
MODEL      202
REMARK 921   NORMALIZED FREE ENERGY PREDICTED BY IDOCK:   -1.80 KCAL/MOL
REMARK 922        TOTAL FREE ENERGY PREDICTED BY IDOCK:   -2.20 KCAL/MOL
REMARK 923 INTER-LIGAND FREE ENERGY PREDICTED BY IDOCK:   -2.71 KCAL/MOL
REMARK 924 INTRA-LIGAND FREE ENERGY PREDICTED BY IDOCK:    0.51 KCAL/MOL
REMARK 927      BINDING AFFINITY PREDICTED BY RF-SCORE:    0.00 PKD
ROOT
HETATM    1  N   UNL     1      -9.919   4.104  66.724  1.00  0.00    -0.312 NA 
HETATM    2  H2  UNL     1      -9.334   3.306  66.475  1.00  0.00     0.000 HD 
HETATM    3  C   UNL     1      -9.488   5.047  67.618  1.00  0.00    -0.132 C  
HETATM    4  H1  UNL     1     -10.845   4.226  66.315  1.00  0.00     0.000 HD 
HETATM    5  N   UNL     1      -8.307   4.891  68.138  1.00  0.00    -0.099 N  
HETATM    6  H   UNL     1      -7.749   4.074  67.892  1.00  0.00     0.000 HD 
HETATM    7  C   UNL     1      -7.806   5.823  69.021  1.00  0.00    -0.094 C  
HETATM    8  N   UNL     1      -8.574   6.972  69.306  1.00  0.00    -0.136 N  
HETATM    9  O   UNL     1      -6.710   5.647  69.546  1.00  0.00    -0.054 OA 
HETATM   10  F   UNL     1     -11.584   6.249  67.440  1.00  0.00    -0.299 F  
HETATM   11  C   UNL     1      -9.843   7.115  68.775  1.00  0.00    -0.158 C  
HETATM   12  C   UNL     1     -10.349   6.195  67.963  1.00  0.00    -0.199 C  
ENDROOT
BRANCH   8  13
HETATM   13  C   UNL     1      -7.956   7.984  70.171  1.00  0.00    -0.105 C  
HETATM   14  C   UNL     1      -6.983   7.510  71.259  1.00  0.00    -0.050 C  
HETATM   15  S   UNL     1      -8.020   7.223  72.698  1.00  0.00    -0.101 SA 
HETATM   16  C   UNL     1      -9.194   8.481  72.152  1.00  0.00    -0.266 C  
HETATM   17  O   UNL     1      -9.004   8.775  70.760  1.00  0.00    -0.157 OA 
BRANCH  16  18
HETATM   18  C   UNL     1     -10.665   8.102  72.375  1.00  0.00    -0.334 C  
HETATM   19  O   UNL     1     -10.864   6.687  72.340  1.00  0.00    -0.219 OA 
HETATM   20  H   UNL     1     -11.774   6.452  72.478  1.00  0.00     0.000 HD 
ENDBRANCH  16  18
ENDBRANCH   8  13
TORSDOF 2
ENDMDL
MODEL      203
REMARK 921   NORMALIZED FREE ENERGY PREDICTED BY IDOCK:   -1.80 KCAL/MOL
REMARK 922        TOTAL FREE ENERGY PREDICTED BY IDOCK:   -2.20 KCAL/MOL
REMARK 923 INTER-LIGAND FREE ENERGY PREDICTED BY IDOCK:   -2.71 KCAL/MOL
REMARK 924 INTRA-LIGAND FREE ENERGY PREDICTED BY IDOCK:    0.51 KCAL/MOL
REMARK 927      BINDING AFFINITY PREDICTED BY RF-SCORE:    0.00 PKD
ROOT
HETATM    1  N   UNL     1      -9.458   2.212  67.156  1.00  0.00    -0.397 NA 
HETATM    2  H2  UNL     1      -9.770   1.460  67.770  1.00  0.00     0.000 HD 
HETATM    3  C   UNL     1      -9.264   3.482  67.632  1.00  0.00    -0.188 C  
HETATM    4  H1  UNL     1      -9.278   2.045  66.166  1.00  0.00     0.000 HD 
HETATM    5  N   UNL     1      -9.493   3.694  68.893  1.00  0.00    -0.164 N  
HETATM    6  H   UNL     1      -9.826   2.933  69.484  1.00  0.00     0.000 HD 
HETATM    7  C   UNL     1      -9.287   4.944  69.438  1.00  0.00    -0.127 C  
HETATM    8  N   UNL     1      -8.774   5.969  68.614  1.00  0.00    -0.111 N  
HETATM    9  O   UNL     1      -9.549   5.152  70.620  1.00  0.00    -0.160 OA 
HETATM   10  F   UNL     1      -8.664   4.275  65.422  1.00  0.00    -0.115 F  
HETATM   11  C   UNL     1      -8.565   5.744  67.266  1.00  0.00    -0.109 C  
HETATM   12  C   UNL     1      -8.809   4.556  66.728  1.00  0.00    -0.112 C  
ENDROOT
BRANCH   8  13
HETATM   13  C   UNL     1      -8.476   7.252  69.262  1.00  0.00    -0.133 C  
HETATM   14  C   UNL     1      -9.424   7.745  70.363  1.00  0.00    -0.164 C  
HETATM   15  S   UNL     1     -10.660   8.716  69.492  1.00  0.00    -0.183 SA 
HETATM   16  C   UNL     1      -9.471   9.148  68.205  1.00  0.00    -0.142 C  
HETATM   17  O   UNL     1      -8.348   8.255  68.238  1.00  0.00    -0.129 OA 
BRANCH  16  18
HETATM   18  C   UNL     1     -10.058   9.143  66.785  1.00  0.00    -0.271 C  
HETATM   19  O   UNL     1     -10.647  10.400  66.446  1.00  0.00    -0.206 OA 
HETATM   20  H   UNL     1     -11.011  10.397  65.568  1.00  0.00     0.000 HD 
ENDBRANCH  16  18
ENDBRANCH   8  13
TORSDOF 2
ENDMDL
MODEL      204
REMARK 921   NORMALIZED FREE ENERGY PREDICTED BY IDOCK:   -1.71 KCAL/MOL
REMARK 922        TOTAL FREE ENERGY PREDICTED BY IDOCK:   -2.11 KCAL/MOL
REMARK 923 INTER-LIGAND FREE ENERGY PREDICTED BY IDOCK:   -2.27 KCAL/MOL
REMARK 924 INTRA-LIGAND FREE ENERGY PREDICTED BY IDOCK:    0.16 KCAL/MOL
REMARK 927      BINDING AFFINITY PREDICTED BY RF-SCORE:    0.00 PKD
ROOT
HETATM    1  N   UNL     1      -6.739  11.189  70.613  1.00  0.00    -0.412 NA 
HETATM    2  H2  UNL     1      -6.485  12.161  70.433  1.00  0.00     0.000 HD 
HETATM    3  C   UNL     1      -7.460  10.466  69.701  1.00  0.00    -0.157 C  
HETATM    4  H1  UNL     1      -6.463  10.723  71.477  1.00  0.00     0.000 HD 
HETATM    5  N   UNL     1      -7.811  11.061  68.600  1.00  0.00    -0.128 N  
HETATM    6  H   UNL     1      -7.565  12.039  68.452  1.00  0.00     0.000 HD 
HETATM    7  C   UNL     1      -8.512  10.376  67.630  1.00  0.00    -0.114 C  
HETATM    8  N   UNL     1      -8.794   9.007  67.834  1.00  0.00    -0.129 N  
HETATM    9  O   UNL     1      -8.882  10.955  66.613  1.00  0.00    -0.151 OA 
HETATM   10  F   UNL     1      -7.480   8.538  71.169  1.00  0.00    -0.061 F  
HETATM   11  C   UNL     1      -8.447   8.391  69.022  1.00  0.00    -0.123 C  
HETATM   12  C   UNL     1      -7.816   9.061  69.978  1.00  0.00    -0.088 C  
ENDROOT
BRANCH   8  13
HETATM   13  C   UNL     1      -9.453   8.297  66.732  1.00  0.00    -0.198 C  
HETATM   14  C   UNL     1      -9.727   6.797  66.898  1.00  0.00    -0.168 C  
HETATM   15  S   UNL     1      -8.255   5.994  66.250  1.00  0.00    -0.123 SA 
HETATM   16  C   UNL     1      -7.956   7.369  65.119  1.00  0.00    -0.128 C  
HETATM   17  O   UNL     1      -8.695   8.527  65.530  1.00  0.00    -0.171 OA 
BRANCH  16  18
HETATM   18  C   UNL     1      -6.476   7.755  64.983  1.00  0.00    -0.044 C  
HETATM   19  O   UNL     1      -6.307   8.997  64.296  1.00  0.00    -0.074 OA 
HETATM   20  H   UNL     1      -5.392   9.236  64.212  1.00  0.00     0.000 HD 
ENDBRANCH  16  18
ENDBRANCH   8  13
TORSDOF 2
ENDMDL
MODEL      205
REMARK 921   NORMALIZED FREE ENERGY PREDICTED BY IDOCK:   -1.67 KCAL/MOL
REMARK 922        TOTAL FREE ENERGY PREDICTED BY IDOCK:   -2.06 KCAL/MOL
REMARK 923 INTER-LIGAND FREE ENERGY PREDICTED BY IDOCK:   -2.26 KCAL/MOL
REMARK 924 INTRA-LIGAND FREE ENERGY PREDICTED BY IDOCK:    0.20 KCAL/MOL
REMARK 927      BINDING AFFINITY PREDICTED BY RF-SCORE:    0.00 PKD
ROOT
HETATM    1  N   UNL     1      -6.319  10.402  65.905  1.00  0.00    -0.110 NA 
HETATM    2  H2  UNL     1      -6.310  10.128  64.923  1.00  0.00     0.000 HD 
HETATM    3  C   UNL     1      -7.324   9.998  66.744  1.00  0.00    -0.095 C  
HETATM    4  H1  UNL     1      -5.581  10.986  66.298  1.00  0.00     0.000 HD 
HETATM    5  N   UNL     1      -8.265   9.254  66.244  1.00  0.00    -0.107 N  
HETATM    6  H   UNL     1      -8.247   9.011  65.253  1.00  0.00     0.000 HD 
HETATM    7  C   UNL     1      -9.287   8.790  67.045  1.00  0.00    -0.157 C  
HETATM    8  N   UNL     1      -9.261   9.094  68.423  1.00  0.00    -0.132 N  
HETATM    9  O   UNL     1     -10.198   8.127  66.558  1.00  0.00    -0.279 OA 
HETATM   10  F   UNL     1      -6.351  11.231  68.589  1.00  0.00    -0.044 F  
HETATM   11  C   UNL     1      -8.276   9.913  68.941  1.00  0.00    -0.118 C  
HETATM   12  C   UNL     1      -7.318  10.402  68.163  1.00  0.00    -0.088 C  
ENDROOT
BRANCH   8  13
HETATM   13  C   UNL     1     -10.315   8.494  69.251  1.00  0.00    -0.221 C  
HETATM   14  C   UNL     1     -10.203   8.631  70.775  1.00  0.00    -0.204 C  
HETATM   15  S   UNL     1      -9.272   7.184  71.292  1.00  0.00    -0.151 SA 
HETATM   16  C   UNL     1      -9.901   6.232  69.892  1.00  0.00    -0.167 C  
HETATM   17  O   UNL     1     -10.437   7.107  68.890  1.00  0.00    -0.197 OA 
BRANCH  16  18
HETATM   18  C   UNL     1      -8.853   5.320  69.236  1.00  0.00    -0.100 C  
HETATM   19  O   UNL     1      -7.549   5.905  69.253  1.00  0.00    -0.085 OA 
HETATM   20  H   UNL     1      -6.901   5.342  68.847  1.00  0.00     0.000 HD 
ENDBRANCH  16  18
ENDBRANCH   8  13
TORSDOF 2
ENDMDL
MODEL      206
REMARK 921   NORMALIZED FREE ENERGY PREDICTED BY IDOCK:   -1.62 KCAL/MOL
REMARK 922        TOTAL FREE ENERGY PREDICTED BY IDOCK:   -2.01 KCAL/MOL
REMARK 923 INTER-LIGAND FREE ENERGY PREDICTED BY IDOCK:   -2.24 KCAL/MOL
REMARK 924 INTRA-LIGAND FREE ENERGY PREDICTED BY IDOCK:    0.23 KCAL/MOL
REMARK 927      BINDING AFFINITY PREDICTED BY RF-SCORE:    0.00 PKD
ROOT
HETATM    1  N   UNL     1      -9.353   1.917  67.101  1.00  0.00    -0.359 NA 
HETATM    2  H2  UNL     1      -9.066   0.956  67.285  1.00  0.00     0.000 HD 
HETATM    3  C   UNL     1      -9.497   2.821  68.120  1.00  0.00    -0.157 C  
HETATM    4  H1  UNL     1      -9.544   2.239  66.152  1.00  0.00     0.000 HD 
HETATM    5  N   UNL     1      -9.254   2.411  69.329  1.00  0.00    -0.123 N  
HETATM    6  H   UNL     1      -8.990   1.439  69.491  1.00  0.00     0.000 HD 
HETATM    7  C   UNL     1      -9.351   3.282  70.393  1.00  0.00    -0.167 C  
HETATM    8  N   UNL     1      -9.665   4.634  70.138  1.00  0.00    -0.196 N  
HETATM    9  O   UNL     1      -9.167   2.878  71.538  1.00  0.00    -0.095 OA 
HETATM   10  F   UNL     1     -10.214   4.537  66.567  1.00  0.00    -0.219 F  
HETATM   11  C   UNL     1      -9.955   5.055  68.853  1.00  0.00    -0.166 C  
HETATM   12  C   UNL     1      -9.911   4.208  67.833  1.00  0.00    -0.036 C  
ENDROOT
BRANCH   8  13
HETATM   13  C   UNL     1      -9.658   5.543  71.291  1.00  0.00    -0.155 C  
HETATM   14  C   UNL     1      -9.874   7.040  71.034  1.00  0.00    -0.180 C  
HETATM   15  S   UNL     1      -8.221   7.698  70.778  1.00  0.00    -0.110 SA 
HETATM   16  C   UNL     1      -7.508   6.425  71.841  1.00  0.00    -0.094 C  
HETATM   17  O   UNL     1      -8.431   5.341  72.016  1.00  0.00    -0.123 OA 
BRANCH  16  18
HETATM   18  C   UNL     1      -6.177   5.856  71.326  1.00  0.00    -0.039 C  
HETATM   19  O   UNL     1      -5.263   5.586  72.391  1.00  0.00    -0.016 OA 
HETATM   20  H   UNL     1      -4.440   5.234  72.074  1.00  0.00     0.000 HD 
ENDBRANCH  16  18
ENDBRANCH   8  13
TORSDOF 2
ENDMDL
MODEL      207
REMARK 921   NORMALIZED FREE ENERGY PREDICTED BY IDOCK:   -1.60 KCAL/MOL
REMARK 922        TOTAL FREE ENERGY PREDICTED BY IDOCK:   -1.98 KCAL/MOL
REMARK 923 INTER-LIGAND FREE ENERGY PREDICTED BY IDOCK:   -2.23 KCAL/MOL
REMARK 924 INTRA-LIGAND FREE ENERGY PREDICTED BY IDOCK:    0.25 KCAL/MOL
REMARK 927      BINDING AFFINITY PREDICTED BY RF-SCORE:    0.00 PKD
ROOT
HETATM    1  N   UNL     1      -7.744  12.890  68.338  1.00  0.00    -0.131 NA 
HETATM    2  H2  UNL     1      -8.119  13.601  68.966  1.00  0.00     0.000 HD 
HETATM    3  C   UNL     1      -8.142  11.583  68.427  1.00  0.00    -0.149 C  
HETATM    4  H1  UNL     1      -7.060  13.129  67.620  1.00  0.00     0.000 HD 
HETATM    5  N   UNL     1      -9.014  11.280  69.342  1.00  0.00    -0.308 N  
HETATM    6  H   UNL     1      -9.358  12.002  69.975  1.00  0.00     0.000 HD 
HETATM    7  C   UNL     1      -9.477   9.986  69.463  1.00  0.00    -0.226 C  
HETATM    8  N   UNL     1      -9.028   9.015  68.542  1.00  0.00    -0.133 N  
HETATM    9  O   UNL     1     -10.265   9.695  70.358  1.00  0.00    -0.255 OA 
HETATM   10  F   UNL     1      -6.640  10.947  66.636  1.00  0.00    -0.084 F  
HETATM   11  C   UNL     1      -8.075   9.338  67.593  1.00  0.00    -0.104 C  
HETATM   12  C   UNL     1      -7.591  10.571  67.507  1.00  0.00    -0.093 C  
ENDROOT
BRANCH   8  13
HETATM   13  C   UNL     1      -9.625   7.678  68.647  1.00  0.00    -0.152 C  
HETATM   14  C   UNL     1      -9.412   6.890  69.945  1.00  0.00    -0.156 C  
HETATM   15  S   UNL     1      -7.901   5.958  69.666  1.00  0.00    -0.099 SA 
HETATM   16  C   UNL     1      -8.217   5.905  67.889  1.00  0.00    -0.108 C  
HETATM   17  O   UNL     1      -9.184   6.898  67.521  1.00  0.00    -0.123 OA 
BRANCH  16  18
HETATM   18  C   UNL     1      -6.962   6.099  67.026  1.00  0.00    -0.072 C  
HETATM   19  O   UNL     1      -6.505   4.869  66.460  1.00  0.00    -0.039 OA 
HETATM   20  H   UNL     1      -5.729   4.989  65.926  1.00  0.00     0.000 HD 
ENDBRANCH  16  18
ENDBRANCH   8  13
TORSDOF 2
ENDMDL
MODEL      208
REMARK 921   NORMALIZED FREE ENERGY PREDICTED BY IDOCK:   -1.57 KCAL/MOL
REMARK 922        TOTAL FREE ENERGY PREDICTED BY IDOCK:   -1.94 KCAL/MOL
REMARK 923 INTER-LIGAND FREE ENERGY PREDICTED BY IDOCK:   -2.05 KCAL/MOL
REMARK 924 INTRA-LIGAND FREE ENERGY PREDICTED BY IDOCK:    0.11 KCAL/MOL
REMARK 927      BINDING AFFINITY PREDICTED BY RF-SCORE:    0.00 PKD
ROOT
HETATM    1  N   UNL     1     -11.105   8.961  69.168  1.00  0.00    -0.429 NA 
HETATM    2  H2  UNL     1     -11.612   8.983  68.283  1.00  0.00     0.000 HD 
HETATM    3  C   UNL     1     -10.188   7.980  69.437  1.00  0.00    -0.210 C  
HETATM    4  H1  UNL     1     -11.264   9.671  69.884  1.00  0.00     0.000 HD 
HETATM    5  N   UNL     1      -9.986   7.077  68.524  1.00  0.00    -0.151 N  
HETATM    6  H   UNL     1     -10.521   7.105  67.656  1.00  0.00     0.000 HD 
HETATM    7  C   UNL     1      -9.053   6.082  68.723  1.00  0.00    -0.124 C  
HETATM    8  N   UNL     1      -8.288   6.095  69.909  1.00  0.00    -0.126 N  
HETATM    9  O   UNL     1      -8.900   5.204  67.878  1.00  0.00    -0.103 OA 
HETATM   10  F   UNL     1      -9.779   8.894  71.643  1.00  0.00    -0.293 F  
HETATM   11  C   UNL     1      -8.532   7.039  70.889  1.00  0.00    -0.134 C  
HETATM   12  C   UNL     1      -9.463   7.969  70.722  1.00  0.00    -0.161 C  
ENDROOT
BRANCH   8  13
HETATM   13  C   UNL     1      -7.239   5.075  70.030  1.00  0.00    -0.058 C  
HETATM   14  C   UNL     1      -7.561   3.793  70.809  1.00  0.00    -0.041 C  
HETATM   15  S   UNL     1      -7.094   4.165  72.504  1.00  0.00    -0.063 SA 
HETATM   16  C   UNL     1      -5.831   5.327  71.942  1.00  0.00    -0.021 C  
HETATM   17  O   UNL     1      -6.064   5.700  70.577  1.00  0.00    -0.024 OA 
BRANCH  16  18
HETATM   18  C   UNL     1      -5.736   6.604  72.789  1.00  0.00    -0.038 C  
HETATM   19  O   UNL     1      -6.831   6.726  73.699  1.00  0.00    -0.075 OA 
HETATM   20  H   UNL     1      -6.773   7.515  74.223  1.00  0.00     0.000 HD 
ENDBRANCH  16  18
ENDBRANCH   8  13
TORSDOF 2
ENDMDL
MODEL      209
REMARK 921   NORMALIZED FREE ENERGY PREDICTED BY IDOCK:   -1.50 KCAL/MOL
REMARK 922        TOTAL FREE ENERGY PREDICTED BY IDOCK:   -1.87 KCAL/MOL
REMARK 923 INTER-LIGAND FREE ENERGY PREDICTED BY IDOCK:   -2.08 KCAL/MOL
REMARK 924 INTRA-LIGAND FREE ENERGY PREDICTED BY IDOCK:    0.21 KCAL/MOL
REMARK 927      BINDING AFFINITY PREDICTED BY RF-SCORE:    0.00 PKD
ROOT
HETATM    1  N   UNL     1      -6.480  11.291  70.635  1.00  0.00    -0.498 NA 
HETATM    2  H2  UNL     1      -6.595  12.248  70.302  1.00  0.00     0.000 HD 
HETATM    3  C   UNL     1      -6.966  10.228  69.922  1.00  0.00    -0.142 C  
HETATM    4  H1  UNL     1      -5.997  11.092  71.512  1.00  0.00     0.000 HD 
HETATM    5  N   UNL     1      -7.580  10.482  68.805  1.00  0.00    -0.093 N  
HETATM    6  H   UNL     1      -7.704  11.447  68.502  1.00  0.00     0.000 HD 
HETATM    7  C   UNL     1      -8.066   9.452  68.027  1.00  0.00    -0.106 C  
HETATM    8  N   UNL     1      -7.835   8.122  68.439  1.00  0.00    -0.116 N  
HETATM    9  O   UNL     1      -8.686   9.698  66.997  1.00  0.00    -0.127 OA 
HETATM   10  F   UNL     1      -6.205   8.674  71.618  1.00  0.00    -0.042 F  
HETATM   11  C   UNL     1      -7.210   7.861  69.645  1.00  0.00    -0.070 C  
HETATM   12  C   UNL     1      -6.786   8.851  70.420  1.00  0.00    -0.049 C  
ENDROOT
BRANCH   8  13
HETATM   13  C   UNL     1      -8.281   7.060  67.528  1.00  0.00    -0.116 C  
HETATM   14  C   UNL     1      -9.776   6.973  67.194  1.00  0.00    -0.161 C  
HETATM   15  S   UNL     1     -10.457   5.884  68.451  1.00  0.00    -0.245 SA 
HETATM   16  C   UNL     1      -8.881   5.017  68.609  1.00  0.00    -0.097 C  
HETATM   17  O   UNL     1      -7.819   5.799  68.045  1.00  0.00    -0.098 OA 
BRANCH  16  18
HETATM   18  C   UNL     1      -8.509   4.657  70.055  1.00  0.00    -0.073 C  
HETATM   19  O   UNL     1      -7.126   4.321  70.184  1.00  0.00    -0.040 OA 
HETATM   20  H   UNL     1      -6.896   4.098  71.078  1.00  0.00     0.000 HD 
ENDBRANCH  16  18
ENDBRANCH   8  13
TORSDOF 2
ENDMDL
MODEL      210
REMARK 921   NORMALIZED FREE ENERGY PREDICTED BY IDOCK:   -1.49 KCAL/MOL
REMARK 922        TOTAL FREE ENERGY PREDICTED BY IDOCK:   -1.86 KCAL/MOL
REMARK 923 INTER-LIGAND FREE ENERGY PREDICTED BY IDOCK:   -4.72 KCAL/MOL
REMARK 924 INTRA-LIGAND FREE ENERGY PREDICTED BY IDOCK:    2.86 KCAL/MOL
REMARK 927      BINDING AFFINITY PREDICTED BY RF-SCORE:    0.00 PKD
ROOT
HETATM    1  N   UNL     1     -13.534  15.684  73.280  1.00  0.00    -0.637 NA 
HETATM    2  H2  UNL     1     -13.381  16.592  73.719  1.00  0.00     0.000 HD 
HETATM    3  C   UNL     1     -12.824  15.304  72.173  1.00  0.00    -0.357 C  
HETATM    4  H1  UNL     1     -14.221  15.027  73.652  1.00  0.00     0.000 HD 
HETATM    5  N   UNL     1     -11.949  16.141  71.700  1.00  0.00    -0.597 N  
HETATM    6  H   UNL     1     -11.830  17.052  72.142  1.00  0.00     0.000 HD 
HETATM    7  C   UNL     1     -11.182  15.803  70.606  1.00  0.00    -0.372 C  
HETATM    8  N   UNL     1     -11.327  14.516  70.045  1.00  0.00    -0.250 N  
HETATM    9  O   UNL     1     -10.390  16.615  70.135  1.00  0.00    -0.020 OA 
HETATM   10  F   UNL     1     -14.029  13.205  72.056  1.00  0.00    -0.478 F  
HETATM   11  C   UNL     1     -12.283  13.644  70.532  1.00  0.00    -0.368 C  
HETATM   12  C   UNL     1     -13.058  13.985  71.554  1.00  0.00    -0.363 C  
ENDROOT
BRANCH   8  13
HETATM   13  C   UNL     1     -10.418  14.167  68.946  1.00  0.00    -0.222 C  
HETATM   14  C   UNL     1      -8.915  14.391  69.150  1.00  0.00     0.099 C  
HETATM   15  S   UNL     1      -8.625  16.068  68.572  1.00  0.00    -0.201 SA 
HETATM   16  C   UNL     1     -10.000  15.944  67.407  1.00  0.00    -0.239 C  
HETATM   17  O   UNL     1     -10.861  14.853  67.761  1.00  0.00    -0.272 OA 
BRANCH  16  18
HETATM   18  C   UNL     1     -10.846  17.222  67.303  1.00  0.00    -0.124 C  
HETATM   19  O   UNL     1     -10.120  18.381  67.717  1.00  0.00    -0.322 OA 
HETATM   20  H   UNL     1     -10.643  19.171  67.653  1.00  0.00     0.000 HD 
ENDBRANCH  16  18
ENDBRANCH   8  13
TORSDOF 2
ENDMDL
MODEL      211
REMARK 921   NORMALIZED FREE ENERGY PREDICTED BY IDOCK:   -1.45 KCAL/MOL
REMARK 922        TOTAL FREE ENERGY PREDICTED BY IDOCK:   -1.81 KCAL/MOL
REMARK 923 INTER-LIGAND FREE ENERGY PREDICTED BY IDOCK:   -2.06 KCAL/MOL
REMARK 924 INTRA-LIGAND FREE ENERGY PREDICTED BY IDOCK:    0.25 KCAL/MOL
REMARK 927      BINDING AFFINITY PREDICTED BY RF-SCORE:    0.00 PKD
ROOT
HETATM    1  N   UNL     1      -6.159   8.784  69.135  1.00  0.00    -0.042 NA 
HETATM    2  H2  UNL     1      -5.357   8.899  69.754  1.00  0.00     0.000 HD 
HETATM    3  C   UNL     1      -6.671   7.545  68.859  1.00  0.00    -0.049 C  
HETATM    4  H1  UNL     1      -6.609   9.590  68.699  1.00  0.00     0.000 HD 
HETATM    5  N   UNL     1      -6.098   6.518  69.413  1.00  0.00    -0.022 N  
HETATM    6  H   UNL     1      -5.283   6.654  70.011  1.00  0.00     0.000 HD 
HETATM    7  C   UNL     1      -6.587   5.247  69.199  1.00  0.00    -0.051 C  
HETATM    8  N   UNL     1      -7.748   5.089  68.412  1.00  0.00    -0.079 N  
HETATM    9  O   UNL     1      -6.014   4.277  69.687  1.00  0.00    -0.017 OA 
HETATM   10  F   UNL     1      -8.326   8.501  67.370  1.00  0.00    -0.114 F  
HETATM   11  C   UNL     1      -8.332   6.181  67.798  1.00  0.00    -0.116 C  
HETATM   12  C   UNL     1      -7.834   7.401  67.962  1.00  0.00    -0.118 C  
ENDROOT
BRANCH   8  13
HETATM   13  C   UNL     1      -8.287   3.728  68.295  1.00  0.00    -0.090 C  
HETATM   14  C   UNL     1      -7.409   2.655  67.640  1.00  0.00    -0.056 C  
HETATM   15  S   UNL     1      -7.823   2.737  65.893  1.00  0.00    -0.082 SA 
HETATM   16  C   UNL     1      -9.491   3.312  66.276  1.00  0.00    -0.079 C  
HETATM   17  O   UNL     1      -9.557   3.803  67.622  1.00  0.00    -0.191 OA 
BRANCH  16  18
HETATM   18  C   UNL     1     -10.007   4.406  65.330  1.00  0.00    -0.200 C  
HETATM   19  O   UNL     1     -11.194   4.004  64.643  1.00  0.00    -0.756 OA 
HETATM   20  H   UNL     1     -11.513   4.681  64.058  1.00  0.00     0.000 HD 
ENDBRANCH  16  18
ENDBRANCH   8  13
TORSDOF 2
ENDMDL
MODEL      212
REMARK 921   NORMALIZED FREE ENERGY PREDICTED BY IDOCK:   -0.95 KCAL/MOL
REMARK 922        TOTAL FREE ENERGY PREDICTED BY IDOCK:   -1.26 KCAL/MOL
REMARK 923 INTER-LIGAND FREE ENERGY PREDICTED BY IDOCK:   -2.69 KCAL/MOL
REMARK 924 INTRA-LIGAND FREE ENERGY PREDICTED BY IDOCK:    1.44 KCAL/MOL
REMARK 927      BINDING AFFINITY PREDICTED BY RF-SCORE:    0.00 PKD
ROOT
HETATM    1  N   UNL     1      -7.432   8.295  66.268  1.00  0.00    -0.078 NA 
HETATM    2  H2  UNL     1      -7.326   7.409  65.773  1.00  0.00     0.000 HD 
HETATM    3  C   UNL     1      -7.739   8.328  67.602  1.00  0.00    -0.099 C  
HETATM    4  H1  UNL     1      -7.311   9.186  65.788  1.00  0.00     0.000 HD 
HETATM    5  N   UNL     1      -7.893   7.192  68.215  1.00  0.00    -0.120 N  
HETATM    6  H   UNL     1      -7.806   6.319  67.694  1.00  0.00     0.000 HD 
HETATM    7  C   UNL     1      -8.173   7.159  69.564  1.00  0.00    -0.132 C  
HETATM    8  N   UNL     1      -8.236   8.378  70.275  1.00  0.00    -0.117 N  
HETATM    9  O   UNL     1      -8.364   6.085  70.128  1.00  0.00    -0.116 OA 
HETATM   10  F   UNL     1      -7.783  10.750  67.586  1.00  0.00    -0.099 F  
HETATM   11  C   UNL     1      -8.105   9.583  69.610  1.00  0.00    -0.128 C  
HETATM   12  C   UNL     1      -7.885   9.619  68.302  1.00  0.00    -0.085 C  
ENDROOT
BRANCH   8  13
HETATM   13  C   UNL     1      -8.437   8.287  71.726  1.00  0.00    -0.158 C  
HETATM   14  C   UNL     1      -8.556   6.893  72.355  1.00  0.00    -0.122 C  
HETATM   15  S   UNL     1     -10.313   6.523  72.306  1.00  0.00    -0.194 SA 
HETATM   16  C   UNL     1     -10.725   8.278  72.409  1.00  0.00    -0.341 C  
HETATM   17  O   UNL     1      -9.585   9.081  72.073  1.00  0.00    -0.306 OA 
BRANCH  16  18
HETATM   18  C   UNL     1     -11.901   8.697  71.515  1.00  0.00    -0.306 C  
HETATM   19  O   UNL     1     -11.605   9.873  70.758  1.00  0.00    -0.295 OA 
HETATM   20  H   UNL     1     -12.332  10.133  70.205  1.00  0.00     0.000 HD 
ENDBRANCH  16  18
ENDBRANCH   8  13
TORSDOF 2
ENDMDL
MODEL      213
REMARK 921   NORMALIZED FREE ENERGY PREDICTED BY IDOCK:   -0.54 KCAL/MOL
REMARK 922        TOTAL FREE ENERGY PREDICTED BY IDOCK:   -0.80 KCAL/MOL
REMARK 923 INTER-LIGAND FREE ENERGY PREDICTED BY IDOCK:   -0.91 KCAL/MOL
REMARK 924 INTRA-LIGAND FREE ENERGY PREDICTED BY IDOCK:    0.12 KCAL/MOL
REMARK 927      BINDING AFFINITY PREDICTED BY RF-SCORE:    0.00 PKD
ROOT
HETATM    1  N   UNL     1     -13.489  14.907  73.814  1.00  0.00    -0.216 NA 
HETATM    2  H2  UNL     1     -14.503  14.931  73.921  1.00  0.00     0.000 HD 
HETATM    3  C   UNL     1     -12.898  15.136  72.600  1.00  0.00    -0.386 C  
HETATM    4  H1  UNL     1     -12.879  14.713  74.609  1.00  0.00     0.000 HD 
HETATM    5  N   UNL     1     -13.675  15.385  71.588  1.00  0.00    -0.493 N  
HETATM    6  H   UNL     1     -14.687  15.381  71.713  1.00  0.00     0.000 HD 
HETATM    7  C   UNL     1     -13.139  15.653  70.347  1.00  0.00     0.008 C  
HETATM    8  N   UNL     1     -11.734  15.706  70.210  1.00  0.00    -0.328 N  
HETATM    9  O   UNL     1     -13.877  15.840  69.384  1.00  0.00     1.842 OA 
HETATM   10  F   UNL     1     -10.697  14.766  73.543  1.00  0.00     0.615 F  
HETATM   11  C   UNL     1     -10.915  15.408  71.283  1.00  0.00    -0.184 C  
HETATM   12  C   UNL     1     -11.429  15.100  72.467  1.00  0.00    -0.265 C  
ENDROOT
BRANCH   8  13
HETATM   13  C   UNL     1     -11.213  16.095  68.894  1.00  0.00    -0.351 C  
HETATM   14  C   UNL     1     -11.116  15.018  67.806  1.00  0.00    -0.310 C  
HETATM   15  S   UNL     1      -9.475  14.315  68.011  1.00  0.00    -0.210 SA 
HETATM   16  C   UNL     1      -8.846  15.876  68.666  1.00  0.00    -0.206 C  
HETATM   17  O   UNL     1      -9.929  16.717  69.085  1.00  0.00    -0.267 OA 
BRANCH  16  18
HETATM   18  C   UNL     1      -7.870  15.712  69.840  1.00  0.00     0.180 C  
HETATM   19  O   UNL     1      -7.182  14.460  69.794  1.00  0.00    -0.340 OA 
HETATM   20  H   UNL     1      -6.579  14.359  70.521  1.00  0.00     0.000 HD 
ENDBRANCH  16  18
ENDBRANCH   8  13
TORSDOF 2
ENDMDL
MODEL      214
REMARK 921   NORMALIZED FREE ENERGY PREDICTED BY IDOCK:   -0.43 KCAL/MOL
REMARK 922        TOTAL FREE ENERGY PREDICTED BY IDOCK:   -0.67 KCAL/MOL
REMARK 923 INTER-LIGAND FREE ENERGY PREDICTED BY IDOCK:   -1.03 KCAL/MOL
REMARK 924 INTRA-LIGAND FREE ENERGY PREDICTED BY IDOCK:    0.36 KCAL/MOL
REMARK 927      BINDING AFFINITY PREDICTED BY RF-SCORE:    0.00 PKD
ROOT
HETATM    1  N   UNL     1      -9.025  16.605  65.242  1.00  0.00     0.464 NA 
HETATM    2  H2  UNL     1      -8.923  16.552  64.228  1.00  0.00     0.000 HD 
HETATM    3  C   UNL     1      -9.341  15.497  65.982  1.00  0.00    -0.344 C  
HETATM    4  H1  UNL     1      -8.893  17.485  65.740  1.00  0.00     0.000 HD 
HETATM    5  N   UNL     1      -9.508  14.375  65.347  1.00  0.00    -0.469 N  
HETATM    6  H   UNL     1      -9.424  14.350  64.331  1.00  0.00     0.000 HD 
HETATM    7  C   UNL     1      -9.798  13.219  66.040  1.00  0.00    -0.263 C  
HETATM    8  N   UNL     1      -9.855  13.267  67.449  1.00  0.00    -0.223 N  
HETATM    9  O   UNL     1     -10.001  12.171  65.432  1.00  0.00    -0.253 OA 
HETATM   10  F   UNL     1      -9.364  16.802  68.023  1.00  0.00    -0.216 F  
HETATM   11  C   UNL     1      -9.710  14.470  68.115  1.00  0.00    -0.219 C  
HETATM   12  C   UNL     1      -9.480  15.594  67.447  1.00  0.00    -0.215 C  
ENDROOT
BRANCH   8  13
HETATM   13  C   UNL     1     -10.066  11.993  68.146  1.00  0.00    -0.200 C  
HETATM   14  C   UNL     1     -11.155  11.049  67.619  1.00  0.00    -0.300 C  
HETATM   15  S   UNL     1     -12.641  11.534  68.505  1.00  0.00     1.613 SA 
HETATM   16  C   UNL     1     -11.663  12.088  69.919  1.00  0.00    -0.299 C  
HETATM   17  O   UNL     1     -10.293  12.273  69.540  1.00  0.00     0.288 OA 
BRANCH  16  18
HETATM   18  C   UNL     1     -12.174  13.386  70.560  1.00  0.00    -0.352 C  
HETATM   19  O   UNL     1     -13.213  13.992  69.788  1.00  0.00    -0.046 OA 
HETATM   20  H   UNL     1     -13.529  14.795  70.185  1.00  0.00     0.000 HD 
ENDBRANCH  16  18
ENDBRANCH   8  13
TORSDOF 2
ENDMDL
MODEL      215
REMARK 921   NORMALIZED FREE ENERGY PREDICTED BY IDOCK:   -0.04 KCAL/MOL
REMARK 922        TOTAL FREE ENERGY PREDICTED BY IDOCK:   -0.24 KCAL/MOL
REMARK 923 INTER-LIGAND FREE ENERGY PREDICTED BY IDOCK:   -0.56 KCAL/MOL
REMARK 924 INTRA-LIGAND FREE ENERGY PREDICTED BY IDOCK:    0.33 KCAL/MOL
REMARK 927      BINDING AFFINITY PREDICTED BY RF-SCORE:    0.00 PKD
ROOT
HETATM    1  N   UNL     1      -9.367  20.587  71.721  1.00  0.00     1.171 NA 
HETATM    2  H2  UNL     1     -10.291  20.741  72.125  1.00  0.00     0.000 HD 
HETATM    3  C   UNL     1      -9.221  20.108  70.447  1.00  0.00     1.378 C  
HETATM    4  H1  UNL     1      -8.519  20.784  72.253  1.00  0.00     0.000 HD 
HETATM    5  N   UNL     1     -10.302  19.857  69.769  1.00  0.00    -0.478 N  
HETATM    6  H   UNL     1     -11.215  19.996  70.201  1.00  0.00     0.000 HD 
HETATM    7  C   UNL     1     -10.220  19.402  68.470  1.00  0.00    -0.398 C  
HETATM    8  N   UNL     1      -8.947  19.267  67.876  1.00  0.00    -0.303 N  
HETATM    9  O   UNL     1     -11.242  19.121  67.851  1.00  0.00    -0.108 OA 
HETATM   10  F   UNL     1      -6.808  20.109  70.666  1.00  0.00    -0.352 F  
HETATM   11  C   UNL     1      -7.802  19.505  68.613  1.00  0.00    -0.348 C  
HETATM   12  C   UNL     1      -7.876  19.895  69.880  1.00  0.00     0.608 C  
ENDROOT
BRANCH   8  13
HETATM   13  C   UNL     1      -8.916  18.878  66.461  1.00  0.00    -0.323 C  
HETATM   14  C   UNL     1      -9.690  17.623  66.038  1.00  0.00    -0.137 C  
HETATM   15  S   UNL     1      -8.507  16.282  66.211  1.00  0.00    -0.286 SA 
HETATM   16  C   UNL     1      -7.130  17.402  65.881  1.00  0.00    -0.117 C  
HETATM   17  O   UNL     1      -7.540  18.766  66.055  1.00  0.00    -0.340 OA 
BRANCH  16  18
HETATM   18  C   UNL     1      -5.894  17.147  66.756  1.00  0.00    -0.199 C  
HETATM   19  O   UNL     1      -5.789  15.777  67.148  1.00  0.00    -0.334 OA 
HETATM   20  H   UNL     1      -5.025  15.619  67.690  1.00  0.00     0.000 HD 
ENDBRANCH  16  18
ENDBRANCH   8  13
TORSDOF 2
ENDMDL
MODEL      216
REMARK 921   NORMALIZED FREE ENERGY PREDICTED BY IDOCK:    1.58 KCAL/MOL
REMARK 922        TOTAL FREE ENERGY PREDICTED BY IDOCK:    1.57 KCAL/MOL
REMARK 923 INTER-LIGAND FREE ENERGY PREDICTED BY IDOCK:   -2.22 KCAL/MOL
REMARK 924 INTRA-LIGAND FREE ENERGY PREDICTED BY IDOCK:    3.79 KCAL/MOL
REMARK 927      BINDING AFFINITY PREDICTED BY RF-SCORE:    0.00 PKD
ROOT
HETATM    1  N   UNL     1     -10.666  17.456  65.069  1.00  0.00    -0.621 NA 
HETATM    2  H2  UNL     1     -10.802  16.489  64.775  1.00  0.00     0.000 HD 
HETATM    3  C   UNL     1      -9.960  17.761  66.202  1.00  0.00    -0.276 C  
HETATM    4  H1  UNL     1     -11.052  18.231  64.529  1.00  0.00     0.000 HD 
HETATM    5  N   UNL     1      -9.468  16.774  66.890  1.00  0.00    -0.234 N  
HETATM    6  H   UNL     1      -9.636  15.814  66.590  1.00  0.00     0.000 HD 
HETATM    7  C   UNL     1      -8.722  17.017  68.023  1.00  0.00    -0.218 C  
HETATM    8  N   UNL     1      -8.458  18.355  68.388  1.00  0.00    -0.319 N  
HETATM    9  O   UNL     1      -8.300  16.081  68.696  1.00  0.00    -0.179 OA 
HETATM   10  F   UNL     1     -10.371  20.128  65.886  1.00  0.00    -0.530 F  
HETATM   11  C   UNL     1      -9.011  19.399  67.671  1.00  0.00    -0.304 C  
HETATM   12  C   UNL     1      -9.772  19.167  66.608  1.00  0.00    -0.346 C  
ENDROOT
BRANCH   8  13
HETATM   13  C   UNL     1      -7.575  18.563  69.543  1.00  0.00     0.294 C  
HETATM   14  C   UNL     1      -6.167  19.115  69.288  1.00  0.00    -0.275 C  
HETATM   15  S   UNL     1      -5.147  17.656  69.044  1.00  0.00    -0.164 SA 
HETATM   16  C   UNL     1      -6.226  16.676  70.109  1.00  0.00     0.025 C  
HETATM   17  O   UNL     1      -7.493  17.328  70.276  1.00  0.00     1.446 OA 
BRANCH  16  18
HETATM   18  C   UNL     1      -6.473  15.247  69.602  1.00  0.00    -0.162 C  
HETATM   19  O   UNL     1      -7.149  14.445  70.573  1.00  0.00    -0.353 OA 
HETATM   20  H   UNL     1      -7.302  13.561  70.260  1.00  0.00     0.000 HD 
ENDBRANCH  16  18
ENDBRANCH   8  13
TORSDOF 2
ENDMDL
MODEL      217
REMARK 921   NORMALIZED FREE ENERGY PREDICTED BY IDOCK:    5.01 KCAL/MOL
REMARK 922        TOTAL FREE ENERGY PREDICTED BY IDOCK:    5.41 KCAL/MOL
REMARK 923 INTER-LIGAND FREE ENERGY PREDICTED BY IDOCK:    3.41 KCAL/MOL
REMARK 924 INTRA-LIGAND FREE ENERGY PREDICTED BY IDOCK:    1.99 KCAL/MOL
REMARK 927      BINDING AFFINITY PREDICTED BY RF-SCORE:    0.00 PKD
ROOT
HETATM    1  N   UNL     1      -9.164  16.016  65.842  1.00  0.00    -0.371 NA 
HETATM    2  H2  UNL     1      -9.790  15.292  66.192  1.00  0.00     0.000 HD 
HETATM    3  C   UNL     1      -8.257  16.629  66.665  1.00  0.00    -0.266 C  
HETATM    4  H1  UNL     1      -9.190  16.309  64.865  1.00  0.00     0.000 HD 
HETATM    5  N   UNL     1      -8.223  16.256  67.909  1.00  0.00    -0.149 N  
HETATM    6  H   UNL     1      -8.875  15.546  68.243  1.00  0.00     0.000 HD 
HETATM    7  C   UNL     1      -7.312  16.814  68.780  1.00  0.00    -0.227 C  
HETATM    8  N   UNL     1      -6.385  17.755  68.283  1.00  0.00    -0.185 N  
HETATM    9  O   UNL     1      -7.315  16.492  69.965  1.00  0.00     0.387 OA 
HETATM   10  F   UNL     1      -7.502  18.056  64.858  1.00  0.00     0.626 F  
HETATM   11  C   UNL     1      -6.449  18.172  66.966  1.00  0.00    -0.174 C  
HETATM   12  C   UNL     1      -7.358  17.673  66.138  1.00  0.00    -0.309 C  
ENDROOT
BRANCH   8  13
HETATM   13  C   UNL     1      -5.371  18.245  69.224  1.00  0.00    -0.196 C  
HETATM   14  C   UNL     1      -5.129  17.445  70.511  1.00  0.00    -0.260 C  
HETATM   15  S   UNL     1      -6.270  18.154  71.704  1.00  0.00     2.407 SA 
HETATM   16  C   UNL     1      -6.202  19.756  70.875  1.00  0.00    -0.098 C  
HETATM   17  O   UNL     1      -5.679  19.613  69.547  1.00  0.00    -0.217 OA 
BRANCH  16  18
HETATM   18  C   UNL     1      -7.557  20.475  70.793  1.00  0.00     1.779 C  
HETATM   19  O   UNL     1      -8.001  20.928  72.073  1.00  0.00     0.666 OA 
HETATM   20  H   UNL     1      -8.839  21.372  72.023  1.00  0.00     0.000 HD 
ENDBRANCH  16  18
ENDBRANCH   8  13
TORSDOF 2
ENDMDL
MODEL      218
REMARK 921   NORMALIZED FREE ENERGY PREDICTED BY IDOCK:    8.18 KCAL/MOL
REMARK 922        TOTAL FREE ENERGY PREDICTED BY IDOCK:    8.94 KCAL/MOL
REMARK 923 INTER-LIGAND FREE ENERGY PREDICTED BY IDOCK:    4.47 KCAL/MOL
REMARK 924 INTRA-LIGAND FREE ENERGY PREDICTED BY IDOCK:    4.47 KCAL/MOL
REMARK 927      BINDING AFFINITY PREDICTED BY RF-SCORE:    0.00 PKD
ROOT
HETATM    1  N   UNL     1     -12.067  17.693  64.911  1.00  0.00     3.042 NA 
HETATM    2  H2  UNL     1     -12.394  16.742  65.077  1.00  0.00     0.000 HD 
HETATM    3  C   UNL     1     -10.829  18.101  65.331  1.00  0.00     0.288 C  
HETATM    4  H1  UNL     1     -12.651  18.375  64.425  1.00  0.00     0.000 HD 
HETATM    5  N   UNL     1     -10.086  17.233  65.950  1.00  0.00    -0.255 N  
HETATM    6  H   UNL     1     -10.442  16.294  66.125  1.00  0.00     0.000 HD 
HETATM    7  C   UNL     1      -8.818  17.575  66.370  1.00  0.00    -0.241 C  
HETATM    8  N   UNL     1      -8.326  18.864  66.068  1.00  0.00    -0.182 N  
HETATM    9  O   UNL     1      -8.137  16.767  66.995  1.00  0.00    -0.168 OA 
HETATM   10  F   UNL     1     -11.227  20.342  64.498  1.00  0.00    -0.055 F  
HETATM   11  C   UNL     1      -9.135  19.792  65.440  1.00  0.00     0.774 C  
HETATM   12  C   UNL     1     -10.374  19.482  65.078  1.00  0.00     1.240 C  
ENDROOT
BRANCH   8  13
HETATM   13  C   UNL     1      -6.936  19.146  66.447  1.00  0.00    -0.217 C  
HETATM   14  C   UNL     1      -5.838  18.911  65.401  1.00  0.00    -0.216 C  
HETATM   15  S   UNL     1      -5.334  17.205  65.651  1.00  0.00     1.096 SA 
HETATM   16  C   UNL     1      -5.775  17.290  67.400  1.00  0.00    -0.136 C  
HETATM   17  O   UNL     1      -6.637  18.409  67.646  1.00  0.00    -0.193 OA 
BRANCH  16  18
HETATM   18  C   UNL     1      -6.454  16.021  67.935  1.00  0.00    -0.143 C  
HETATM   19  O   UNL     1      -6.568  16.035  69.360  1.00  0.00    -0.160 OA 
HETATM   20  H   UNL     1      -6.988  15.251  69.691  1.00  0.00     0.000 HD 
ENDBRANCH  16  18
ENDBRANCH   8  13
TORSDOF 2
ENDMDL
MODEL      219
REMARK 921   NORMALIZED FREE ENERGY PREDICTED BY IDOCK:   11.53 KCAL/MOL
REMARK 922        TOTAL FREE ENERGY PREDICTED BY IDOCK:   12.68 KCAL/MOL
REMARK 923 INTER-LIGAND FREE ENERGY PREDICTED BY IDOCK:   10.53 KCAL/MOL
REMARK 924 INTRA-LIGAND FREE ENERGY PREDICTED BY IDOCK:    2.15 KCAL/MOL
REMARK 927      BINDING AFFINITY PREDICTED BY RF-SCORE:    0.00 PKD
ROOT
HETATM    1  N   UNL     1      -8.137  19.523  73.474  1.00  0.00     3.285 NA 
HETATM    2  H2  UNL     1      -9.019  19.084  73.736  1.00  0.00     0.000 HD 
HETATM    3  C   UNL     1      -7.847  19.805  72.165  1.00  0.00     3.010 C  
HETATM    4  H1  UNL     1      -7.440  19.769  74.177  1.00  0.00     0.000 HD 
HETATM    5  N   UNL     1      -8.736  19.493  71.270  1.00  0.00     3.063 N  
HETATM    6  H   UNL     1      -9.601  19.033  71.553  1.00  0.00     0.000 HD 
HETATM    7  C   UNL     1      -8.515  19.779  69.939  1.00  0.00     0.867 C  
HETATM    8  N   UNL     1      -7.334  20.464  69.578  1.00  0.00     0.276 N  
HETATM    9  O   UNL     1      -9.336  19.439  69.092  1.00  0.00    -0.341 OA 
HETATM   10  F   UNL     1      -5.669  20.671  72.779  1.00  0.00     0.263 F  
HETATM   11  C   UNL     1      -6.379  20.763  70.532  1.00  0.00     0.664 C  
HETATM   12  C   UNL     1      -6.567  20.444  71.806  1.00  0.00     0.433 C  
ENDROOT
BRANCH   8  13
HETATM   13  C   UNL     1      -7.192  20.835  68.165  1.00  0.00    -0.026 C  
HETATM   14  C   UNL     1      -8.466  20.989  67.324  1.00  0.00     0.111 C  
HETATM   15  S   UNL     1      -8.756  19.352  66.642  1.00  0.00    -0.350 SA 
HETATM   16  C   UNL     1      -6.989  18.984  66.671  1.00  0.00    -0.207 C  
HETATM   17  O   UNL     1      -6.301  19.895  67.539  1.00  0.00    -0.198 OA 
BRANCH  16  18
HETATM   18  C   UNL     1      -6.657  17.549  67.106  1.00  0.00    -0.165 C  
HETATM   19  O   UNL     1      -7.229  16.577  66.227  1.00  0.00    -0.153 OA 
HETATM   20  H   UNL     1      -7.024  15.690  66.496  1.00  0.00     0.000 HD 
ENDBRANCH  16  18
ENDBRANCH   8  13
TORSDOF 2
ENDMDL
MODEL      220
REMARK 921   NORMALIZED FREE ENERGY PREDICTED BY IDOCK:   19.85 KCAL/MOL
REMARK 922        TOTAL FREE ENERGY PREDICTED BY IDOCK:   21.98 KCAL/MOL
REMARK 923 INTER-LIGAND FREE ENERGY PREDICTED BY IDOCK:   21.74 KCAL/MOL
REMARK 924 INTRA-LIGAND FREE ENERGY PREDICTED BY IDOCK:    0.24 KCAL/MOL
REMARK 927      BINDING AFFINITY PREDICTED BY RF-SCORE:    0.00 PKD
ROOT
HETATM    1  N   UNL     1      -9.272  14.889  73.592  1.00  0.00     7.678 NA 
HETATM    2  H2  UNL     1      -9.660  14.908  74.535  1.00  0.00     0.000 HD 
HETATM    3  C   UNL     1     -10.023  14.472  72.525  1.00  0.00     5.607 C  
HETATM    4  H1  UNL     1      -8.311  15.179  73.410  1.00  0.00     0.000 HD 
HETATM    5  N   UNL     1     -11.248  14.102  72.757  1.00  0.00     1.482 N  
HETATM    6  H   UNL     1     -11.607  14.109  73.712  1.00  0.00     0.000 HD 
HETATM    7  C   UNL     1     -12.063  13.701  71.720  1.00  0.00     0.390 C  
HETATM    8  N   UNL     1     -11.561  13.752  70.402  1.00  0.00    -0.149 N  
HETATM    9  O   UNL     1     -13.203  13.308  71.950  1.00  0.00    -0.404 OA 
HETATM   10  F   UNL     1      -8.151  14.780  71.019  1.00  0.00     1.017 F  
HETATM   11  C   UNL     1     -10.247  14.114  70.167  1.00  0.00     1.031 C  
HETATM   12  C   UNL     1      -9.445  14.453  71.168  1.00  0.00     4.024 C  
ENDROOT
BRANCH   8  13
HETATM   13  C   UNL     1     -12.498  13.412  69.324  1.00  0.00     0.140 C  
HETATM   14  C   UNL     1     -13.065  11.987  69.279  1.00  0.00     2.047 C  
HETATM   15  S   UNL     1     -11.900  11.070  68.263  1.00  0.00    -0.019 SA 
HETATM   16  C   UNL     1     -11.464  12.564  67.346  1.00  0.00    -0.341 C  
HETATM   17  O   UNL     1     -11.875  13.733  68.068  1.00  0.00    -0.341 OA 
BRANCH  16  18
HETATM   18  C   UNL     1      -9.967  12.686  67.027  1.00  0.00    -0.219 C  
HETATM   19  O   UNL     1      -9.504  11.607  66.211  1.00  0.00    -0.206 OA 
HETATM   20  H   UNL     1      -8.578  11.683  66.014  1.00  0.00     0.000 HD 
ENDBRANCH  16  18
ENDBRANCH   8  13
TORSDOF 2
ENDMDL
MODEL      221
REMARK 921   NORMALIZED FREE ENERGY PREDICTED BY IDOCK:   33.75 KCAL/MOL
REMARK 922        TOTAL FREE ENERGY PREDICTED BY IDOCK:   37.50 KCAL/MOL
REMARK 923 INTER-LIGAND FREE ENERGY PREDICTED BY IDOCK:   34.31 KCAL/MOL
REMARK 924 INTRA-LIGAND FREE ENERGY PREDICTED BY IDOCK:    3.19 KCAL/MOL
REMARK 927      BINDING AFFINITY PREDICTED BY RF-SCORE:    0.00 PKD
ROOT
HETATM    1  N   UNL     1      -7.963  18.529  74.035  1.00  0.00     7.162 NA 
HETATM    2  H2  UNL     1      -8.914  18.263  74.291  1.00  0.00     0.000 HD 
HETATM    3  C   UNL     1      -7.574  18.597  72.724  1.00  0.00     7.946 C  
HETATM    4  H1  UNL     1      -7.268  18.753  74.747  1.00  0.00     0.000 HD 
HETATM    5  N   UNL     1      -8.460  18.311  71.816  1.00  0.00    10.720 N  
HETATM    6  H   UNL     1      -9.398  18.026  72.096  1.00  0.00     0.000 HD 
HETATM    7  C   UNL     1      -8.138  18.392  70.478  1.00  0.00     3.578 C  
HETATM    8  N   UNL     1      -6.850  18.841  70.115  1.00  0.00     0.315 N  
HETATM    9  O   UNL     1      -8.963  18.075  69.626  1.00  0.00     0.562 OA 
HETATM   10  F   UNL     1      -5.317  19.197  73.369  1.00  0.00     3.224 F  
HETATM   11  C   UNL     1      -5.903  19.111  71.085  1.00  0.00     0.020 C  
HETATM   12  C   UNL     1      -6.195  18.987  72.374  1.00  0.00     1.654 C  
ENDROOT
BRANCH   8  13
HETATM   13  C   UNL     1      -6.588  19.007  68.680  1.00  0.00    -0.265 C  
HETATM   14  C   UNL     1      -5.983  20.333  68.202  1.00  0.00    -0.257 C  
HETATM   15  S   UNL     1      -7.402  21.375  67.844  1.00  0.00     0.996 SA 
HETATM   16  C   UNL     1      -8.409  19.931  67.443  1.00  0.00    -0.322 C  
HETATM   17  O   UNL     1      -7.808  18.738  67.965  1.00  0.00    -0.260 OA 
BRANCH  16  18
HETATM   18  C   UNL     1      -9.855  20.016  67.956  1.00  0.00    -0.394 C  
HETATM   19  O   UNL     1     -10.405  18.724  68.222  1.00  0.00    -0.371 OA 
HETATM   20  H   UNL     1     -11.298  18.776  68.539  1.00  0.00     0.000 HD 
ENDBRANCH  16  18
ENDBRANCH   8  13
TORSDOF 2
ENDMDL
MODEL      222
REMARK 921   NORMALIZED FREE ENERGY PREDICTED BY IDOCK:   51.88 KCAL/MOL
REMARK 922        TOTAL FREE ENERGY PREDICTED BY IDOCK:   57.75 KCAL/MOL
REMARK 923 INTER-LIGAND FREE ENERGY PREDICTED BY IDOCK:   57.91 KCAL/MOL
REMARK 924 INTRA-LIGAND FREE ENERGY PREDICTED BY IDOCK:   -0.16 KCAL/MOL
REMARK 927      BINDING AFFINITY PREDICTED BY RF-SCORE:    0.00 PKD
ROOT
HETATM    1  N   UNL     1      -8.274  17.359  74.383  1.00  0.00    13.339 NA 
HETATM    2  H2  UNL     1      -9.216  17.395  74.773  1.00  0.00     0.000 HD 
HETATM    3  C   UNL     1      -8.047  16.875  73.122  1.00  0.00    18.861 C  
HETATM    4  H1  UNL     1      -7.468  17.682  74.919  1.00  0.00     0.000 HD 
HETATM    5  N   UNL     1      -9.074  16.464  72.440  1.00  0.00    10.501 N  
HETATM    6  H   UNL     1     -10.004  16.488  72.859  1.00  0.00     0.000 HD 
HETATM    7  C   UNL     1      -8.914  15.994  71.154  1.00  0.00     4.196 C  
HETATM    8  N   UNL     1      -7.626  16.020  70.576  1.00  0.00     1.500 N  
HETATM    9  O   UNL     1      -9.880  15.563  70.531  1.00  0.00     0.076 OA 
HETATM   10  F   UNL     1      -5.660  17.209  73.367  1.00  0.00     1.672 F  
HETATM   11  C   UNL     1      -6.533  16.428  71.320  1.00  0.00     2.268 C  
HETATM   12  C   UNL     1      -6.678  16.834  72.575  1.00  0.00     6.661 C  
ENDROOT
BRANCH   8  13
HETATM   13  C   UNL     1      -7.522  15.606  69.172  1.00  0.00    -0.201 C  
HETATM   14  C   UNL     1      -6.185  15.035  68.681  1.00  0.00    -0.085 C  
HETATM   15  S   UNL     1      -5.268  16.468  68.102  1.00  0.00    -0.115 SA 
HETATM   16  C   UNL     1      -6.800  17.328  67.684  1.00  0.00    -0.146 C  
HETATM   17  O   UNL     1      -7.916  16.715  68.345  1.00  0.00    -0.187 OA 
BRANCH  16  18
HETATM   18  C   UNL     1      -6.789  18.825  68.026  1.00  0.00    -0.229 C  
HETATM   19  O   UNL     1      -5.800  19.142  69.008  1.00  0.00    -0.204 OA 
HETATM   20  H   UNL     1      -5.794  20.068  69.220  1.00  0.00     0.000 HD 
ENDBRANCH  16  18
ENDBRANCH   8  13
TORSDOF 2
ENDMDL
